data_str_m3_o1_o10_pcu_sym.149
_audit_creation_date              2020-01-03
_audit_creation_method            'Materials Studio'
_symmetry_space_group_name_H-M    'P1'
_symmetry_Int_Tables_number       1
_symmetry_cell_setting            triclinic
loop_
_symmetry_equiv_pos_as_xyz
  x,y,z
_cell_length_a                    25.7742
_cell_length_b                    31.9329
_cell_length_c                    29.5625
_cell_angle_alpha                 89.7530
_cell_angle_beta                  97.6557
_cell_angle_gamma                 90.4828
loop_
_atom_site_label
_atom_site_type_symbol
_atom_site_fract_x
_atom_site_fract_y
_atom_site_fract_z
_atom_site_U_iso_or_equiv
_atom_site_adp_type
_atom_site_occupancy
C1     C     0.16695   0.08675   0.16675   0.00000  Uiso   1.00
C2     C     0.16613   0.24661   0.16655   0.00000  Uiso   1.00
C3     C     0.06741   0.16481   0.15516   0.00000  Uiso   1.00
C4     C     0.26600   0.16745   0.17810   0.00000  Uiso   1.00
C5     C     0.01306   0.15723   0.15059   0.00000  Uiso   1.00
C6     C     0.32018   0.17413   0.18233   0.00000  Uiso   1.00
C7     C     0.13572   0.02193   0.13219   0.00000  Uiso   1.00
C8     C     0.19842   0.31148   0.20095   0.00000  Uiso   1.00
C9     C     0.13519   0.31215   0.13131   0.00000  Uiso   1.00
C10    C     0.20058   0.02119   0.20071   0.00000  Uiso   1.00
C11    C     0.16612   0.29076   0.16637   0.00000  Uiso   1.00
C12    C     0.16793   0.04266   0.16674   0.00000  Uiso   1.00
C13    C     0.19974   0.19244   0.02768   0.00000  Uiso   1.00
C14    C     0.13355   0.14093   0.30565   0.00000  Uiso   1.00
C15    C     0.19969   0.19246   0.31307   0.00000  Uiso   1.00
C16    C     0.13359   0.14092   0.02025   0.00000  Uiso   1.00
H17    H     0.11030   0.03912   0.10661   0.00000  Uiso   1.00
H18    H     0.22276   0.29431   0.22738   0.00000  Uiso   1.00
H19    H     0.22614   0.21310   0.04878   0.00000  Uiso   1.00
H20    H     0.10707   0.12034   0.28454   0.00000  Uiso   1.00
H21    H     0.22609   0.21311   0.29790   0.00000  Uiso   1.00
H22    H     0.10714   0.12030   0.03540   0.00000  Uiso   1.00
N23    N     0.16665   0.16666   0.28573   0.00000  Uiso   1.00
N24    N     0.16668   0.16668   0.04760   0.00000  Uiso   1.00
O25    O     0.16666   0.10558   0.20487   0.00000  Uiso   1.00
O26    O     0.16667   0.22775   0.12846   0.00000  Uiso   1.00
O27    O     0.16666   0.10559   0.12843   0.00000  Uiso   1.00
O28    O     0.16667   0.22774   0.20490   0.00000  Uiso   1.00
O29    O     0.09058   0.16666   0.19595   0.00000  Uiso   1.00
O30    O     0.24275   0.16667   0.13739   0.00000  Uiso   1.00
O31    O     0.09058   0.16667   0.11950   0.00000  Uiso   1.00
O32    O     0.24275   0.16666   0.21383   0.00000  Uiso   1.00
Zn33   Zn    0.16667   0.16666   0.21771   0.00000  Uiso   1.00
Zn34   Zn    0.16667   0.16667   0.11563   0.00000  Uiso   1.00
O35    O     0.32159   0.13289   0.11480   0.00000  Uiso   1.00
C36    C     0.01254   0.09342   0.11367   0.00000  Uiso   1.00
H37    H     0.02368   0.08015   0.14856   0.00000  Uiso   1.00
H38    H     0.04792   0.09617   0.09612   0.00000  Uiso   1.00
C39    C     0.30804   0.06291   0.08685   0.00000  Uiso   1.00
H40    H     0.29731   0.07451   0.05139   0.00000  Uiso   1.00
H41    H     0.32675   0.03179   0.08575   0.00000  Uiso   1.00
H42    H     0.27196   0.05948   0.10338   0.00000  Uiso   1.00
O43    O     0.00980   0.20096   0.21630   0.00000  Uiso   1.00
C44    C     0.00558   0.24247   0.19934   0.00000  Uiso   1.00
H45    H     0.29726   0.25249   0.19424   0.00000  Uiso   1.00
H46    H     0.02201   0.24561   0.16643   0.00000  Uiso   1.00
C47    C     0.03639   0.27180   0.23347   0.00000  Uiso   1.00
H48    H     0.07771   0.26147   0.24048   0.00000  Uiso   1.00
H49    H     0.03574   0.30407   0.21935   0.00000  Uiso   1.00
H50    H     0.01873   0.27192   0.26571   0.00000  Uiso   1.00
O51    O     0.10047   0.29077   0.09963   0.00000  Uiso   1.00
C52    C     0.11779   0.29377   0.05638   0.00000  Uiso   1.00
H53    H     0.16015   0.28600   0.05816   0.00000  Uiso   1.00
H54    H     0.11108   0.32579   0.04195   0.00000  Uiso   1.00
C55    C     0.08698   0.26271   0.02429   0.00000  Uiso   1.00
H56    H     0.04501   0.27147   0.01872   0.00000  Uiso   1.00
H57    H     0.10262   0.26269   0.32444   0.00000  Uiso   1.00
H58    H     0.09052   0.23071   0.03912   0.00000  Uiso   1.00
O59    O     0.23322   0.04190   0.23450   0.00000  Uiso   1.00
C60    C     0.28075   0.05144   0.21770   0.00000  Uiso   1.00
H61    H     0.27419   0.07373   0.18852   0.00000  Uiso   1.00
H62    H     0.29939   0.02258   0.20654   0.00000  Uiso   1.00
C63    C     0.31843   0.07196   0.25524   0.00000  Uiso   1.00
H64    H     0.32697   0.05012   0.28459   0.00000  Uiso   1.00
H65    H     0.02229   0.08011   0.24203   0.00000  Uiso   1.00
H66    H     0.30105   0.10103   0.26696   0.00000  Uiso   1.00
C67    C     0.50029   0.08675   0.16675   0.00000  Uiso   1.00
C68    C     0.49946   0.24661   0.16655   0.00000  Uiso   1.00
C69    C     0.40074   0.16481   0.15516   0.00000  Uiso   1.00
C70    C     0.59933   0.16745   0.17810   0.00000  Uiso   1.00
C71    C     0.34639   0.15723   0.15059   0.00000  Uiso   1.00
C72    C     0.65352   0.17413   0.18233   0.00000  Uiso   1.00
C73    C     0.46906   0.02193   0.13219   0.00000  Uiso   1.00
C74    C     0.53176   0.31148   0.20095   0.00000  Uiso   1.00
C75    C     0.46852   0.31215   0.13131   0.00000  Uiso   1.00
C76    C     0.53392   0.02119   0.20071   0.00000  Uiso   1.00
C77    C     0.49945   0.29076   0.16637   0.00000  Uiso   1.00
C78    C     0.50127   0.04266   0.16674   0.00000  Uiso   1.00
C79    C     0.53307   0.19244   0.02768   0.00000  Uiso   1.00
C80    C     0.46689   0.14093   0.30565   0.00000  Uiso   1.00
C81    C     0.53303   0.19246   0.31307   0.00000  Uiso   1.00
C82    C     0.46692   0.14092   0.02025   0.00000  Uiso   1.00
H83    H     0.44363   0.03912   0.10661   0.00000  Uiso   1.00
H84    H     0.55609   0.29431   0.22738   0.00000  Uiso   1.00
H85    H     0.55947   0.21310   0.04878   0.00000  Uiso   1.00
H86    H     0.44040   0.12034   0.28454   0.00000  Uiso   1.00
H87    H     0.55943   0.21311   0.29790   0.00000  Uiso   1.00
H88    H     0.44048   0.12030   0.03540   0.00000  Uiso   1.00
N89    N     0.49999   0.16666   0.28573   0.00000  Uiso   1.00
N90    N     0.50001   0.16668   0.04760   0.00000  Uiso   1.00
O91    O     0.50000   0.10558   0.20487   0.00000  Uiso   1.00
O92    O     0.50000   0.22775   0.12846   0.00000  Uiso   1.00
O93    O     0.50000   0.10559   0.12843   0.00000  Uiso   1.00
O94    O     0.50000   0.22774   0.20490   0.00000  Uiso   1.00
O95    O     0.42392   0.16666   0.19595   0.00000  Uiso   1.00
O96    O     0.57608   0.16667   0.13739   0.00000  Uiso   1.00
O97    O     0.42392   0.16667   0.11950   0.00000  Uiso   1.00
O98    O     0.57608   0.16666   0.21383   0.00000  Uiso   1.00
Zn99   Zn    0.50000   0.16666   0.21771   0.00000  Uiso   1.00
Zn100  Zn    0.50000   0.16667   0.11563   0.00000  Uiso   1.00
O101   O     0.65492   0.13289   0.11480   0.00000  Uiso   1.00
C102   C     0.34587   0.09342   0.11367   0.00000  Uiso   1.00
H103   H     0.35701   0.08015   0.14856   0.00000  Uiso   1.00
H104   H     0.38125   0.09617   0.09612   0.00000  Uiso   1.00
C105   C     0.64137   0.06291   0.08685   0.00000  Uiso   1.00
H106   H     0.63064   0.07451   0.05139   0.00000  Uiso   1.00
H107   H     0.66008   0.03179   0.08575   0.00000  Uiso   1.00
H108   H     0.60529   0.05948   0.10338   0.00000  Uiso   1.00
O109   O     0.34313   0.20096   0.21630   0.00000  Uiso   1.00
C110   C     0.33892   0.24247   0.19934   0.00000  Uiso   1.00
H111   H     0.63059   0.25249   0.19424   0.00000  Uiso   1.00
H112   H     0.35534   0.24561   0.16643   0.00000  Uiso   1.00
C113   C     0.36972   0.27180   0.23347   0.00000  Uiso   1.00
H114   H     0.41104   0.26147   0.24048   0.00000  Uiso   1.00
H115   H     0.36907   0.30407   0.21935   0.00000  Uiso   1.00
H116   H     0.35206   0.27192   0.26571   0.00000  Uiso   1.00
O117   O     0.43380   0.29077   0.09963   0.00000  Uiso   1.00
C118   C     0.45113   0.29377   0.05638   0.00000  Uiso   1.00
H119   H     0.49348   0.28600   0.05816   0.00000  Uiso   1.00
H120   H     0.44441   0.32579   0.04195   0.00000  Uiso   1.00
C121   C     0.42031   0.26271   0.02429   0.00000  Uiso   1.00
H122   H     0.37834   0.27147   0.01872   0.00000  Uiso   1.00
H123   H     0.43596   0.26269   0.32444   0.00000  Uiso   1.00
H124   H     0.42385   0.23071   0.03912   0.00000  Uiso   1.00
O125   O     0.56655   0.04190   0.23450   0.00000  Uiso   1.00
C126   C     0.61408   0.05144   0.21770   0.00000  Uiso   1.00
H127   H     0.60752   0.07373   0.18852   0.00000  Uiso   1.00
H128   H     0.63272   0.02258   0.20654   0.00000  Uiso   1.00
C129   C     0.65177   0.07196   0.25524   0.00000  Uiso   1.00
H130   H     0.66030   0.05012   0.28459   0.00000  Uiso   1.00
H131   H     0.35562   0.08011   0.24203   0.00000  Uiso   1.00
H132   H     0.63438   0.10103   0.26696   0.00000  Uiso   1.00
C133   C     0.83362   0.08675   0.16675   0.00000  Uiso   1.00
C134   C     0.83280   0.24661   0.16655   0.00000  Uiso   1.00
C135   C     0.73407   0.16481   0.15516   0.00000  Uiso   1.00
C136   C     0.93266   0.16745   0.17810   0.00000  Uiso   1.00
C137   C     0.67972   0.15723   0.15059   0.00000  Uiso   1.00
C138   C     0.98685   0.17413   0.18233   0.00000  Uiso   1.00
C139   C     0.80239   0.02193   0.13219   0.00000  Uiso   1.00
C140   C     0.86509   0.31148   0.20095   0.00000  Uiso   1.00
C141   C     0.80186   0.31215   0.13131   0.00000  Uiso   1.00
C142   C     0.86725   0.02119   0.20071   0.00000  Uiso   1.00
C143   C     0.83278   0.29076   0.16637   0.00000  Uiso   1.00
C144   C     0.83460   0.04266   0.16674   0.00000  Uiso   1.00
C145   C     0.86641   0.19244   0.02768   0.00000  Uiso   1.00
C146   C     0.80022   0.14093   0.30565   0.00000  Uiso   1.00
C147   C     0.86636   0.19246   0.31307   0.00000  Uiso   1.00
C148   C     0.80026   0.14092   0.02025   0.00000  Uiso   1.00
H149   H     0.77696   0.03912   0.10661   0.00000  Uiso   1.00
H150   H     0.88943   0.29431   0.22738   0.00000  Uiso   1.00
H151   H     0.89281   0.21310   0.04878   0.00000  Uiso   1.00
H152   H     0.77374   0.12034   0.28454   0.00000  Uiso   1.00
H153   H     0.89276   0.21311   0.29790   0.00000  Uiso   1.00
H154   H     0.77381   0.12030   0.03540   0.00000  Uiso   1.00
N155   N     0.83332   0.16666   0.28573   0.00000  Uiso   1.00
N156   N     0.83335   0.16668   0.04760   0.00000  Uiso   1.00
O157   O     0.83333   0.10558   0.20487   0.00000  Uiso   1.00
O158   O     0.83334   0.22775   0.12846   0.00000  Uiso   1.00
O159   O     0.83333   0.10559   0.12843   0.00000  Uiso   1.00
O160   O     0.83334   0.22774   0.20490   0.00000  Uiso   1.00
O161   O     0.75725   0.16666   0.19595   0.00000  Uiso   1.00
O162   O     0.90942   0.16667   0.13739   0.00000  Uiso   1.00
O163   O     0.75725   0.16667   0.11950   0.00000  Uiso   1.00
O164   O     0.90942   0.16666   0.21383   0.00000  Uiso   1.00
Zn165  Zn    0.83333   0.16666   0.21771   0.00000  Uiso   1.00
Zn166  Zn    0.83333   0.16667   0.11563   0.00000  Uiso   1.00
O167   O     0.98826   0.13289   0.11480   0.00000  Uiso   1.00
C168   C     0.67920   0.09342   0.11367   0.00000  Uiso   1.00
H169   H     0.69034   0.08015   0.14856   0.00000  Uiso   1.00
H170   H     0.71458   0.09617   0.09612   0.00000  Uiso   1.00
C171   C     0.97470   0.06291   0.08685   0.00000  Uiso   1.00
H172   H     0.96398   0.07451   0.05139   0.00000  Uiso   1.00
H173   H     0.99341   0.03179   0.08575   0.00000  Uiso   1.00
H174   H     0.93862   0.05948   0.10338   0.00000  Uiso   1.00
O175   O     0.67647   0.20096   0.21630   0.00000  Uiso   1.00
C176   C     0.67225   0.24247   0.19934   0.00000  Uiso   1.00
H177   H     0.96392   0.25249   0.19424   0.00000  Uiso   1.00
H178   H     0.68868   0.24561   0.16643   0.00000  Uiso   1.00
C179   C     0.70306   0.27180   0.23347   0.00000  Uiso   1.00
H180   H     0.74438   0.26147   0.24048   0.00000  Uiso   1.00
H181   H     0.70241   0.30407   0.21935   0.00000  Uiso   1.00
H182   H     0.68540   0.27192   0.26571   0.00000  Uiso   1.00
O183   O     0.76713   0.29077   0.09963   0.00000  Uiso   1.00
C184   C     0.78446   0.29377   0.05638   0.00000  Uiso   1.00
H185   H     0.82681   0.28600   0.05816   0.00000  Uiso   1.00
H186   H     0.77774   0.32579   0.04195   0.00000  Uiso   1.00
C187   C     0.75364   0.26271   0.02429   0.00000  Uiso   1.00
H188   H     0.71168   0.27147   0.01872   0.00000  Uiso   1.00
H189   H     0.76929   0.26269   0.32444   0.00000  Uiso   1.00
H190   H     0.75719   0.23071   0.03912   0.00000  Uiso   1.00
O191   O     0.89988   0.04190   0.23450   0.00000  Uiso   1.00
C192   C     0.94742   0.05144   0.21770   0.00000  Uiso   1.00
H193   H     0.94086   0.07373   0.18852   0.00000  Uiso   1.00
H194   H     0.96605   0.02258   0.20654   0.00000  Uiso   1.00
C195   C     0.98510   0.07196   0.25524   0.00000  Uiso   1.00
H196   H     0.99364   0.05012   0.28459   0.00000  Uiso   1.00
H197   H     0.68895   0.08011   0.24203   0.00000  Uiso   1.00
H198   H     0.96771   0.10103   0.26696   0.00000  Uiso   1.00
C199   C     0.16695   0.42008   0.16675   0.00000  Uiso   1.00
C200   C     0.16613   0.57995   0.16655   0.00000  Uiso   1.00
C201   C     0.06741   0.49814   0.15516   0.00000  Uiso   1.00
C202   C     0.26600   0.50078   0.17810   0.00000  Uiso   1.00
C203   C     0.01306   0.49056   0.15059   0.00000  Uiso   1.00
C204   C     0.32018   0.50746   0.18233   0.00000  Uiso   1.00
C205   C     0.13572   0.35526   0.13219   0.00000  Uiso   1.00
C206   C     0.19842   0.64482   0.20095   0.00000  Uiso   1.00
C207   C     0.13519   0.64549   0.13131   0.00000  Uiso   1.00
C208   C     0.20058   0.35452   0.20071   0.00000  Uiso   1.00
C209   C     0.16612   0.62409   0.16637   0.00000  Uiso   1.00
C210   C     0.16793   0.37600   0.16674   0.00000  Uiso   1.00
C211   C     0.19974   0.52578   0.02768   0.00000  Uiso   1.00
C212   C     0.13355   0.47426   0.30565   0.00000  Uiso   1.00
C213   C     0.19969   0.52579   0.31307   0.00000  Uiso   1.00
C214   C     0.13359   0.47425   0.02025   0.00000  Uiso   1.00
H215   H     0.11030   0.37245   0.10661   0.00000  Uiso   1.00
H216   H     0.22276   0.62764   0.22738   0.00000  Uiso   1.00
H217   H     0.22614   0.54643   0.04878   0.00000  Uiso   1.00
H218   H     0.10707   0.45367   0.28454   0.00000  Uiso   1.00
H219   H     0.22609   0.54645   0.29790   0.00000  Uiso   1.00
H220   H     0.10714   0.45363   0.03540   0.00000  Uiso   1.00
N221   N     0.16665   0.49999   0.28573   0.00000  Uiso   1.00
N222   N     0.16668   0.50001   0.04760   0.00000  Uiso   1.00
O223   O     0.16666   0.43892   0.20487   0.00000  Uiso   1.00
O224   O     0.16667   0.56108   0.12846   0.00000  Uiso   1.00
O225   O     0.16666   0.43893   0.12843   0.00000  Uiso   1.00
O226   O     0.16667   0.56107   0.20490   0.00000  Uiso   1.00
O227   O     0.09058   0.50000   0.19595   0.00000  Uiso   1.00
O228   O     0.24275   0.50000   0.13739   0.00000  Uiso   1.00
O229   O     0.09058   0.50000   0.11950   0.00000  Uiso   1.00
O230   O     0.24275   0.50000   0.21383   0.00000  Uiso   1.00
Zn231  Zn    0.16667   0.49999   0.21771   0.00000  Uiso   1.00
Zn232  Zn    0.16667   0.50001   0.11563   0.00000  Uiso   1.00
O233   O     0.32159   0.46622   0.11480   0.00000  Uiso   1.00
C234   C     0.01254   0.42676   0.11367   0.00000  Uiso   1.00
H235   H     0.02368   0.41349   0.14856   0.00000  Uiso   1.00
H236   H     0.04792   0.42951   0.09612   0.00000  Uiso   1.00
C237   C     0.30804   0.39624   0.08685   0.00000  Uiso   1.00
H238   H     0.29731   0.40785   0.05139   0.00000  Uiso   1.00
H239   H     0.32675   0.36512   0.08575   0.00000  Uiso   1.00
H240   H     0.27196   0.39282   0.10338   0.00000  Uiso   1.00
O241   O     0.00980   0.53430   0.21630   0.00000  Uiso   1.00
C242   C     0.00558   0.57580   0.19934   0.00000  Uiso   1.00
H243   H     0.29726   0.58582   0.19424   0.00000  Uiso   1.00
H244   H     0.02201   0.57894   0.16643   0.00000  Uiso   1.00
C245   C     0.03639   0.60513   0.23347   0.00000  Uiso   1.00
H246   H     0.07771   0.59480   0.24048   0.00000  Uiso   1.00
H247   H     0.03574   0.63741   0.21935   0.00000  Uiso   1.00
H248   H     0.01873   0.60526   0.26571   0.00000  Uiso   1.00
O249   O     0.10047   0.62410   0.09963   0.00000  Uiso   1.00
C250   C     0.11779   0.62710   0.05638   0.00000  Uiso   1.00
H251   H     0.16015   0.61933   0.05816   0.00000  Uiso   1.00
H252   H     0.11108   0.65913   0.04195   0.00000  Uiso   1.00
C253   C     0.08698   0.59604   0.02429   0.00000  Uiso   1.00
H254   H     0.04501   0.60481   0.01872   0.00000  Uiso   1.00
H255   H     0.10262   0.59602   0.32444   0.00000  Uiso   1.00
H256   H     0.09052   0.56405   0.03912   0.00000  Uiso   1.00
O257   O     0.23322   0.37523   0.23450   0.00000  Uiso   1.00
C258   C     0.28075   0.38477   0.21770   0.00000  Uiso   1.00
H259   H     0.27419   0.40707   0.18852   0.00000  Uiso   1.00
H260   H     0.29939   0.35591   0.20654   0.00000  Uiso   1.00
C261   C     0.31843   0.40529   0.25524   0.00000  Uiso   1.00
H262   H     0.32697   0.38345   0.28459   0.00000  Uiso   1.00
H263   H     0.02229   0.41344   0.24203   0.00000  Uiso   1.00
H264   H     0.30105   0.43436   0.26696   0.00000  Uiso   1.00
C265   C     0.50029   0.42008   0.16675   0.00000  Uiso   1.00
C266   C     0.49946   0.57995   0.16655   0.00000  Uiso   1.00
C267   C     0.40074   0.49814   0.15516   0.00000  Uiso   1.00
C268   C     0.59933   0.50078   0.17810   0.00000  Uiso   1.00
C269   C     0.34639   0.49056   0.15059   0.00000  Uiso   1.00
C270   C     0.65352   0.50746   0.18233   0.00000  Uiso   1.00
C271   C     0.46906   0.35526   0.13219   0.00000  Uiso   1.00
C272   C     0.53176   0.64482   0.20095   0.00000  Uiso   1.00
C273   C     0.46852   0.64549   0.13131   0.00000  Uiso   1.00
C274   C     0.53392   0.35452   0.20071   0.00000  Uiso   1.00
C275   C     0.49945   0.62409   0.16637   0.00000  Uiso   1.00
C276   C     0.50127   0.37600   0.16674   0.00000  Uiso   1.00
C277   C     0.53307   0.52578   0.02768   0.00000  Uiso   1.00
C278   C     0.46689   0.47426   0.30565   0.00000  Uiso   1.00
C279   C     0.53303   0.52579   0.31307   0.00000  Uiso   1.00
C280   C     0.46692   0.47425   0.02025   0.00000  Uiso   1.00
H281   H     0.44363   0.37245   0.10661   0.00000  Uiso   1.00
H282   H     0.55609   0.62764   0.22738   0.00000  Uiso   1.00
H283   H     0.55947   0.54643   0.04878   0.00000  Uiso   1.00
H284   H     0.44040   0.45367   0.28454   0.00000  Uiso   1.00
H285   H     0.55943   0.54645   0.29790   0.00000  Uiso   1.00
H286   H     0.44048   0.45363   0.03540   0.00000  Uiso   1.00
N287   N     0.49999   0.49999   0.28573   0.00000  Uiso   1.00
N288   N     0.50001   0.50001   0.04760   0.00000  Uiso   1.00
O289   O     0.50000   0.43892   0.20487   0.00000  Uiso   1.00
O290   O     0.50000   0.56108   0.12846   0.00000  Uiso   1.00
O291   O     0.50000   0.43893   0.12843   0.00000  Uiso   1.00
O292   O     0.50000   0.56107   0.20490   0.00000  Uiso   1.00
O293   O     0.42392   0.50000   0.19595   0.00000  Uiso   1.00
O294   O     0.57608   0.50000   0.13739   0.00000  Uiso   1.00
O295   O     0.42392   0.50000   0.11950   0.00000  Uiso   1.00
O296   O     0.57608   0.50000   0.21383   0.00000  Uiso   1.00
Zn297  Zn    0.50000   0.49999   0.21771   0.00000  Uiso   1.00
Zn298  Zn    0.50000   0.50001   0.11563   0.00000  Uiso   1.00
O299   O     0.65492   0.46622   0.11480   0.00000  Uiso   1.00
C300   C     0.34587   0.42676   0.11367   0.00000  Uiso   1.00
H301   H     0.35701   0.41349   0.14856   0.00000  Uiso   1.00
H302   H     0.38125   0.42951   0.09612   0.00000  Uiso   1.00
C303   C     0.64137   0.39624   0.08685   0.00000  Uiso   1.00
H304   H     0.63064   0.40785   0.05139   0.00000  Uiso   1.00
H305   H     0.66008   0.36512   0.08575   0.00000  Uiso   1.00
H306   H     0.60529   0.39282   0.10338   0.00000  Uiso   1.00
O307   O     0.34313   0.53430   0.21630   0.00000  Uiso   1.00
C308   C     0.33892   0.57580   0.19934   0.00000  Uiso   1.00
H309   H     0.63059   0.58582   0.19424   0.00000  Uiso   1.00
H310   H     0.35534   0.57894   0.16643   0.00000  Uiso   1.00
C311   C     0.36972   0.60513   0.23347   0.00000  Uiso   1.00
H312   H     0.41104   0.59480   0.24048   0.00000  Uiso   1.00
H313   H     0.36907   0.63741   0.21935   0.00000  Uiso   1.00
H314   H     0.35206   0.60526   0.26571   0.00000  Uiso   1.00
O315   O     0.43380   0.62410   0.09963   0.00000  Uiso   1.00
C316   C     0.45113   0.62710   0.05638   0.00000  Uiso   1.00
H317   H     0.49348   0.61933   0.05816   0.00000  Uiso   1.00
H318   H     0.44441   0.65913   0.04195   0.00000  Uiso   1.00
C319   C     0.42031   0.59604   0.02429   0.00000  Uiso   1.00
H320   H     0.37834   0.60481   0.01872   0.00000  Uiso   1.00
H321   H     0.43596   0.59602   0.32444   0.00000  Uiso   1.00
H322   H     0.42385   0.56405   0.03912   0.00000  Uiso   1.00
O323   O     0.56655   0.37523   0.23450   0.00000  Uiso   1.00
C324   C     0.61408   0.38477   0.21770   0.00000  Uiso   1.00
H325   H     0.60752   0.40707   0.18852   0.00000  Uiso   1.00
H326   H     0.63272   0.35591   0.20654   0.00000  Uiso   1.00
C327   C     0.65177   0.40529   0.25524   0.00000  Uiso   1.00
H328   H     0.66030   0.38345   0.28459   0.00000  Uiso   1.00
H329   H     0.35562   0.41344   0.24203   0.00000  Uiso   1.00
H330   H     0.63438   0.43436   0.26696   0.00000  Uiso   1.00
C331   C     0.83362   0.42008   0.16675   0.00000  Uiso   1.00
C332   C     0.83280   0.57995   0.16655   0.00000  Uiso   1.00
C333   C     0.73407   0.49814   0.15516   0.00000  Uiso   1.00
C334   C     0.93266   0.50078   0.17810   0.00000  Uiso   1.00
C335   C     0.67972   0.49056   0.15059   0.00000  Uiso   1.00
C336   C     0.98685   0.50746   0.18233   0.00000  Uiso   1.00
C337   C     0.80239   0.35526   0.13219   0.00000  Uiso   1.00
C338   C     0.86509   0.64482   0.20095   0.00000  Uiso   1.00
C339   C     0.80186   0.64549   0.13131   0.00000  Uiso   1.00
C340   C     0.86725   0.35452   0.20071   0.00000  Uiso   1.00
C341   C     0.83278   0.62409   0.16637   0.00000  Uiso   1.00
C342   C     0.83460   0.37600   0.16674   0.00000  Uiso   1.00
C343   C     0.86641   0.52578   0.02768   0.00000  Uiso   1.00
C344   C     0.80022   0.47426   0.30565   0.00000  Uiso   1.00
C345   C     0.86636   0.52579   0.31307   0.00000  Uiso   1.00
C346   C     0.80026   0.47425   0.02025   0.00000  Uiso   1.00
H347   H     0.77696   0.37245   0.10661   0.00000  Uiso   1.00
H348   H     0.88943   0.62764   0.22738   0.00000  Uiso   1.00
H349   H     0.89281   0.54643   0.04878   0.00000  Uiso   1.00
H350   H     0.77374   0.45367   0.28454   0.00000  Uiso   1.00
H351   H     0.89276   0.54645   0.29790   0.00000  Uiso   1.00
H352   H     0.77381   0.45363   0.03540   0.00000  Uiso   1.00
N353   N     0.83332   0.49999   0.28573   0.00000  Uiso   1.00
N354   N     0.83335   0.50001   0.04760   0.00000  Uiso   1.00
O355   O     0.83333   0.43892   0.20487   0.00000  Uiso   1.00
O356   O     0.83334   0.56108   0.12846   0.00000  Uiso   1.00
O357   O     0.83333   0.43893   0.12843   0.00000  Uiso   1.00
O358   O     0.83334   0.56107   0.20490   0.00000  Uiso   1.00
O359   O     0.75725   0.50000   0.19595   0.00000  Uiso   1.00
O360   O     0.90942   0.50000   0.13739   0.00000  Uiso   1.00
O361   O     0.75725   0.50000   0.11950   0.00000  Uiso   1.00
O362   O     0.90942   0.50000   0.21383   0.00000  Uiso   1.00
Zn363  Zn    0.83333   0.49999   0.21771   0.00000  Uiso   1.00
Zn364  Zn    0.83333   0.50001   0.11563   0.00000  Uiso   1.00
O365   O     0.98826   0.46622   0.11480   0.00000  Uiso   1.00
C366   C     0.67920   0.42676   0.11367   0.00000  Uiso   1.00
H367   H     0.69034   0.41349   0.14856   0.00000  Uiso   1.00
H368   H     0.71458   0.42951   0.09612   0.00000  Uiso   1.00
C369   C     0.97470   0.39624   0.08685   0.00000  Uiso   1.00
H370   H     0.96398   0.40785   0.05139   0.00000  Uiso   1.00
H371   H     0.99341   0.36512   0.08575   0.00000  Uiso   1.00
H372   H     0.93862   0.39282   0.10338   0.00000  Uiso   1.00
O373   O     0.67647   0.53430   0.21630   0.00000  Uiso   1.00
C374   C     0.67225   0.57580   0.19934   0.00000  Uiso   1.00
H375   H     0.96392   0.58582   0.19424   0.00000  Uiso   1.00
H376   H     0.68868   0.57894   0.16643   0.00000  Uiso   1.00
C377   C     0.70306   0.60513   0.23347   0.00000  Uiso   1.00
H378   H     0.74438   0.59480   0.24048   0.00000  Uiso   1.00
H379   H     0.70241   0.63741   0.21935   0.00000  Uiso   1.00
H380   H     0.68540   0.60526   0.26571   0.00000  Uiso   1.00
O381   O     0.76713   0.62410   0.09963   0.00000  Uiso   1.00
C382   C     0.78446   0.62710   0.05638   0.00000  Uiso   1.00
H383   H     0.82681   0.61933   0.05816   0.00000  Uiso   1.00
H384   H     0.77774   0.65913   0.04195   0.00000  Uiso   1.00
C385   C     0.75364   0.59604   0.02429   0.00000  Uiso   1.00
H386   H     0.71168   0.60481   0.01872   0.00000  Uiso   1.00
H387   H     0.76929   0.59602   0.32444   0.00000  Uiso   1.00
H388   H     0.75719   0.56405   0.03912   0.00000  Uiso   1.00
O389   O     0.89988   0.37523   0.23450   0.00000  Uiso   1.00
C390   C     0.94742   0.38477   0.21770   0.00000  Uiso   1.00
H391   H     0.94086   0.40707   0.18852   0.00000  Uiso   1.00
H392   H     0.96605   0.35591   0.20654   0.00000  Uiso   1.00
C393   C     0.98510   0.40529   0.25524   0.00000  Uiso   1.00
H394   H     0.99364   0.38345   0.28459   0.00000  Uiso   1.00
H395   H     0.68895   0.41344   0.24203   0.00000  Uiso   1.00
H396   H     0.96771   0.43436   0.26696   0.00000  Uiso   1.00
C397   C     0.16695   0.75341   0.16675   0.00000  Uiso   1.00
C398   C     0.16613   0.91328   0.16655   0.00000  Uiso   1.00
C399   C     0.06741   0.83147   0.15516   0.00000  Uiso   1.00
C400   C     0.26600   0.83411   0.17810   0.00000  Uiso   1.00
C401   C     0.01306   0.82390   0.15059   0.00000  Uiso   1.00
C402   C     0.32018   0.84080   0.18233   0.00000  Uiso   1.00
C403   C     0.13572   0.68859   0.13219   0.00000  Uiso   1.00
C404   C     0.19842   0.97815   0.20095   0.00000  Uiso   1.00
C405   C     0.13519   0.97882   0.13131   0.00000  Uiso   1.00
C406   C     0.20058   0.68786   0.20071   0.00000  Uiso   1.00
C407   C     0.16612   0.95742   0.16637   0.00000  Uiso   1.00
C408   C     0.16793   0.70933   0.16674   0.00000  Uiso   1.00
C409   C     0.19974   0.85911   0.02768   0.00000  Uiso   1.00
C410   C     0.13355   0.80759   0.30565   0.00000  Uiso   1.00
C411   C     0.19969   0.85913   0.31307   0.00000  Uiso   1.00
C412   C     0.13359   0.80758   0.02025   0.00000  Uiso   1.00
H413   H     0.11030   0.70579   0.10661   0.00000  Uiso   1.00
H414   H     0.22276   0.96097   0.22738   0.00000  Uiso   1.00
H415   H     0.22614   0.87976   0.04878   0.00000  Uiso   1.00
H416   H     0.10707   0.78700   0.28454   0.00000  Uiso   1.00
H417   H     0.22609   0.87978   0.29790   0.00000  Uiso   1.00
H418   H     0.10714   0.78697   0.03540   0.00000  Uiso   1.00
N419   N     0.16665   0.83332   0.28573   0.00000  Uiso   1.00
N420   N     0.16668   0.83334   0.04760   0.00000  Uiso   1.00
O421   O     0.16666   0.77225   0.20487   0.00000  Uiso   1.00
O422   O     0.16667   0.89442   0.12846   0.00000  Uiso   1.00
O423   O     0.16666   0.77226   0.12843   0.00000  Uiso   1.00
O424   O     0.16667   0.89441   0.20490   0.00000  Uiso   1.00
O425   O     0.09058   0.83333   0.19595   0.00000  Uiso   1.00
O426   O     0.24275   0.83334   0.13739   0.00000  Uiso   1.00
O427   O     0.09058   0.83334   0.11950   0.00000  Uiso   1.00
O428   O     0.24275   0.83333   0.21383   0.00000  Uiso   1.00
Zn429  Zn    0.16667   0.83333   0.21771   0.00000  Uiso   1.00
Zn430  Zn    0.16667   0.83334   0.11563   0.00000  Uiso   1.00
O431   O     0.32159   0.79955   0.11480   0.00000  Uiso   1.00
C432   C     0.01254   0.76009   0.11367   0.00000  Uiso   1.00
H433   H     0.02368   0.74682   0.14856   0.00000  Uiso   1.00
H434   H     0.04792   0.76284   0.09612   0.00000  Uiso   1.00
C435   C     0.30804   0.72957   0.08685   0.00000  Uiso   1.00
H436   H     0.29731   0.74118   0.05139   0.00000  Uiso   1.00
H437   H     0.32675   0.69845   0.08575   0.00000  Uiso   1.00
H438   H     0.27196   0.72615   0.10338   0.00000  Uiso   1.00
O439   O     0.00980   0.86763   0.21630   0.00000  Uiso   1.00
C440   C     0.00558   0.90914   0.19934   0.00000  Uiso   1.00
H441   H     0.29726   0.91915   0.19424   0.00000  Uiso   1.00
H442   H     0.02201   0.91228   0.16643   0.00000  Uiso   1.00
C443   C     0.03639   0.93846   0.23347   0.00000  Uiso   1.00
H444   H     0.07771   0.92813   0.24048   0.00000  Uiso   1.00
H445   H     0.03574   0.97074   0.21935   0.00000  Uiso   1.00
H446   H     0.01873   0.93859   0.26571   0.00000  Uiso   1.00
O447   O     0.10047   0.95743   0.09963   0.00000  Uiso   1.00
C448   C     0.11779   0.96043   0.05638   0.00000  Uiso   1.00
H449   H     0.16015   0.95266   0.05816   0.00000  Uiso   1.00
H450   H     0.11108   0.99246   0.04195   0.00000  Uiso   1.00
C451   C     0.08698   0.92938   0.02429   0.00000  Uiso   1.00
H452   H     0.04501   0.93814   0.01872   0.00000  Uiso   1.00
H453   H     0.10262   0.92936   0.32444   0.00000  Uiso   1.00
H454   H     0.09052   0.89738   0.03912   0.00000  Uiso   1.00
O455   O     0.23322   0.70857   0.23450   0.00000  Uiso   1.00
C456   C     0.28075   0.71811   0.21770   0.00000  Uiso   1.00
H457   H     0.27419   0.74040   0.18852   0.00000  Uiso   1.00
H458   H     0.29939   0.68925   0.20654   0.00000  Uiso   1.00
C459   C     0.31843   0.73862   0.25524   0.00000  Uiso   1.00
H460   H     0.32697   0.71678   0.28459   0.00000  Uiso   1.00
H461   H     0.02229   0.74677   0.24203   0.00000  Uiso   1.00
H462   H     0.30105   0.76770   0.26696   0.00000  Uiso   1.00
C463   C     0.50029   0.75341   0.16675   0.00000  Uiso   1.00
C464   C     0.49946   0.91328   0.16655   0.00000  Uiso   1.00
C465   C     0.40074   0.83147   0.15516   0.00000  Uiso   1.00
C466   C     0.59933   0.83411   0.17810   0.00000  Uiso   1.00
C467   C     0.34639   0.82390   0.15059   0.00000  Uiso   1.00
C468   C     0.65352   0.84080   0.18233   0.00000  Uiso   1.00
C469   C     0.46906   0.68859   0.13219   0.00000  Uiso   1.00
C470   C     0.53176   0.97815   0.20095   0.00000  Uiso   1.00
C471   C     0.46852   0.97882   0.13131   0.00000  Uiso   1.00
C472   C     0.53392   0.68786   0.20071   0.00000  Uiso   1.00
C473   C     0.49945   0.95742   0.16637   0.00000  Uiso   1.00
C474   C     0.50127   0.70933   0.16674   0.00000  Uiso   1.00
C475   C     0.53307   0.85911   0.02768   0.00000  Uiso   1.00
C476   C     0.46689   0.80759   0.30565   0.00000  Uiso   1.00
C477   C     0.53303   0.85913   0.31307   0.00000  Uiso   1.00
C478   C     0.46692   0.80758   0.02025   0.00000  Uiso   1.00
H479   H     0.44363   0.70579   0.10661   0.00000  Uiso   1.00
H480   H     0.55609   0.96097   0.22738   0.00000  Uiso   1.00
H481   H     0.55947   0.87976   0.04878   0.00000  Uiso   1.00
H482   H     0.44040   0.78700   0.28454   0.00000  Uiso   1.00
H483   H     0.55943   0.87978   0.29790   0.00000  Uiso   1.00
H484   H     0.44048   0.78697   0.03540   0.00000  Uiso   1.00
N485   N     0.49999   0.83332   0.28573   0.00000  Uiso   1.00
N486   N     0.50001   0.83334   0.04760   0.00000  Uiso   1.00
O487   O     0.50000   0.77225   0.20487   0.00000  Uiso   1.00
O488   O     0.50000   0.89442   0.12846   0.00000  Uiso   1.00
O489   O     0.50000   0.77226   0.12843   0.00000  Uiso   1.00
O490   O     0.50000   0.89441   0.20490   0.00000  Uiso   1.00
O491   O     0.42392   0.83333   0.19595   0.00000  Uiso   1.00
O492   O     0.57608   0.83334   0.13739   0.00000  Uiso   1.00
O493   O     0.42392   0.83334   0.11950   0.00000  Uiso   1.00
O494   O     0.57608   0.83333   0.21383   0.00000  Uiso   1.00
Zn495  Zn    0.50000   0.83333   0.21771   0.00000  Uiso   1.00
Zn496  Zn    0.50000   0.83334   0.11563   0.00000  Uiso   1.00
O497   O     0.65492   0.79955   0.11480   0.00000  Uiso   1.00
C498   C     0.34587   0.76009   0.11367   0.00000  Uiso   1.00
H499   H     0.35701   0.74682   0.14856   0.00000  Uiso   1.00
H500   H     0.38125   0.76284   0.09612   0.00000  Uiso   1.00
C501   C     0.64137   0.72957   0.08685   0.00000  Uiso   1.00
H502   H     0.63064   0.74118   0.05139   0.00000  Uiso   1.00
H503   H     0.66008   0.69845   0.08575   0.00000  Uiso   1.00
H504   H     0.60529   0.72615   0.10338   0.00000  Uiso   1.00
O505   O     0.34313   0.86763   0.21630   0.00000  Uiso   1.00
C506   C     0.33892   0.90914   0.19934   0.00000  Uiso   1.00
H507   H     0.63059   0.91915   0.19424   0.00000  Uiso   1.00
H508   H     0.35534   0.91228   0.16643   0.00000  Uiso   1.00
C509   C     0.36972   0.93846   0.23347   0.00000  Uiso   1.00
H510   H     0.41104   0.92813   0.24048   0.00000  Uiso   1.00
H511   H     0.36907   0.97074   0.21935   0.00000  Uiso   1.00
H512   H     0.35206   0.93859   0.26571   0.00000  Uiso   1.00
O513   O     0.43380   0.95743   0.09963   0.00000  Uiso   1.00
C514   C     0.45113   0.96043   0.05638   0.00000  Uiso   1.00
H515   H     0.49348   0.95266   0.05816   0.00000  Uiso   1.00
H516   H     0.44441   0.99246   0.04195   0.00000  Uiso   1.00
C517   C     0.42031   0.92938   0.02429   0.00000  Uiso   1.00
H518   H     0.37834   0.93814   0.01872   0.00000  Uiso   1.00
H519   H     0.43596   0.92936   0.32444   0.00000  Uiso   1.00
H520   H     0.42385   0.89738   0.03912   0.00000  Uiso   1.00
O521   O     0.56655   0.70857   0.23450   0.00000  Uiso   1.00
C522   C     0.61408   0.71811   0.21770   0.00000  Uiso   1.00
H523   H     0.60752   0.74040   0.18852   0.00000  Uiso   1.00
H524   H     0.63272   0.68925   0.20654   0.00000  Uiso   1.00
C525   C     0.65177   0.73862   0.25524   0.00000  Uiso   1.00
H526   H     0.66030   0.71678   0.28459   0.00000  Uiso   1.00
H527   H     0.35562   0.74677   0.24203   0.00000  Uiso   1.00
H528   H     0.63438   0.76770   0.26696   0.00000  Uiso   1.00
C529   C     0.83362   0.75341   0.16675   0.00000  Uiso   1.00
C530   C     0.83280   0.91328   0.16655   0.00000  Uiso   1.00
C531   C     0.73407   0.83147   0.15516   0.00000  Uiso   1.00
C532   C     0.93266   0.83411   0.17810   0.00000  Uiso   1.00
C533   C     0.67972   0.82390   0.15059   0.00000  Uiso   1.00
C534   C     0.98685   0.84080   0.18233   0.00000  Uiso   1.00
C535   C     0.80239   0.68859   0.13219   0.00000  Uiso   1.00
C536   C     0.86509   0.97815   0.20095   0.00000  Uiso   1.00
C537   C     0.80186   0.97882   0.13131   0.00000  Uiso   1.00
C538   C     0.86725   0.68786   0.20071   0.00000  Uiso   1.00
C539   C     0.83278   0.95742   0.16637   0.00000  Uiso   1.00
C540   C     0.83460   0.70933   0.16674   0.00000  Uiso   1.00
C541   C     0.86641   0.85911   0.02768   0.00000  Uiso   1.00
C542   C     0.80022   0.80759   0.30565   0.00000  Uiso   1.00
C543   C     0.86636   0.85913   0.31307   0.00000  Uiso   1.00
C544   C     0.80026   0.80758   0.02025   0.00000  Uiso   1.00
H545   H     0.77696   0.70579   0.10661   0.00000  Uiso   1.00
H546   H     0.88943   0.96097   0.22738   0.00000  Uiso   1.00
H547   H     0.89281   0.87976   0.04878   0.00000  Uiso   1.00
H548   H     0.77374   0.78700   0.28454   0.00000  Uiso   1.00
H549   H     0.89276   0.87978   0.29790   0.00000  Uiso   1.00
H550   H     0.77381   0.78697   0.03540   0.00000  Uiso   1.00
N551   N     0.83332   0.83332   0.28573   0.00000  Uiso   1.00
N552   N     0.83335   0.83334   0.04760   0.00000  Uiso   1.00
O553   O     0.83333   0.77225   0.20487   0.00000  Uiso   1.00
O554   O     0.83334   0.89442   0.12846   0.00000  Uiso   1.00
O555   O     0.83333   0.77226   0.12843   0.00000  Uiso   1.00
O556   O     0.83334   0.89441   0.20490   0.00000  Uiso   1.00
O557   O     0.75725   0.83333   0.19595   0.00000  Uiso   1.00
O558   O     0.90942   0.83334   0.13739   0.00000  Uiso   1.00
O559   O     0.75725   0.83334   0.11950   0.00000  Uiso   1.00
O560   O     0.90942   0.83333   0.21383   0.00000  Uiso   1.00
Zn561  Zn    0.83333   0.83333   0.21771   0.00000  Uiso   1.00
Zn562  Zn    0.83333   0.83334   0.11563   0.00000  Uiso   1.00
O563   O     0.98826   0.79955   0.11480   0.00000  Uiso   1.00
C564   C     0.67920   0.76009   0.11367   0.00000  Uiso   1.00
H565   H     0.69034   0.74682   0.14856   0.00000  Uiso   1.00
H566   H     0.71458   0.76284   0.09612   0.00000  Uiso   1.00
C567   C     0.97470   0.72957   0.08685   0.00000  Uiso   1.00
H568   H     0.96398   0.74118   0.05139   0.00000  Uiso   1.00
H569   H     0.99341   0.69845   0.08575   0.00000  Uiso   1.00
H570   H     0.93862   0.72615   0.10338   0.00000  Uiso   1.00
O571   O     0.67647   0.86763   0.21630   0.00000  Uiso   1.00
C572   C     0.67225   0.90914   0.19934   0.00000  Uiso   1.00
H573   H     0.96392   0.91915   0.19424   0.00000  Uiso   1.00
H574   H     0.68868   0.91228   0.16643   0.00000  Uiso   1.00
C575   C     0.70306   0.93846   0.23347   0.00000  Uiso   1.00
H576   H     0.74438   0.92813   0.24048   0.00000  Uiso   1.00
H577   H     0.70241   0.97074   0.21935   0.00000  Uiso   1.00
H578   H     0.68540   0.93859   0.26571   0.00000  Uiso   1.00
O579   O     0.76713   0.95743   0.09963   0.00000  Uiso   1.00
C580   C     0.78446   0.96043   0.05638   0.00000  Uiso   1.00
H581   H     0.82681   0.95266   0.05816   0.00000  Uiso   1.00
H582   H     0.77774   0.99246   0.04195   0.00000  Uiso   1.00
C583   C     0.75364   0.92938   0.02429   0.00000  Uiso   1.00
H584   H     0.71168   0.93814   0.01872   0.00000  Uiso   1.00
H585   H     0.76929   0.92936   0.32444   0.00000  Uiso   1.00
H586   H     0.75719   0.89738   0.03912   0.00000  Uiso   1.00
O587   O     0.89988   0.70857   0.23450   0.00000  Uiso   1.00
C588   C     0.94742   0.71811   0.21770   0.00000  Uiso   1.00
H589   H     0.94086   0.74040   0.18852   0.00000  Uiso   1.00
H590   H     0.96605   0.68925   0.20654   0.00000  Uiso   1.00
C591   C     0.98510   0.73862   0.25524   0.00000  Uiso   1.00
H592   H     0.99364   0.71678   0.28459   0.00000  Uiso   1.00
H593   H     0.68895   0.74677   0.24203   0.00000  Uiso   1.00
H594   H     0.96771   0.76770   0.26696   0.00000  Uiso   1.00
C595   C     0.16695   0.08675   0.50008   0.00000  Uiso   1.00
C596   C     0.16613   0.24661   0.49988   0.00000  Uiso   1.00
C597   C     0.06741   0.16481   0.48850   0.00000  Uiso   1.00
C598   C     0.26600   0.16745   0.51144   0.00000  Uiso   1.00
C599   C     0.01306   0.15723   0.48392   0.00000  Uiso   1.00
C600   C     0.32018   0.17413   0.51566   0.00000  Uiso   1.00
C601   C     0.13572   0.02193   0.46553   0.00000  Uiso   1.00
C602   C     0.19842   0.31148   0.53428   0.00000  Uiso   1.00
C603   C     0.13519   0.31215   0.46465   0.00000  Uiso   1.00
C604   C     0.20058   0.02119   0.53405   0.00000  Uiso   1.00
C605   C     0.16612   0.29076   0.49971   0.00000  Uiso   1.00
C606   C     0.16793   0.04266   0.50008   0.00000  Uiso   1.00
C607   C     0.19974   0.19244   0.36101   0.00000  Uiso   1.00
C608   C     0.13355   0.14093   0.63898   0.00000  Uiso   1.00
C609   C     0.19969   0.19246   0.64641   0.00000  Uiso   1.00
C610   C     0.13359   0.14092   0.35358   0.00000  Uiso   1.00
H611   H     0.11030   0.03912   0.43995   0.00000  Uiso   1.00
H612   H     0.22276   0.29431   0.56071   0.00000  Uiso   1.00
H613   H     0.22614   0.21310   0.38212   0.00000  Uiso   1.00
H614   H     0.10707   0.12034   0.61787   0.00000  Uiso   1.00
H615   H     0.22609   0.21311   0.63123   0.00000  Uiso   1.00
H616   H     0.10714   0.12030   0.36873   0.00000  Uiso   1.00
N617   N     0.16665   0.16666   0.61907   0.00000  Uiso   1.00
N618   N     0.16668   0.16668   0.38093   0.00000  Uiso   1.00
O619   O     0.16666   0.10558   0.53821   0.00000  Uiso   1.00
O620   O     0.16667   0.22775   0.46179   0.00000  Uiso   1.00
O621   O     0.16666   0.10559   0.46176   0.00000  Uiso   1.00
O622   O     0.16667   0.22774   0.53824   0.00000  Uiso   1.00
O623   O     0.09058   0.16666   0.52928   0.00000  Uiso   1.00
O624   O     0.24275   0.16667   0.47072   0.00000  Uiso   1.00
O625   O     0.09058   0.16667   0.45284   0.00000  Uiso   1.00
O626   O     0.24275   0.16666   0.54716   0.00000  Uiso   1.00
Zn627  Zn    0.16667   0.16666   0.55104   0.00000  Uiso   1.00
Zn628  Zn    0.16667   0.16667   0.44896   0.00000  Uiso   1.00
O629   O     0.32159   0.13289   0.44813   0.00000  Uiso   1.00
C630   C     0.01254   0.09342   0.44701   0.00000  Uiso   1.00
H631   H     0.02368   0.08015   0.48189   0.00000  Uiso   1.00
H632   H     0.04792   0.09617   0.42945   0.00000  Uiso   1.00
C633   C     0.30804   0.06291   0.42018   0.00000  Uiso   1.00
H634   H     0.29731   0.07451   0.38472   0.00000  Uiso   1.00
H635   H     0.32675   0.03179   0.41908   0.00000  Uiso   1.00
H636   H     0.27196   0.05948   0.43671   0.00000  Uiso   1.00
O637   O     0.00980   0.20096   0.54964   0.00000  Uiso   1.00
C638   C     0.00558   0.24247   0.53268   0.00000  Uiso   1.00
H639   H     0.29726   0.25249   0.52757   0.00000  Uiso   1.00
H640   H     0.02201   0.24561   0.49976   0.00000  Uiso   1.00
C641   C     0.03639   0.27180   0.56680   0.00000  Uiso   1.00
H642   H     0.07771   0.26147   0.57382   0.00000  Uiso   1.00
H643   H     0.03574   0.30407   0.55269   0.00000  Uiso   1.00
H644   H     0.01873   0.27192   0.59904   0.00000  Uiso   1.00
O645   O     0.10047   0.29077   0.43297   0.00000  Uiso   1.00
C646   C     0.11779   0.29377   0.38972   0.00000  Uiso   1.00
H647   H     0.16015   0.28600   0.39149   0.00000  Uiso   1.00
H648   H     0.11108   0.32579   0.37528   0.00000  Uiso   1.00
C649   C     0.08698   0.26271   0.35763   0.00000  Uiso   1.00
H650   H     0.04501   0.27147   0.35205   0.00000  Uiso   1.00
H651   H     0.10262   0.26269   0.65777   0.00000  Uiso   1.00
H652   H     0.09052   0.23071   0.37245   0.00000  Uiso   1.00
O653   O     0.23322   0.04190   0.56783   0.00000  Uiso   1.00
C654   C     0.28075   0.05144   0.55103   0.00000  Uiso   1.00
H655   H     0.27419   0.07373   0.52185   0.00000  Uiso   1.00
H656   H     0.29939   0.02258   0.53987   0.00000  Uiso   1.00
C657   C     0.31843   0.07196   0.58858   0.00000  Uiso   1.00
H658   H     0.32697   0.05012   0.61792   0.00000  Uiso   1.00
H659   H     0.02229   0.08011   0.57537   0.00000  Uiso   1.00
H660   H     0.30105   0.10103   0.60030   0.00000  Uiso   1.00
C661   C     0.50029   0.08675   0.50008   0.00000  Uiso   1.00
C662   C     0.49946   0.24661   0.49988   0.00000  Uiso   1.00
C663   C     0.40074   0.16481   0.48850   0.00000  Uiso   1.00
C664   C     0.59933   0.16745   0.51144   0.00000  Uiso   1.00
C665   C     0.34639   0.15723   0.48392   0.00000  Uiso   1.00
C666   C     0.65352   0.17413   0.51566   0.00000  Uiso   1.00
C667   C     0.46906   0.02193   0.46553   0.00000  Uiso   1.00
C668   C     0.53176   0.31148   0.53428   0.00000  Uiso   1.00
C669   C     0.46852   0.31215   0.46465   0.00000  Uiso   1.00
C670   C     0.53392   0.02119   0.53405   0.00000  Uiso   1.00
C671   C     0.49945   0.29076   0.49971   0.00000  Uiso   1.00
C672   C     0.50127   0.04266   0.50008   0.00000  Uiso   1.00
C673   C     0.53307   0.19244   0.36101   0.00000  Uiso   1.00
C674   C     0.46689   0.14093   0.63898   0.00000  Uiso   1.00
C675   C     0.53303   0.19246   0.64641   0.00000  Uiso   1.00
C676   C     0.46692   0.14092   0.35358   0.00000  Uiso   1.00
H677   H     0.44363   0.03912   0.43995   0.00000  Uiso   1.00
H678   H     0.55609   0.29431   0.56071   0.00000  Uiso   1.00
H679   H     0.55947   0.21310   0.38212   0.00000  Uiso   1.00
H680   H     0.44040   0.12034   0.61787   0.00000  Uiso   1.00
H681   H     0.55943   0.21311   0.63123   0.00000  Uiso   1.00
H682   H     0.44048   0.12030   0.36873   0.00000  Uiso   1.00
N683   N     0.49999   0.16666   0.61907   0.00000  Uiso   1.00
N684   N     0.50001   0.16668   0.38093   0.00000  Uiso   1.00
O685   O     0.50000   0.10558   0.53821   0.00000  Uiso   1.00
O686   O     0.50000   0.22775   0.46179   0.00000  Uiso   1.00
O687   O     0.50000   0.10559   0.46176   0.00000  Uiso   1.00
O688   O     0.50000   0.22774   0.53824   0.00000  Uiso   1.00
O689   O     0.42392   0.16666   0.52928   0.00000  Uiso   1.00
O690   O     0.57608   0.16667   0.47072   0.00000  Uiso   1.00
O691   O     0.42392   0.16667   0.45284   0.00000  Uiso   1.00
O692   O     0.57608   0.16666   0.54716   0.00000  Uiso   1.00
Zn693  Zn    0.50000   0.16666   0.55104   0.00000  Uiso   1.00
Zn694  Zn    0.50000   0.16667   0.44896   0.00000  Uiso   1.00
O695   O     0.65492   0.13289   0.44813   0.00000  Uiso   1.00
C696   C     0.34587   0.09342   0.44701   0.00000  Uiso   1.00
H697   H     0.35701   0.08015   0.48189   0.00000  Uiso   1.00
H698   H     0.38125   0.09617   0.42945   0.00000  Uiso   1.00
C699   C     0.64137   0.06291   0.42018   0.00000  Uiso   1.00
H700   H     0.63064   0.07451   0.38472   0.00000  Uiso   1.00
H701   H     0.66008   0.03179   0.41908   0.00000  Uiso   1.00
H702   H     0.60529   0.05948   0.43671   0.00000  Uiso   1.00
O703   O     0.34313   0.20096   0.54964   0.00000  Uiso   1.00
C704   C     0.33892   0.24247   0.53268   0.00000  Uiso   1.00
H705   H     0.63059   0.25249   0.52757   0.00000  Uiso   1.00
H706   H     0.35534   0.24561   0.49976   0.00000  Uiso   1.00
C707   C     0.36972   0.27180   0.56680   0.00000  Uiso   1.00
H708   H     0.41104   0.26147   0.57382   0.00000  Uiso   1.00
H709   H     0.36907   0.30407   0.55269   0.00000  Uiso   1.00
H710   H     0.35206   0.27192   0.59904   0.00000  Uiso   1.00
O711   O     0.43380   0.29077   0.43297   0.00000  Uiso   1.00
C712   C     0.45113   0.29377   0.38972   0.00000  Uiso   1.00
H713   H     0.49348   0.28600   0.39149   0.00000  Uiso   1.00
H714   H     0.44441   0.32579   0.37528   0.00000  Uiso   1.00
C715   C     0.42031   0.26271   0.35763   0.00000  Uiso   1.00
H716   H     0.37834   0.27147   0.35205   0.00000  Uiso   1.00
H717   H     0.43596   0.26269   0.65777   0.00000  Uiso   1.00
H718   H     0.42385   0.23071   0.37245   0.00000  Uiso   1.00
O719   O     0.56655   0.04190   0.56783   0.00000  Uiso   1.00
C720   C     0.61408   0.05144   0.55103   0.00000  Uiso   1.00
H721   H     0.60752   0.07373   0.52185   0.00000  Uiso   1.00
H722   H     0.63272   0.02258   0.53987   0.00000  Uiso   1.00
C723   C     0.65177   0.07196   0.58858   0.00000  Uiso   1.00
H724   H     0.66030   0.05012   0.61792   0.00000  Uiso   1.00
H725   H     0.35562   0.08011   0.57537   0.00000  Uiso   1.00
H726   H     0.63438   0.10103   0.60030   0.00000  Uiso   1.00
C727   C     0.83362   0.08675   0.50008   0.00000  Uiso   1.00
C728   C     0.83280   0.24661   0.49988   0.00000  Uiso   1.00
C729   C     0.73407   0.16481   0.48850   0.00000  Uiso   1.00
C730   C     0.93266   0.16745   0.51144   0.00000  Uiso   1.00
C731   C     0.67972   0.15723   0.48392   0.00000  Uiso   1.00
C732   C     0.98685   0.17413   0.51566   0.00000  Uiso   1.00
C733   C     0.80239   0.02193   0.46553   0.00000  Uiso   1.00
C734   C     0.86509   0.31148   0.53428   0.00000  Uiso   1.00
C735   C     0.80186   0.31215   0.46465   0.00000  Uiso   1.00
C736   C     0.86725   0.02119   0.53405   0.00000  Uiso   1.00
C737   C     0.83278   0.29076   0.49971   0.00000  Uiso   1.00
C738   C     0.83460   0.04266   0.50008   0.00000  Uiso   1.00
C739   C     0.86641   0.19244   0.36101   0.00000  Uiso   1.00
C740   C     0.80022   0.14093   0.63898   0.00000  Uiso   1.00
C741   C     0.86636   0.19246   0.64641   0.00000  Uiso   1.00
C742   C     0.80026   0.14092   0.35358   0.00000  Uiso   1.00
H743   H     0.77696   0.03912   0.43995   0.00000  Uiso   1.00
H744   H     0.88943   0.29431   0.56071   0.00000  Uiso   1.00
H745   H     0.89281   0.21310   0.38212   0.00000  Uiso   1.00
H746   H     0.77374   0.12034   0.61787   0.00000  Uiso   1.00
H747   H     0.89276   0.21311   0.63123   0.00000  Uiso   1.00
H748   H     0.77381   0.12030   0.36873   0.00000  Uiso   1.00
N749   N     0.83332   0.16666   0.61907   0.00000  Uiso   1.00
N750   N     0.83335   0.16668   0.38093   0.00000  Uiso   1.00
O751   O     0.83333   0.10558   0.53821   0.00000  Uiso   1.00
O752   O     0.83334   0.22775   0.46179   0.00000  Uiso   1.00
O753   O     0.83333   0.10559   0.46176   0.00000  Uiso   1.00
O754   O     0.83334   0.22774   0.53824   0.00000  Uiso   1.00
O755   O     0.75725   0.16666   0.52928   0.00000  Uiso   1.00
O756   O     0.90942   0.16667   0.47072   0.00000  Uiso   1.00
O757   O     0.75725   0.16667   0.45284   0.00000  Uiso   1.00
O758   O     0.90942   0.16666   0.54716   0.00000  Uiso   1.00
Zn759  Zn    0.83333   0.16666   0.55104   0.00000  Uiso   1.00
Zn760  Zn    0.83333   0.16667   0.44896   0.00000  Uiso   1.00
O761   O     0.98826   0.13289   0.44813   0.00000  Uiso   1.00
C762   C     0.67920   0.09342   0.44701   0.00000  Uiso   1.00
H763   H     0.69034   0.08015   0.48189   0.00000  Uiso   1.00
H764   H     0.71458   0.09617   0.42945   0.00000  Uiso   1.00
C765   C     0.97470   0.06291   0.42018   0.00000  Uiso   1.00
H766   H     0.96398   0.07451   0.38472   0.00000  Uiso   1.00
H767   H     0.99341   0.03179   0.41908   0.00000  Uiso   1.00
H768   H     0.93862   0.05948   0.43671   0.00000  Uiso   1.00
O769   O     0.67647   0.20096   0.54964   0.00000  Uiso   1.00
C770   C     0.67225   0.24247   0.53268   0.00000  Uiso   1.00
H771   H     0.96392   0.25249   0.52757   0.00000  Uiso   1.00
H772   H     0.68868   0.24561   0.49976   0.00000  Uiso   1.00
C773   C     0.70306   0.27180   0.56680   0.00000  Uiso   1.00
H774   H     0.74438   0.26147   0.57382   0.00000  Uiso   1.00
H775   H     0.70241   0.30407   0.55269   0.00000  Uiso   1.00
H776   H     0.68540   0.27192   0.59904   0.00000  Uiso   1.00
O777   O     0.76713   0.29077   0.43297   0.00000  Uiso   1.00
C778   C     0.78446   0.29377   0.38972   0.00000  Uiso   1.00
H779   H     0.82681   0.28600   0.39149   0.00000  Uiso   1.00
H780   H     0.77774   0.32579   0.37528   0.00000  Uiso   1.00
C781   C     0.75364   0.26271   0.35763   0.00000  Uiso   1.00
H782   H     0.71168   0.27147   0.35205   0.00000  Uiso   1.00
H783   H     0.76929   0.26269   0.65777   0.00000  Uiso   1.00
H784   H     0.75719   0.23071   0.37245   0.00000  Uiso   1.00
O785   O     0.89988   0.04190   0.56783   0.00000  Uiso   1.00
C786   C     0.94742   0.05144   0.55103   0.00000  Uiso   1.00
H787   H     0.94086   0.07373   0.52185   0.00000  Uiso   1.00
H788   H     0.96605   0.02258   0.53987   0.00000  Uiso   1.00
C789   C     0.98510   0.07196   0.58858   0.00000  Uiso   1.00
H790   H     0.99364   0.05012   0.61792   0.00000  Uiso   1.00
H791   H     0.68895   0.08011   0.57537   0.00000  Uiso   1.00
H792   H     0.96771   0.10103   0.60030   0.00000  Uiso   1.00
C793   C     0.16695   0.42008   0.50008   0.00000  Uiso   1.00
C794   C     0.16613   0.57995   0.49988   0.00000  Uiso   1.00
C795   C     0.06741   0.49814   0.48850   0.00000  Uiso   1.00
C796   C     0.26600   0.50078   0.51144   0.00000  Uiso   1.00
C797   C     0.01306   0.49056   0.48392   0.00000  Uiso   1.00
C798   C     0.32018   0.50746   0.51566   0.00000  Uiso   1.00
C799   C     0.13572   0.35526   0.46553   0.00000  Uiso   1.00
C800   C     0.19842   0.64482   0.53428   0.00000  Uiso   1.00
C801   C     0.13519   0.64549   0.46465   0.00000  Uiso   1.00
C802   C     0.20058   0.35452   0.53405   0.00000  Uiso   1.00
C803   C     0.16612   0.62409   0.49971   0.00000  Uiso   1.00
C804   C     0.16793   0.37600   0.50008   0.00000  Uiso   1.00
C805   C     0.19974   0.52578   0.36101   0.00000  Uiso   1.00
C806   C     0.13355   0.47426   0.63898   0.00000  Uiso   1.00
C807   C     0.19969   0.52579   0.64641   0.00000  Uiso   1.00
C808   C     0.13359   0.47425   0.35358   0.00000  Uiso   1.00
H809   H     0.11030   0.37245   0.43995   0.00000  Uiso   1.00
H810   H     0.22276   0.62764   0.56071   0.00000  Uiso   1.00
H811   H     0.22614   0.54643   0.38212   0.00000  Uiso   1.00
H812   H     0.10707   0.45367   0.61787   0.00000  Uiso   1.00
H813   H     0.22609   0.54645   0.63123   0.00000  Uiso   1.00
H814   H     0.10714   0.45363   0.36873   0.00000  Uiso   1.00
N815   N     0.16665   0.49999   0.61907   0.00000  Uiso   1.00
N816   N     0.16668   0.50001   0.38093   0.00000  Uiso   1.00
O817   O     0.16666   0.43892   0.53821   0.00000  Uiso   1.00
O818   O     0.16667   0.56108   0.46179   0.00000  Uiso   1.00
O819   O     0.16666   0.43893   0.46176   0.00000  Uiso   1.00
O820   O     0.16667   0.56107   0.53824   0.00000  Uiso   1.00
O821   O     0.09058   0.50000   0.52928   0.00000  Uiso   1.00
O822   O     0.24275   0.50000   0.47072   0.00000  Uiso   1.00
O823   O     0.09058   0.50000   0.45284   0.00000  Uiso   1.00
O824   O     0.24275   0.50000   0.54716   0.00000  Uiso   1.00
Zn825  Zn    0.16667   0.49999   0.55104   0.00000  Uiso   1.00
Zn826  Zn    0.16667   0.50001   0.44896   0.00000  Uiso   1.00
O827   O     0.32159   0.46622   0.44813   0.00000  Uiso   1.00
C828   C     0.01254   0.42676   0.44701   0.00000  Uiso   1.00
H829   H     0.02368   0.41349   0.48189   0.00000  Uiso   1.00
H830   H     0.04792   0.42951   0.42945   0.00000  Uiso   1.00
C831   C     0.30804   0.39624   0.42018   0.00000  Uiso   1.00
H832   H     0.29731   0.40785   0.38472   0.00000  Uiso   1.00
H833   H     0.32675   0.36512   0.41908   0.00000  Uiso   1.00
H834   H     0.27196   0.39282   0.43671   0.00000  Uiso   1.00
O835   O     0.00980   0.53430   0.54964   0.00000  Uiso   1.00
C836   C     0.00558   0.57580   0.53268   0.00000  Uiso   1.00
H837   H     0.29726   0.58582   0.52757   0.00000  Uiso   1.00
H838   H     0.02201   0.57894   0.49976   0.00000  Uiso   1.00
C839   C     0.03639   0.60513   0.56680   0.00000  Uiso   1.00
H840   H     0.07771   0.59480   0.57382   0.00000  Uiso   1.00
H841   H     0.03574   0.63741   0.55269   0.00000  Uiso   1.00
H842   H     0.01873   0.60526   0.59904   0.00000  Uiso   1.00
O843   O     0.10047   0.62410   0.43297   0.00000  Uiso   1.00
C844   C     0.11779   0.62710   0.38972   0.00000  Uiso   1.00
H845   H     0.16015   0.61933   0.39149   0.00000  Uiso   1.00
H846   H     0.11108   0.65913   0.37528   0.00000  Uiso   1.00
C847   C     0.08698   0.59604   0.35763   0.00000  Uiso   1.00
H848   H     0.04501   0.60481   0.35205   0.00000  Uiso   1.00
H849   H     0.10262   0.59602   0.65777   0.00000  Uiso   1.00
H850   H     0.09052   0.56405   0.37245   0.00000  Uiso   1.00
O851   O     0.23322   0.37523   0.56783   0.00000  Uiso   1.00
C852   C     0.28075   0.38477   0.55103   0.00000  Uiso   1.00
H853   H     0.27419   0.40707   0.52185   0.00000  Uiso   1.00
H854   H     0.29939   0.35591   0.53987   0.00000  Uiso   1.00
C855   C     0.31843   0.40529   0.58858   0.00000  Uiso   1.00
H856   H     0.32697   0.38345   0.61792   0.00000  Uiso   1.00
H857   H     0.02229   0.41344   0.57537   0.00000  Uiso   1.00
H858   H     0.30105   0.43436   0.60030   0.00000  Uiso   1.00
C859   C     0.50029   0.42008   0.50008   0.00000  Uiso   1.00
C860   C     0.49946   0.57995   0.49988   0.00000  Uiso   1.00
C861   C     0.40074   0.49814   0.48850   0.00000  Uiso   1.00
C862   C     0.59933   0.50078   0.51144   0.00000  Uiso   1.00
C863   C     0.34639   0.49056   0.48392   0.00000  Uiso   1.00
C864   C     0.65352   0.50746   0.51566   0.00000  Uiso   1.00
C865   C     0.46906   0.35526   0.46553   0.00000  Uiso   1.00
C866   C     0.53176   0.64482   0.53428   0.00000  Uiso   1.00
C867   C     0.46852   0.64549   0.46465   0.00000  Uiso   1.00
C868   C     0.53392   0.35452   0.53405   0.00000  Uiso   1.00
C869   C     0.49945   0.62409   0.49971   0.00000  Uiso   1.00
C870   C     0.50127   0.37600   0.50008   0.00000  Uiso   1.00
C871   C     0.53307   0.52578   0.36101   0.00000  Uiso   1.00
C872   C     0.46689   0.47426   0.63898   0.00000  Uiso   1.00
C873   C     0.53303   0.52579   0.64641   0.00000  Uiso   1.00
C874   C     0.46692   0.47425   0.35358   0.00000  Uiso   1.00
H875   H     0.44363   0.37245   0.43995   0.00000  Uiso   1.00
H876   H     0.55609   0.62764   0.56071   0.00000  Uiso   1.00
H877   H     0.55947   0.54643   0.38212   0.00000  Uiso   1.00
H878   H     0.44040   0.45367   0.61787   0.00000  Uiso   1.00
H879   H     0.55943   0.54645   0.63123   0.00000  Uiso   1.00
H880   H     0.44048   0.45363   0.36873   0.00000  Uiso   1.00
N881   N     0.49999   0.49999   0.61907   0.00000  Uiso   1.00
N882   N     0.50001   0.50001   0.38093   0.00000  Uiso   1.00
O883   O     0.50000   0.43892   0.53821   0.00000  Uiso   1.00
O884   O     0.50000   0.56108   0.46179   0.00000  Uiso   1.00
O885   O     0.50000   0.43893   0.46176   0.00000  Uiso   1.00
O886   O     0.50000   0.56107   0.53824   0.00000  Uiso   1.00
O887   O     0.42392   0.50000   0.52928   0.00000  Uiso   1.00
O888   O     0.57608   0.50000   0.47072   0.00000  Uiso   1.00
O889   O     0.42392   0.50000   0.45284   0.00000  Uiso   1.00
O890   O     0.57608   0.50000   0.54716   0.00000  Uiso   1.00
Zn891  Zn    0.50000   0.49999   0.55104   0.00000  Uiso   1.00
Zn892  Zn    0.50000   0.50001   0.44896   0.00000  Uiso   1.00
O893   O     0.65492   0.46622   0.44813   0.00000  Uiso   1.00
C894   C     0.34587   0.42676   0.44701   0.00000  Uiso   1.00
H895   H     0.35701   0.41349   0.48189   0.00000  Uiso   1.00
H896   H     0.38125   0.42951   0.42945   0.00000  Uiso   1.00
C897   C     0.64137   0.39624   0.42018   0.00000  Uiso   1.00
H898   H     0.63064   0.40785   0.38472   0.00000  Uiso   1.00
H899   H     0.66008   0.36512   0.41908   0.00000  Uiso   1.00
H900   H     0.60529   0.39282   0.43671   0.00000  Uiso   1.00
O901   O     0.34313   0.53430   0.54964   0.00000  Uiso   1.00
C902   C     0.33892   0.57580   0.53268   0.00000  Uiso   1.00
H903   H     0.63059   0.58582   0.52757   0.00000  Uiso   1.00
H904   H     0.35534   0.57894   0.49976   0.00000  Uiso   1.00
C905   C     0.36972   0.60513   0.56680   0.00000  Uiso   1.00
H906   H     0.41104   0.59480   0.57382   0.00000  Uiso   1.00
H907   H     0.36907   0.63741   0.55269   0.00000  Uiso   1.00
H908   H     0.35206   0.60526   0.59904   0.00000  Uiso   1.00
O909   O     0.43380   0.62410   0.43297   0.00000  Uiso   1.00
C910   C     0.45113   0.62710   0.38972   0.00000  Uiso   1.00
H911   H     0.49348   0.61933   0.39149   0.00000  Uiso   1.00
H912   H     0.44441   0.65913   0.37528   0.00000  Uiso   1.00
C913   C     0.42031   0.59604   0.35763   0.00000  Uiso   1.00
H914   H     0.37834   0.60481   0.35205   0.00000  Uiso   1.00
H915   H     0.43596   0.59602   0.65777   0.00000  Uiso   1.00
H916   H     0.42385   0.56405   0.37245   0.00000  Uiso   1.00
O917   O     0.56655   0.37523   0.56783   0.00000  Uiso   1.00
C918   C     0.61408   0.38477   0.55103   0.00000  Uiso   1.00
H919   H     0.60752   0.40707   0.52185   0.00000  Uiso   1.00
H920   H     0.63272   0.35591   0.53987   0.00000  Uiso   1.00
C921   C     0.65177   0.40529   0.58858   0.00000  Uiso   1.00
H922   H     0.66030   0.38345   0.61792   0.00000  Uiso   1.00
H923   H     0.35562   0.41344   0.57537   0.00000  Uiso   1.00
H924   H     0.63438   0.43436   0.60030   0.00000  Uiso   1.00
C925   C     0.83362   0.42008   0.50008   0.00000  Uiso   1.00
C926   C     0.83280   0.57995   0.49988   0.00000  Uiso   1.00
C927   C     0.73407   0.49814   0.48850   0.00000  Uiso   1.00
C928   C     0.93266   0.50078   0.51144   0.00000  Uiso   1.00
C929   C     0.67972   0.49056   0.48392   0.00000  Uiso   1.00
C930   C     0.98685   0.50746   0.51566   0.00000  Uiso   1.00
C931   C     0.80239   0.35526   0.46553   0.00000  Uiso   1.00
C932   C     0.86509   0.64482   0.53428   0.00000  Uiso   1.00
C933   C     0.80186   0.64549   0.46465   0.00000  Uiso   1.00
C934   C     0.86725   0.35452   0.53405   0.00000  Uiso   1.00
C935   C     0.83278   0.62409   0.49971   0.00000  Uiso   1.00
C936   C     0.83460   0.37600   0.50008   0.00000  Uiso   1.00
C937   C     0.86641   0.52578   0.36101   0.00000  Uiso   1.00
C938   C     0.80022   0.47426   0.63898   0.00000  Uiso   1.00
C939   C     0.86636   0.52579   0.64641   0.00000  Uiso   1.00
C940   C     0.80026   0.47425   0.35358   0.00000  Uiso   1.00
H941   H     0.77696   0.37245   0.43995   0.00000  Uiso   1.00
H942   H     0.88943   0.62764   0.56071   0.00000  Uiso   1.00
H943   H     0.89281   0.54643   0.38212   0.00000  Uiso   1.00
H944   H     0.77374   0.45367   0.61787   0.00000  Uiso   1.00
H945   H     0.89276   0.54645   0.63123   0.00000  Uiso   1.00
H946   H     0.77381   0.45363   0.36873   0.00000  Uiso   1.00
N947   N     0.83332   0.49999   0.61907   0.00000  Uiso   1.00
N948   N     0.83335   0.50001   0.38093   0.00000  Uiso   1.00
O949   O     0.83333   0.43892   0.53821   0.00000  Uiso   1.00
O950   O     0.83334   0.56108   0.46179   0.00000  Uiso   1.00
O951   O     0.83333   0.43893   0.46176   0.00000  Uiso   1.00
O952   O     0.83334   0.56107   0.53824   0.00000  Uiso   1.00
O953   O     0.75725   0.50000   0.52928   0.00000  Uiso   1.00
O954   O     0.90942   0.50000   0.47072   0.00000  Uiso   1.00
O955   O     0.75725   0.50000   0.45284   0.00000  Uiso   1.00
O956   O     0.90942   0.50000   0.54716   0.00000  Uiso   1.00
Zn957  Zn    0.83333   0.49999   0.55104   0.00000  Uiso   1.00
Zn958  Zn    0.83333   0.50001   0.44896   0.00000  Uiso   1.00
O959   O     0.98826   0.46622   0.44813   0.00000  Uiso   1.00
C960   C     0.67920   0.42676   0.44701   0.00000  Uiso   1.00
H961   H     0.69034   0.41349   0.48189   0.00000  Uiso   1.00
H962   H     0.71458   0.42951   0.42945   0.00000  Uiso   1.00
C963   C     0.97470   0.39624   0.42018   0.00000  Uiso   1.00
H964   H     0.96398   0.40785   0.38472   0.00000  Uiso   1.00
H965   H     0.99341   0.36512   0.41908   0.00000  Uiso   1.00
H966   H     0.93862   0.39282   0.43671   0.00000  Uiso   1.00
O967   O     0.67647   0.53430   0.54964   0.00000  Uiso   1.00
C968   C     0.67225   0.57580   0.53268   0.00000  Uiso   1.00
H969   H     0.96392   0.58582   0.52757   0.00000  Uiso   1.00
H970   H     0.68868   0.57894   0.49976   0.00000  Uiso   1.00
C971   C     0.70306   0.60513   0.56680   0.00000  Uiso   1.00
H972   H     0.74438   0.59480   0.57382   0.00000  Uiso   1.00
H973   H     0.70241   0.63741   0.55269   0.00000  Uiso   1.00
H974   H     0.68540   0.60526   0.59904   0.00000  Uiso   1.00
O975   O     0.76713   0.62410   0.43297   0.00000  Uiso   1.00
C976   C     0.78446   0.62710   0.38972   0.00000  Uiso   1.00
H977   H     0.82681   0.61933   0.39149   0.00000  Uiso   1.00
H978   H     0.77774   0.65913   0.37528   0.00000  Uiso   1.00
C979   C     0.75364   0.59604   0.35763   0.00000  Uiso   1.00
H980   H     0.71168   0.60481   0.35205   0.00000  Uiso   1.00
H981   H     0.76929   0.59602   0.65777   0.00000  Uiso   1.00
H982   H     0.75719   0.56405   0.37245   0.00000  Uiso   1.00
O983   O     0.89988   0.37523   0.56783   0.00000  Uiso   1.00
C984   C     0.94742   0.38477   0.55103   0.00000  Uiso   1.00
H985   H     0.94086   0.40707   0.52185   0.00000  Uiso   1.00
H986   H     0.96605   0.35591   0.53987   0.00000  Uiso   1.00
C987   C     0.98510   0.40529   0.58858   0.00000  Uiso   1.00
H988   H     0.99364   0.38345   0.61792   0.00000  Uiso   1.00
H989   H     0.68895   0.41344   0.57537   0.00000  Uiso   1.00
H990   H     0.96771   0.43436   0.60030   0.00000  Uiso   1.00
C991   C     0.16695   0.75341   0.50008   0.00000  Uiso   1.00
C992   C     0.16613   0.91328   0.49988   0.00000  Uiso   1.00
C993   C     0.06741   0.83147   0.48850   0.00000  Uiso   1.00
C994   C     0.26600   0.83411   0.51144   0.00000  Uiso   1.00
C995   C     0.01306   0.82390   0.48392   0.00000  Uiso   1.00
C996   C     0.32018   0.84080   0.51566   0.00000  Uiso   1.00
C997   C     0.13572   0.68859   0.46553   0.00000  Uiso   1.00
C998   C     0.19842   0.97815   0.53428   0.00000  Uiso   1.00
C999   C     0.13519   0.97882   0.46465   0.00000  Uiso   1.00
C1000  C     0.20058   0.68786   0.53405   0.00000  Uiso   1.00
C1001  C     0.16612   0.95742   0.49971   0.00000  Uiso   1.00
C1002  C     0.16793   0.70933   0.50008   0.00000  Uiso   1.00
C1003  C     0.19974   0.85911   0.36101   0.00000  Uiso   1.00
C1004  C     0.13355   0.80759   0.63898   0.00000  Uiso   1.00
C1005  C     0.19969   0.85913   0.64641   0.00000  Uiso   1.00
C1006  C     0.13359   0.80758   0.35358   0.00000  Uiso   1.00
H1007  H     0.11030   0.70579   0.43995   0.00000  Uiso   1.00
H1008  H     0.22276   0.96097   0.56071   0.00000  Uiso   1.00
H1009  H     0.22614   0.87976   0.38212   0.00000  Uiso   1.00
H1010  H     0.10707   0.78700   0.61787   0.00000  Uiso   1.00
H1011  H     0.22609   0.87978   0.63123   0.00000  Uiso   1.00
H1012  H     0.10714   0.78697   0.36873   0.00000  Uiso   1.00
N1013  N     0.16665   0.83332   0.61907   0.00000  Uiso   1.00
N1014  N     0.16668   0.83334   0.38093   0.00000  Uiso   1.00
O1015  O     0.16666   0.77225   0.53821   0.00000  Uiso   1.00
O1016  O     0.16667   0.89442   0.46179   0.00000  Uiso   1.00
O1017  O     0.16666   0.77226   0.46176   0.00000  Uiso   1.00
O1018  O     0.16667   0.89441   0.53824   0.00000  Uiso   1.00
O1019  O     0.09058   0.83333   0.52928   0.00000  Uiso   1.00
O1020  O     0.24275   0.83334   0.47072   0.00000  Uiso   1.00
O1021  O     0.09058   0.83334   0.45284   0.00000  Uiso   1.00
O1022  O     0.24275   0.83333   0.54716   0.00000  Uiso   1.00
Zn1023 Zn    0.16667   0.83333   0.55104   0.00000  Uiso   1.00
Zn1024 Zn    0.16667   0.83334   0.44896   0.00000  Uiso   1.00
O1025  O     0.32159   0.79955   0.44813   0.00000  Uiso   1.00
C1026  C     0.01254   0.76009   0.44701   0.00000  Uiso   1.00
H1027  H     0.02368   0.74682   0.48189   0.00000  Uiso   1.00
H1028  H     0.04792   0.76284   0.42945   0.00000  Uiso   1.00
C1029  C     0.30804   0.72957   0.42018   0.00000  Uiso   1.00
H1030  H     0.29731   0.74118   0.38472   0.00000  Uiso   1.00
H1031  H     0.32675   0.69845   0.41908   0.00000  Uiso   1.00
H1032  H     0.27196   0.72615   0.43671   0.00000  Uiso   1.00
O1033  O     0.00980   0.86763   0.54964   0.00000  Uiso   1.00
C1034  C     0.00558   0.90914   0.53268   0.00000  Uiso   1.00
H1035  H     0.29726   0.91915   0.52757   0.00000  Uiso   1.00
H1036  H     0.02201   0.91228   0.49976   0.00000  Uiso   1.00
C1037  C     0.03639   0.93846   0.56680   0.00000  Uiso   1.00
H1038  H     0.07771   0.92813   0.57382   0.00000  Uiso   1.00
H1039  H     0.03574   0.97074   0.55269   0.00000  Uiso   1.00
H1040  H     0.01873   0.93859   0.59904   0.00000  Uiso   1.00
O1041  O     0.10047   0.95743   0.43297   0.00000  Uiso   1.00
C1042  C     0.11779   0.96043   0.38972   0.00000  Uiso   1.00
H1043  H     0.16015   0.95266   0.39149   0.00000  Uiso   1.00
H1044  H     0.11108   0.99246   0.37528   0.00000  Uiso   1.00
C1045  C     0.08698   0.92938   0.35763   0.00000  Uiso   1.00
H1046  H     0.04501   0.93814   0.35205   0.00000  Uiso   1.00
H1047  H     0.10262   0.92936   0.65777   0.00000  Uiso   1.00
H1048  H     0.09052   0.89738   0.37245   0.00000  Uiso   1.00
O1049  O     0.23322   0.70857   0.56783   0.00000  Uiso   1.00
C1050  C     0.28075   0.71811   0.55103   0.00000  Uiso   1.00
H1051  H     0.27419   0.74040   0.52185   0.00000  Uiso   1.00
H1052  H     0.29939   0.68925   0.53987   0.00000  Uiso   1.00
C1053  C     0.31843   0.73862   0.58858   0.00000  Uiso   1.00
H1054  H     0.32697   0.71678   0.61792   0.00000  Uiso   1.00
H1055  H     0.02229   0.74677   0.57537   0.00000  Uiso   1.00
H1056  H     0.30105   0.76770   0.60030   0.00000  Uiso   1.00
C1057  C     0.50029   0.75341   0.50008   0.00000  Uiso   1.00
C1058  C     0.49946   0.91328   0.49988   0.00000  Uiso   1.00
C1059  C     0.40074   0.83147   0.48850   0.00000  Uiso   1.00
C1060  C     0.59933   0.83411   0.51144   0.00000  Uiso   1.00
C1061  C     0.34639   0.82390   0.48392   0.00000  Uiso   1.00
C1062  C     0.65352   0.84080   0.51566   0.00000  Uiso   1.00
C1063  C     0.46906   0.68859   0.46553   0.00000  Uiso   1.00
C1064  C     0.53176   0.97815   0.53428   0.00000  Uiso   1.00
C1065  C     0.46852   0.97882   0.46465   0.00000  Uiso   1.00
C1066  C     0.53392   0.68786   0.53405   0.00000  Uiso   1.00
C1067  C     0.49945   0.95742   0.49971   0.00000  Uiso   1.00
C1068  C     0.50127   0.70933   0.50008   0.00000  Uiso   1.00
C1069  C     0.53307   0.85911   0.36101   0.00000  Uiso   1.00
C1070  C     0.46689   0.80759   0.63898   0.00000  Uiso   1.00
C1071  C     0.53303   0.85913   0.64641   0.00000  Uiso   1.00
C1072  C     0.46692   0.80758   0.35358   0.00000  Uiso   1.00
H1073  H     0.44363   0.70579   0.43995   0.00000  Uiso   1.00
H1074  H     0.55609   0.96097   0.56071   0.00000  Uiso   1.00
H1075  H     0.55947   0.87976   0.38212   0.00000  Uiso   1.00
H1076  H     0.44040   0.78700   0.61787   0.00000  Uiso   1.00
H1077  H     0.55943   0.87978   0.63123   0.00000  Uiso   1.00
H1078  H     0.44048   0.78697   0.36873   0.00000  Uiso   1.00
N1079  N     0.49999   0.83332   0.61907   0.00000  Uiso   1.00
N1080  N     0.50001   0.83334   0.38093   0.00000  Uiso   1.00
O1081  O     0.50000   0.77225   0.53821   0.00000  Uiso   1.00
O1082  O     0.50000   0.89442   0.46179   0.00000  Uiso   1.00
O1083  O     0.50000   0.77226   0.46176   0.00000  Uiso   1.00
O1084  O     0.50000   0.89441   0.53824   0.00000  Uiso   1.00
O1085  O     0.42392   0.83333   0.52928   0.00000  Uiso   1.00
O1086  O     0.57608   0.83334   0.47072   0.00000  Uiso   1.00
O1087  O     0.42392   0.83334   0.45284   0.00000  Uiso   1.00
O1088  O     0.57608   0.83333   0.54716   0.00000  Uiso   1.00
Zn1089 Zn    0.50000   0.83333   0.55104   0.00000  Uiso   1.00
Zn1090 Zn    0.50000   0.83334   0.44896   0.00000  Uiso   1.00
O1091  O     0.65492   0.79955   0.44813   0.00000  Uiso   1.00
C1092  C     0.34587   0.76009   0.44701   0.00000  Uiso   1.00
H1093  H     0.35701   0.74682   0.48189   0.00000  Uiso   1.00
H1094  H     0.38125   0.76284   0.42945   0.00000  Uiso   1.00
C1095  C     0.64137   0.72957   0.42018   0.00000  Uiso   1.00
H1096  H     0.63064   0.74118   0.38472   0.00000  Uiso   1.00
H1097  H     0.66008   0.69845   0.41908   0.00000  Uiso   1.00
H1098  H     0.60529   0.72615   0.43671   0.00000  Uiso   1.00
O1099  O     0.34313   0.86763   0.54964   0.00000  Uiso   1.00
C1100  C     0.33892   0.90914   0.53268   0.00000  Uiso   1.00
H1101  H     0.63059   0.91915   0.52757   0.00000  Uiso   1.00
H1102  H     0.35534   0.91228   0.49976   0.00000  Uiso   1.00
C1103  C     0.36972   0.93846   0.56680   0.00000  Uiso   1.00
H1104  H     0.41104   0.92813   0.57382   0.00000  Uiso   1.00
H1105  H     0.36907   0.97074   0.55269   0.00000  Uiso   1.00
H1106  H     0.35206   0.93859   0.59904   0.00000  Uiso   1.00
O1107  O     0.43380   0.95743   0.43297   0.00000  Uiso   1.00
C1108  C     0.45113   0.96043   0.38972   0.00000  Uiso   1.00
H1109  H     0.49348   0.95266   0.39149   0.00000  Uiso   1.00
H1110  H     0.44441   0.99246   0.37528   0.00000  Uiso   1.00
C1111  C     0.42031   0.92938   0.35763   0.00000  Uiso   1.00
H1112  H     0.37834   0.93814   0.35205   0.00000  Uiso   1.00
H1113  H     0.43596   0.92936   0.65777   0.00000  Uiso   1.00
H1114  H     0.42385   0.89738   0.37245   0.00000  Uiso   1.00
O1115  O     0.56655   0.70857   0.56783   0.00000  Uiso   1.00
C1116  C     0.61408   0.71811   0.55103   0.00000  Uiso   1.00
H1117  H     0.60752   0.74040   0.52185   0.00000  Uiso   1.00
H1118  H     0.63272   0.68925   0.53987   0.00000  Uiso   1.00
C1119  C     0.65177   0.73862   0.58858   0.00000  Uiso   1.00
H1120  H     0.66030   0.71678   0.61792   0.00000  Uiso   1.00
H1121  H     0.35562   0.74677   0.57537   0.00000  Uiso   1.00
H1122  H     0.63438   0.76770   0.60030   0.00000  Uiso   1.00
C1123  C     0.83362   0.75341   0.50008   0.00000  Uiso   1.00
C1124  C     0.83280   0.91328   0.49988   0.00000  Uiso   1.00
C1125  C     0.73407   0.83147   0.48850   0.00000  Uiso   1.00
C1126  C     0.93266   0.83411   0.51144   0.00000  Uiso   1.00
C1127  C     0.67972   0.82390   0.48392   0.00000  Uiso   1.00
C1128  C     0.98685   0.84080   0.51566   0.00000  Uiso   1.00
C1129  C     0.80239   0.68859   0.46553   0.00000  Uiso   1.00
C1130  C     0.86509   0.97815   0.53428   0.00000  Uiso   1.00
C1131  C     0.80186   0.97882   0.46465   0.00000  Uiso   1.00
C1132  C     0.86725   0.68786   0.53405   0.00000  Uiso   1.00
C1133  C     0.83278   0.95742   0.49971   0.00000  Uiso   1.00
C1134  C     0.83460   0.70933   0.50008   0.00000  Uiso   1.00
C1135  C     0.86641   0.85911   0.36101   0.00000  Uiso   1.00
C1136  C     0.80022   0.80759   0.63898   0.00000  Uiso   1.00
C1137  C     0.86636   0.85913   0.64641   0.00000  Uiso   1.00
C1138  C     0.80026   0.80758   0.35358   0.00000  Uiso   1.00
H1139  H     0.77696   0.70579   0.43995   0.00000  Uiso   1.00
H1140  H     0.88943   0.96097   0.56071   0.00000  Uiso   1.00
H1141  H     0.89281   0.87976   0.38212   0.00000  Uiso   1.00
H1142  H     0.77374   0.78700   0.61787   0.00000  Uiso   1.00
H1143  H     0.89276   0.87978   0.63123   0.00000  Uiso   1.00
H1144  H     0.77381   0.78697   0.36873   0.00000  Uiso   1.00
N1145  N     0.83332   0.83332   0.61907   0.00000  Uiso   1.00
N1146  N     0.83335   0.83334   0.38093   0.00000  Uiso   1.00
O1147  O     0.83333   0.77225   0.53821   0.00000  Uiso   1.00
O1148  O     0.83334   0.89442   0.46179   0.00000  Uiso   1.00
O1149  O     0.83333   0.77226   0.46176   0.00000  Uiso   1.00
O1150  O     0.83334   0.89441   0.53824   0.00000  Uiso   1.00
O1151  O     0.75725   0.83333   0.52928   0.00000  Uiso   1.00
O1152  O     0.90942   0.83334   0.47072   0.00000  Uiso   1.00
O1153  O     0.75725   0.83334   0.45284   0.00000  Uiso   1.00
O1154  O     0.90942   0.83333   0.54716   0.00000  Uiso   1.00
Zn1155 Zn    0.83333   0.83333   0.55104   0.00000  Uiso   1.00
Zn1156 Zn    0.83333   0.83334   0.44896   0.00000  Uiso   1.00
O1157  O     0.98826   0.79955   0.44813   0.00000  Uiso   1.00
C1158  C     0.67920   0.76009   0.44701   0.00000  Uiso   1.00
H1159  H     0.69034   0.74682   0.48189   0.00000  Uiso   1.00
H1160  H     0.71458   0.76284   0.42945   0.00000  Uiso   1.00
C1161  C     0.97470   0.72957   0.42018   0.00000  Uiso   1.00
H1162  H     0.96398   0.74118   0.38472   0.00000  Uiso   1.00
H1163  H     0.99341   0.69845   0.41908   0.00000  Uiso   1.00
H1164  H     0.93862   0.72615   0.43671   0.00000  Uiso   1.00
O1165  O     0.67647   0.86763   0.54964   0.00000  Uiso   1.00
C1166  C     0.67225   0.90914   0.53268   0.00000  Uiso   1.00
H1167  H     0.96392   0.91915   0.52757   0.00000  Uiso   1.00
H1168  H     0.68868   0.91228   0.49976   0.00000  Uiso   1.00
C1169  C     0.70306   0.93846   0.56680   0.00000  Uiso   1.00
H1170  H     0.74438   0.92813   0.57382   0.00000  Uiso   1.00
H1171  H     0.70241   0.97074   0.55269   0.00000  Uiso   1.00
H1172  H     0.68540   0.93859   0.59904   0.00000  Uiso   1.00
O1173  O     0.76713   0.95743   0.43297   0.00000  Uiso   1.00
C1174  C     0.78446   0.96043   0.38972   0.00000  Uiso   1.00
H1175  H     0.82681   0.95266   0.39149   0.00000  Uiso   1.00
H1176  H     0.77774   0.99246   0.37528   0.00000  Uiso   1.00
C1177  C     0.75364   0.92938   0.35763   0.00000  Uiso   1.00
H1178  H     0.71168   0.93814   0.35205   0.00000  Uiso   1.00
H1179  H     0.76929   0.92936   0.65777   0.00000  Uiso   1.00
H1180  H     0.75719   0.89738   0.37245   0.00000  Uiso   1.00
O1181  O     0.89988   0.70857   0.56783   0.00000  Uiso   1.00
C1182  C     0.94742   0.71811   0.55103   0.00000  Uiso   1.00
H1183  H     0.94086   0.74040   0.52185   0.00000  Uiso   1.00
H1184  H     0.96605   0.68925   0.53987   0.00000  Uiso   1.00
C1185  C     0.98510   0.73862   0.58858   0.00000  Uiso   1.00
H1186  H     0.99364   0.71678   0.61792   0.00000  Uiso   1.00
H1187  H     0.68895   0.74677   0.57537   0.00000  Uiso   1.00
H1188  H     0.96771   0.76770   0.60030   0.00000  Uiso   1.00
C1189  C     0.16695   0.08675   0.83342   0.00000  Uiso   1.00
C1190  C     0.16613   0.24661   0.83322   0.00000  Uiso   1.00
C1191  C     0.06741   0.16481   0.82183   0.00000  Uiso   1.00
C1192  C     0.26600   0.16745   0.84477   0.00000  Uiso   1.00
C1193  C     0.01306   0.15723   0.81725   0.00000  Uiso   1.00
C1194  C     0.32018   0.17413   0.84900   0.00000  Uiso   1.00
C1195  C     0.13572   0.02193   0.79886   0.00000  Uiso   1.00
C1196  C     0.19842   0.31148   0.86761   0.00000  Uiso   1.00
C1197  C     0.13519   0.31215   0.79798   0.00000  Uiso   1.00
C1198  C     0.20058   0.02119   0.86738   0.00000  Uiso   1.00
C1199  C     0.16612   0.29076   0.83304   0.00000  Uiso   1.00
C1200  C     0.16793   0.04266   0.83341   0.00000  Uiso   1.00
C1201  C     0.19974   0.19244   0.69435   0.00000  Uiso   1.00
C1202  C     0.13355   0.14093   0.97231   0.00000  Uiso   1.00
C1203  C     0.19969   0.19246   0.97974   0.00000  Uiso   1.00
C1204  C     0.13359   0.14092   0.68692   0.00000  Uiso   1.00
H1205  H     0.11030   0.03912   0.77328   0.00000  Uiso   1.00
H1206  H     0.22276   0.29431   0.89404   0.00000  Uiso   1.00
H1207  H     0.22614   0.21310   0.71545   0.00000  Uiso   1.00
H1208  H     0.10707   0.12034   0.95121   0.00000  Uiso   1.00
H1209  H     0.22609   0.21311   0.96456   0.00000  Uiso   1.00
H1210  H     0.10714   0.12030   0.70207   0.00000  Uiso   1.00
N1211  N     0.16665   0.16666   0.95240   0.00000  Uiso   1.00
N1212  N     0.16668   0.16668   0.71427   0.00000  Uiso   1.00
O1213  O     0.16666   0.10558   0.87154   0.00000  Uiso   1.00
O1214  O     0.16667   0.22775   0.79513   0.00000  Uiso   1.00
O1215  O     0.16666   0.10559   0.79510   0.00000  Uiso   1.00
O1216  O     0.16667   0.22774   0.87157   0.00000  Uiso   1.00
O1217  O     0.09058   0.16666   0.86261   0.00000  Uiso   1.00
O1218  O     0.24275   0.16667   0.80405   0.00000  Uiso   1.00
O1219  O     0.09058   0.16667   0.78617   0.00000  Uiso   1.00
O1220  O     0.24275   0.16666   0.88050   0.00000  Uiso   1.00
Zn1221 Zn    0.16667   0.16666   0.88437   0.00000  Uiso   1.00
Zn1222 Zn    0.16667   0.16667   0.78229   0.00000  Uiso   1.00
O1223  O     0.32159   0.13289   0.78146   0.00000  Uiso   1.00
C1224  C     0.01254   0.09342   0.78034   0.00000  Uiso   1.00
H1225  H     0.02368   0.08015   0.81523   0.00000  Uiso   1.00
H1226  H     0.04792   0.09617   0.76279   0.00000  Uiso   1.00
C1227  C     0.30804   0.06291   0.75352   0.00000  Uiso   1.00
H1228  H     0.29731   0.07451   0.71805   0.00000  Uiso   1.00
H1229  H     0.32675   0.03179   0.75242   0.00000  Uiso   1.00
H1230  H     0.27196   0.05948   0.77004   0.00000  Uiso   1.00
O1231  O     0.00980   0.20096   0.88297   0.00000  Uiso   1.00
C1232  C     0.00558   0.24247   0.86601   0.00000  Uiso   1.00
H1233  H     0.29726   0.25249   0.86090   0.00000  Uiso   1.00
H1234  H     0.02201   0.24561   0.83309   0.00000  Uiso   1.00
C1235  C     0.03639   0.27180   0.90013   0.00000  Uiso   1.00
H1236  H     0.07771   0.26147   0.90715   0.00000  Uiso   1.00
H1237  H     0.03574   0.30407   0.88602   0.00000  Uiso   1.00
H1238  H     0.01873   0.27192   0.93237   0.00000  Uiso   1.00
O1239  O     0.10047   0.29077   0.76630   0.00000  Uiso   1.00
C1240  C     0.11779   0.29377   0.72305   0.00000  Uiso   1.00
H1241  H     0.16015   0.28600   0.72482   0.00000  Uiso   1.00
H1242  H     0.11108   0.32579   0.70862   0.00000  Uiso   1.00
C1243  C     0.08698   0.26271   0.69096   0.00000  Uiso   1.00
H1244  H     0.04501   0.27147   0.68539   0.00000  Uiso   1.00
H1245  H     0.10262   0.26269   0.99111   0.00000  Uiso   1.00
H1246  H     0.09052   0.23071   0.70578   0.00000  Uiso   1.00
O1247  O     0.23322   0.04190   0.90116   0.00000  Uiso   1.00
C1248  C     0.28075   0.05144   0.88437   0.00000  Uiso   1.00
H1249  H     0.27419   0.07373   0.85519   0.00000  Uiso   1.00
H1250  H     0.29939   0.02258   0.87321   0.00000  Uiso   1.00
C1251  C     0.31843   0.07196   0.92191   0.00000  Uiso   1.00
H1252  H     0.32697   0.05012   0.95125   0.00000  Uiso   1.00
H1253  H     0.02229   0.08011   0.90870   0.00000  Uiso   1.00
H1254  H     0.30105   0.10103   0.93363   0.00000  Uiso   1.00
C1255  C     0.50029   0.08675   0.83342   0.00000  Uiso   1.00
C1256  C     0.49946   0.24661   0.83322   0.00000  Uiso   1.00
C1257  C     0.40074   0.16481   0.82183   0.00000  Uiso   1.00
C1258  C     0.59933   0.16745   0.84477   0.00000  Uiso   1.00
C1259  C     0.34639   0.15723   0.81725   0.00000  Uiso   1.00
C1260  C     0.65352   0.17413   0.84900   0.00000  Uiso   1.00
C1261  C     0.46906   0.02193   0.79886   0.00000  Uiso   1.00
C1262  C     0.53176   0.31148   0.86761   0.00000  Uiso   1.00
C1263  C     0.46852   0.31215   0.79798   0.00000  Uiso   1.00
C1264  C     0.53392   0.02119   0.86738   0.00000  Uiso   1.00
C1265  C     0.49945   0.29076   0.83304   0.00000  Uiso   1.00
C1266  C     0.50127   0.04266   0.83341   0.00000  Uiso   1.00
C1267  C     0.53307   0.19244   0.69435   0.00000  Uiso   1.00
C1268  C     0.46689   0.14093   0.97231   0.00000  Uiso   1.00
C1269  C     0.53303   0.19246   0.97974   0.00000  Uiso   1.00
C1270  C     0.46692   0.14092   0.68692   0.00000  Uiso   1.00
H1271  H     0.44363   0.03912   0.77328   0.00000  Uiso   1.00
H1272  H     0.55609   0.29431   0.89404   0.00000  Uiso   1.00
H1273  H     0.55947   0.21310   0.71545   0.00000  Uiso   1.00
H1274  H     0.44040   0.12034   0.95121   0.00000  Uiso   1.00
H1275  H     0.55943   0.21311   0.96456   0.00000  Uiso   1.00
H1276  H     0.44048   0.12030   0.70207   0.00000  Uiso   1.00
N1277  N     0.49999   0.16666   0.95240   0.00000  Uiso   1.00
N1278  N     0.50001   0.16668   0.71427   0.00000  Uiso   1.00
O1279  O     0.50000   0.10558   0.87154   0.00000  Uiso   1.00
O1280  O     0.50000   0.22775   0.79513   0.00000  Uiso   1.00
O1281  O     0.50000   0.10559   0.79510   0.00000  Uiso   1.00
O1282  O     0.50000   0.22774   0.87157   0.00000  Uiso   1.00
O1283  O     0.42392   0.16666   0.86261   0.00000  Uiso   1.00
O1284  O     0.57608   0.16667   0.80405   0.00000  Uiso   1.00
O1285  O     0.42392   0.16667   0.78617   0.00000  Uiso   1.00
O1286  O     0.57608   0.16666   0.88050   0.00000  Uiso   1.00
Zn1287 Zn    0.50000   0.16666   0.88437   0.00000  Uiso   1.00
Zn1288 Zn    0.50000   0.16667   0.78229   0.00000  Uiso   1.00
O1289  O     0.65492   0.13289   0.78146   0.00000  Uiso   1.00
C1290  C     0.34587   0.09342   0.78034   0.00000  Uiso   1.00
H1291  H     0.35701   0.08015   0.81523   0.00000  Uiso   1.00
H1292  H     0.38125   0.09617   0.76279   0.00000  Uiso   1.00
C1293  C     0.64137   0.06291   0.75352   0.00000  Uiso   1.00
H1294  H     0.63064   0.07451   0.71805   0.00000  Uiso   1.00
H1295  H     0.66008   0.03179   0.75242   0.00000  Uiso   1.00
H1296  H     0.60529   0.05948   0.77004   0.00000  Uiso   1.00
O1297  O     0.34313   0.20096   0.88297   0.00000  Uiso   1.00
C1298  C     0.33892   0.24247   0.86601   0.00000  Uiso   1.00
H1299  H     0.63059   0.25249   0.86090   0.00000  Uiso   1.00
H1300  H     0.35534   0.24561   0.83309   0.00000  Uiso   1.00
C1301  C     0.36972   0.27180   0.90013   0.00000  Uiso   1.00
H1302  H     0.41104   0.26147   0.90715   0.00000  Uiso   1.00
H1303  H     0.36907   0.30407   0.88602   0.00000  Uiso   1.00
H1304  H     0.35206   0.27192   0.93237   0.00000  Uiso   1.00
O1305  O     0.43380   0.29077   0.76630   0.00000  Uiso   1.00
C1306  C     0.45113   0.29377   0.72305   0.00000  Uiso   1.00
H1307  H     0.49348   0.28600   0.72482   0.00000  Uiso   1.00
H1308  H     0.44441   0.32579   0.70862   0.00000  Uiso   1.00
C1309  C     0.42031   0.26271   0.69096   0.00000  Uiso   1.00
H1310  H     0.37834   0.27147   0.68539   0.00000  Uiso   1.00
H1311  H     0.43596   0.26269   0.99111   0.00000  Uiso   1.00
H1312  H     0.42385   0.23071   0.70578   0.00000  Uiso   1.00
O1313  O     0.56655   0.04190   0.90116   0.00000  Uiso   1.00
C1314  C     0.61408   0.05144   0.88437   0.00000  Uiso   1.00
H1315  H     0.60752   0.07373   0.85519   0.00000  Uiso   1.00
H1316  H     0.63272   0.02258   0.87321   0.00000  Uiso   1.00
C1317  C     0.65177   0.07196   0.92191   0.00000  Uiso   1.00
H1318  H     0.66030   0.05012   0.95125   0.00000  Uiso   1.00
H1319  H     0.35562   0.08011   0.90870   0.00000  Uiso   1.00
H1320  H     0.63438   0.10103   0.93363   0.00000  Uiso   1.00
C1321  C     0.83362   0.08675   0.83342   0.00000  Uiso   1.00
C1322  C     0.83280   0.24661   0.83322   0.00000  Uiso   1.00
C1323  C     0.73407   0.16481   0.82183   0.00000  Uiso   1.00
C1324  C     0.93266   0.16745   0.84477   0.00000  Uiso   1.00
C1325  C     0.67972   0.15723   0.81725   0.00000  Uiso   1.00
C1326  C     0.98685   0.17413   0.84900   0.00000  Uiso   1.00
C1327  C     0.80239   0.02193   0.79886   0.00000  Uiso   1.00
C1328  C     0.86509   0.31148   0.86761   0.00000  Uiso   1.00
C1329  C     0.80186   0.31215   0.79798   0.00000  Uiso   1.00
C1330  C     0.86725   0.02119   0.86738   0.00000  Uiso   1.00
C1331  C     0.83278   0.29076   0.83304   0.00000  Uiso   1.00
C1332  C     0.83460   0.04266   0.83341   0.00000  Uiso   1.00
C1333  C     0.86641   0.19244   0.69435   0.00000  Uiso   1.00
C1334  C     0.80022   0.14093   0.97231   0.00000  Uiso   1.00
C1335  C     0.86636   0.19246   0.97974   0.00000  Uiso   1.00
C1336  C     0.80026   0.14092   0.68692   0.00000  Uiso   1.00
H1337  H     0.77696   0.03912   0.77328   0.00000  Uiso   1.00
H1338  H     0.88943   0.29431   0.89404   0.00000  Uiso   1.00
H1339  H     0.89281   0.21310   0.71545   0.00000  Uiso   1.00
H1340  H     0.77374   0.12034   0.95121   0.00000  Uiso   1.00
H1341  H     0.89276   0.21311   0.96456   0.00000  Uiso   1.00
H1342  H     0.77381   0.12030   0.70207   0.00000  Uiso   1.00
N1343  N     0.83332   0.16666   0.95240   0.00000  Uiso   1.00
N1344  N     0.83335   0.16668   0.71427   0.00000  Uiso   1.00
O1345  O     0.83333   0.10558   0.87154   0.00000  Uiso   1.00
O1346  O     0.83334   0.22775   0.79513   0.00000  Uiso   1.00
O1347  O     0.83333   0.10559   0.79510   0.00000  Uiso   1.00
O1348  O     0.83334   0.22774   0.87157   0.00000  Uiso   1.00
O1349  O     0.75725   0.16666   0.86261   0.00000  Uiso   1.00
O1350  O     0.90942   0.16667   0.80405   0.00000  Uiso   1.00
O1351  O     0.75725   0.16667   0.78617   0.00000  Uiso   1.00
O1352  O     0.90942   0.16666   0.88050   0.00000  Uiso   1.00
Zn1353 Zn    0.83333   0.16666   0.88437   0.00000  Uiso   1.00
Zn1354 Zn    0.83333   0.16667   0.78229   0.00000  Uiso   1.00
O1355  O     0.98826   0.13289   0.78146   0.00000  Uiso   1.00
C1356  C     0.67920   0.09342   0.78034   0.00000  Uiso   1.00
H1357  H     0.69034   0.08015   0.81523   0.00000  Uiso   1.00
H1358  H     0.71458   0.09617   0.76279   0.00000  Uiso   1.00
C1359  C     0.97470   0.06291   0.75352   0.00000  Uiso   1.00
H1360  H     0.96398   0.07451   0.71805   0.00000  Uiso   1.00
H1361  H     0.99341   0.03179   0.75242   0.00000  Uiso   1.00
H1362  H     0.93862   0.05948   0.77004   0.00000  Uiso   1.00
O1363  O     0.67647   0.20096   0.88297   0.00000  Uiso   1.00
C1364  C     0.67225   0.24247   0.86601   0.00000  Uiso   1.00
H1365  H     0.96392   0.25249   0.86090   0.00000  Uiso   1.00
H1366  H     0.68868   0.24561   0.83309   0.00000  Uiso   1.00
C1367  C     0.70306   0.27180   0.90013   0.00000  Uiso   1.00
H1368  H     0.74438   0.26147   0.90715   0.00000  Uiso   1.00
H1369  H     0.70241   0.30407   0.88602   0.00000  Uiso   1.00
H1370  H     0.68540   0.27192   0.93237   0.00000  Uiso   1.00
O1371  O     0.76713   0.29077   0.76630   0.00000  Uiso   1.00
C1372  C     0.78446   0.29377   0.72305   0.00000  Uiso   1.00
H1373  H     0.82681   0.28600   0.72482   0.00000  Uiso   1.00
H1374  H     0.77774   0.32579   0.70862   0.00000  Uiso   1.00
C1375  C     0.75364   0.26271   0.69096   0.00000  Uiso   1.00
H1376  H     0.71168   0.27147   0.68539   0.00000  Uiso   1.00
H1377  H     0.76929   0.26269   0.99111   0.00000  Uiso   1.00
H1378  H     0.75719   0.23071   0.70578   0.00000  Uiso   1.00
O1379  O     0.89988   0.04190   0.90116   0.00000  Uiso   1.00
C1380  C     0.94742   0.05144   0.88437   0.00000  Uiso   1.00
H1381  H     0.94086   0.07373   0.85519   0.00000  Uiso   1.00
H1382  H     0.96605   0.02258   0.87321   0.00000  Uiso   1.00
C1383  C     0.98510   0.07196   0.92191   0.00000  Uiso   1.00
H1384  H     0.99364   0.05012   0.95125   0.00000  Uiso   1.00
H1385  H     0.68895   0.08011   0.90870   0.00000  Uiso   1.00
H1386  H     0.96771   0.10103   0.93363   0.00000  Uiso   1.00
C1387  C     0.16695   0.42008   0.83342   0.00000  Uiso   1.00
C1388  C     0.16613   0.57995   0.83322   0.00000  Uiso   1.00
C1389  C     0.06741   0.49814   0.82183   0.00000  Uiso   1.00
C1390  C     0.26600   0.50078   0.84477   0.00000  Uiso   1.00
C1391  C     0.01306   0.49056   0.81725   0.00000  Uiso   1.00
C1392  C     0.32018   0.50746   0.84900   0.00000  Uiso   1.00
C1393  C     0.13572   0.35526   0.79886   0.00000  Uiso   1.00
C1394  C     0.19842   0.64482   0.86761   0.00000  Uiso   1.00
C1395  C     0.13519   0.64549   0.79798   0.00000  Uiso   1.00
C1396  C     0.20058   0.35452   0.86738   0.00000  Uiso   1.00
C1397  C     0.16612   0.62409   0.83304   0.00000  Uiso   1.00
C1398  C     0.16793   0.37600   0.83341   0.00000  Uiso   1.00
C1399  C     0.19974   0.52578   0.69435   0.00000  Uiso   1.00
C1400  C     0.13355   0.47426   0.97231   0.00000  Uiso   1.00
C1401  C     0.19969   0.52579   0.97974   0.00000  Uiso   1.00
C1402  C     0.13359   0.47425   0.68692   0.00000  Uiso   1.00
H1403  H     0.11030   0.37245   0.77328   0.00000  Uiso   1.00
H1404  H     0.22276   0.62764   0.89404   0.00000  Uiso   1.00
H1405  H     0.22614   0.54643   0.71545   0.00000  Uiso   1.00
H1406  H     0.10707   0.45367   0.95121   0.00000  Uiso   1.00
H1407  H     0.22609   0.54645   0.96456   0.00000  Uiso   1.00
H1408  H     0.10714   0.45363   0.70207   0.00000  Uiso   1.00
N1409  N     0.16665   0.49999   0.95240   0.00000  Uiso   1.00
N1410  N     0.16668   0.50001   0.71427   0.00000  Uiso   1.00
O1411  O     0.16666   0.43892   0.87154   0.00000  Uiso   1.00
O1412  O     0.16667   0.56108   0.79513   0.00000  Uiso   1.00
O1413  O     0.16666   0.43893   0.79510   0.00000  Uiso   1.00
O1414  O     0.16667   0.56107   0.87157   0.00000  Uiso   1.00
O1415  O     0.09058   0.50000   0.86261   0.00000  Uiso   1.00
O1416  O     0.24275   0.50000   0.80405   0.00000  Uiso   1.00
O1417  O     0.09058   0.50000   0.78617   0.00000  Uiso   1.00
O1418  O     0.24275   0.50000   0.88050   0.00000  Uiso   1.00
Zn1419 Zn    0.16667   0.49999   0.88437   0.00000  Uiso   1.00
Zn1420 Zn    0.16667   0.50001   0.78229   0.00000  Uiso   1.00
O1421  O     0.32159   0.46622   0.78146   0.00000  Uiso   1.00
C1422  C     0.01254   0.42676   0.78034   0.00000  Uiso   1.00
H1423  H     0.02368   0.41349   0.81523   0.00000  Uiso   1.00
H1424  H     0.04792   0.42951   0.76279   0.00000  Uiso   1.00
C1425  C     0.30804   0.39624   0.75352   0.00000  Uiso   1.00
H1426  H     0.29731   0.40785   0.71805   0.00000  Uiso   1.00
H1427  H     0.32675   0.36512   0.75242   0.00000  Uiso   1.00
H1428  H     0.27196   0.39282   0.77004   0.00000  Uiso   1.00
O1429  O     0.00980   0.53430   0.88297   0.00000  Uiso   1.00
C1430  C     0.00558   0.57580   0.86601   0.00000  Uiso   1.00
H1431  H     0.29726   0.58582   0.86090   0.00000  Uiso   1.00
H1432  H     0.02201   0.57894   0.83309   0.00000  Uiso   1.00
C1433  C     0.03639   0.60513   0.90013   0.00000  Uiso   1.00
H1434  H     0.07771   0.59480   0.90715   0.00000  Uiso   1.00
H1435  H     0.03574   0.63741   0.88602   0.00000  Uiso   1.00
H1436  H     0.01873   0.60526   0.93237   0.00000  Uiso   1.00
O1437  O     0.10047   0.62410   0.76630   0.00000  Uiso   1.00
C1438  C     0.11779   0.62710   0.72305   0.00000  Uiso   1.00
H1439  H     0.16015   0.61933   0.72482   0.00000  Uiso   1.00
H1440  H     0.11108   0.65913   0.70862   0.00000  Uiso   1.00
C1441  C     0.08698   0.59604   0.69096   0.00000  Uiso   1.00
H1442  H     0.04501   0.60481   0.68539   0.00000  Uiso   1.00
H1443  H     0.10262   0.59602   0.99111   0.00000  Uiso   1.00
H1444  H     0.09052   0.56405   0.70578   0.00000  Uiso   1.00
O1445  O     0.23322   0.37523   0.90116   0.00000  Uiso   1.00
C1446  C     0.28075   0.38477   0.88437   0.00000  Uiso   1.00
H1447  H     0.27419   0.40707   0.85519   0.00000  Uiso   1.00
H1448  H     0.29939   0.35591   0.87321   0.00000  Uiso   1.00
C1449  C     0.31843   0.40529   0.92191   0.00000  Uiso   1.00
H1450  H     0.32697   0.38345   0.95125   0.00000  Uiso   1.00
H1451  H     0.02229   0.41344   0.90870   0.00000  Uiso   1.00
H1452  H     0.30105   0.43436   0.93363   0.00000  Uiso   1.00
C1453  C     0.50029   0.42008   0.83342   0.00000  Uiso   1.00
C1454  C     0.49946   0.57995   0.83322   0.00000  Uiso   1.00
C1455  C     0.40074   0.49814   0.82183   0.00000  Uiso   1.00
C1456  C     0.59933   0.50078   0.84477   0.00000  Uiso   1.00
C1457  C     0.34639   0.49056   0.81725   0.00000  Uiso   1.00
C1458  C     0.65352   0.50746   0.84900   0.00000  Uiso   1.00
C1459  C     0.46906   0.35526   0.79886   0.00000  Uiso   1.00
C1460  C     0.53176   0.64482   0.86761   0.00000  Uiso   1.00
C1461  C     0.46852   0.64549   0.79798   0.00000  Uiso   1.00
C1462  C     0.53392   0.35452   0.86738   0.00000  Uiso   1.00
C1463  C     0.49945   0.62409   0.83304   0.00000  Uiso   1.00
C1464  C     0.50127   0.37600   0.83341   0.00000  Uiso   1.00
C1465  C     0.53307   0.52578   0.69435   0.00000  Uiso   1.00
C1466  C     0.46689   0.47426   0.97231   0.00000  Uiso   1.00
C1467  C     0.53303   0.52579   0.97974   0.00000  Uiso   1.00
C1468  C     0.46692   0.47425   0.68692   0.00000  Uiso   1.00
H1469  H     0.44363   0.37245   0.77328   0.00000  Uiso   1.00
H1470  H     0.55609   0.62764   0.89404   0.00000  Uiso   1.00
H1471  H     0.55947   0.54643   0.71545   0.00000  Uiso   1.00
H1472  H     0.44040   0.45367   0.95121   0.00000  Uiso   1.00
H1473  H     0.55943   0.54645   0.96456   0.00000  Uiso   1.00
H1474  H     0.44048   0.45363   0.70207   0.00000  Uiso   1.00
N1475  N     0.49999   0.49999   0.95240   0.00000  Uiso   1.00
N1476  N     0.50001   0.50001   0.71427   0.00000  Uiso   1.00
O1477  O     0.50000   0.43892   0.87154   0.00000  Uiso   1.00
O1478  O     0.50000   0.56108   0.79513   0.00000  Uiso   1.00
O1479  O     0.50000   0.43893   0.79510   0.00000  Uiso   1.00
O1480  O     0.50000   0.56107   0.87157   0.00000  Uiso   1.00
O1481  O     0.42392   0.50000   0.86261   0.00000  Uiso   1.00
O1482  O     0.57608   0.50000   0.80405   0.00000  Uiso   1.00
O1483  O     0.42392   0.50000   0.78617   0.00000  Uiso   1.00
O1484  O     0.57608   0.50000   0.88050   0.00000  Uiso   1.00
Zn1485 Zn    0.50000   0.49999   0.88437   0.00000  Uiso   1.00
Zn1486 Zn    0.50000   0.50001   0.78229   0.00000  Uiso   1.00
O1487  O     0.65492   0.46622   0.78146   0.00000  Uiso   1.00
C1488  C     0.34587   0.42676   0.78034   0.00000  Uiso   1.00
H1489  H     0.35701   0.41349   0.81523   0.00000  Uiso   1.00
H1490  H     0.38125   0.42951   0.76279   0.00000  Uiso   1.00
C1491  C     0.64137   0.39624   0.75352   0.00000  Uiso   1.00
H1492  H     0.63064   0.40785   0.71805   0.00000  Uiso   1.00
H1493  H     0.66008   0.36512   0.75242   0.00000  Uiso   1.00
H1494  H     0.60529   0.39282   0.77004   0.00000  Uiso   1.00
O1495  O     0.34313   0.53430   0.88297   0.00000  Uiso   1.00
C1496  C     0.33892   0.57580   0.86601   0.00000  Uiso   1.00
H1497  H     0.63059   0.58582   0.86090   0.00000  Uiso   1.00
H1498  H     0.35534   0.57894   0.83309   0.00000  Uiso   1.00
C1499  C     0.36972   0.60513   0.90013   0.00000  Uiso   1.00
H1500  H     0.41104   0.59480   0.90715   0.00000  Uiso   1.00
H1501  H     0.36907   0.63741   0.88602   0.00000  Uiso   1.00
H1502  H     0.35206   0.60526   0.93237   0.00000  Uiso   1.00
O1503  O     0.43380   0.62410   0.76630   0.00000  Uiso   1.00
C1504  C     0.45113   0.62710   0.72305   0.00000  Uiso   1.00
H1505  H     0.49348   0.61933   0.72482   0.00000  Uiso   1.00
H1506  H     0.44441   0.65913   0.70862   0.00000  Uiso   1.00
C1507  C     0.42031   0.59604   0.69096   0.00000  Uiso   1.00
H1508  H     0.37834   0.60481   0.68539   0.00000  Uiso   1.00
H1509  H     0.43596   0.59602   0.99111   0.00000  Uiso   1.00
H1510  H     0.42385   0.56405   0.70578   0.00000  Uiso   1.00
O1511  O     0.56655   0.37523   0.90116   0.00000  Uiso   1.00
C1512  C     0.61408   0.38477   0.88437   0.00000  Uiso   1.00
H1513  H     0.60752   0.40707   0.85519   0.00000  Uiso   1.00
H1514  H     0.63272   0.35591   0.87321   0.00000  Uiso   1.00
C1515  C     0.65177   0.40529   0.92191   0.00000  Uiso   1.00
H1516  H     0.66030   0.38345   0.95125   0.00000  Uiso   1.00
H1517  H     0.35562   0.41344   0.90870   0.00000  Uiso   1.00
H1518  H     0.63438   0.43436   0.93363   0.00000  Uiso   1.00
C1519  C     0.83362   0.42008   0.83342   0.00000  Uiso   1.00
C1520  C     0.83280   0.57995   0.83322   0.00000  Uiso   1.00
C1521  C     0.73407   0.49814   0.82183   0.00000  Uiso   1.00
C1522  C     0.93266   0.50078   0.84477   0.00000  Uiso   1.00
C1523  C     0.67972   0.49056   0.81725   0.00000  Uiso   1.00
C1524  C     0.98685   0.50746   0.84900   0.00000  Uiso   1.00
C1525  C     0.80239   0.35526   0.79886   0.00000  Uiso   1.00
C1526  C     0.86509   0.64482   0.86761   0.00000  Uiso   1.00
C1527  C     0.80186   0.64549   0.79798   0.00000  Uiso   1.00
C1528  C     0.86725   0.35452   0.86738   0.00000  Uiso   1.00
C1529  C     0.83278   0.62409   0.83304   0.00000  Uiso   1.00
C1530  C     0.83460   0.37600   0.83341   0.00000  Uiso   1.00
C1531  C     0.86641   0.52578   0.69435   0.00000  Uiso   1.00
C1532  C     0.80022   0.47426   0.97231   0.00000  Uiso   1.00
C1533  C     0.86636   0.52579   0.97974   0.00000  Uiso   1.00
C1534  C     0.80026   0.47425   0.68692   0.00000  Uiso   1.00
H1535  H     0.77696   0.37245   0.77328   0.00000  Uiso   1.00
H1536  H     0.88943   0.62764   0.89404   0.00000  Uiso   1.00
H1537  H     0.89281   0.54643   0.71545   0.00000  Uiso   1.00
H1538  H     0.77374   0.45367   0.95121   0.00000  Uiso   1.00
H1539  H     0.89276   0.54645   0.96456   0.00000  Uiso   1.00
H1540  H     0.77381   0.45363   0.70207   0.00000  Uiso   1.00
N1541  N     0.83332   0.49999   0.95240   0.00000  Uiso   1.00
N1542  N     0.83335   0.50001   0.71427   0.00000  Uiso   1.00
O1543  O     0.83333   0.43892   0.87154   0.00000  Uiso   1.00
O1544  O     0.83334   0.56108   0.79513   0.00000  Uiso   1.00
O1545  O     0.83333   0.43893   0.79510   0.00000  Uiso   1.00
O1546  O     0.83334   0.56107   0.87157   0.00000  Uiso   1.00
O1547  O     0.75725   0.50000   0.86261   0.00000  Uiso   1.00
O1548  O     0.90942   0.50000   0.80405   0.00000  Uiso   1.00
O1549  O     0.75725   0.50000   0.78617   0.00000  Uiso   1.00
O1550  O     0.90942   0.50000   0.88050   0.00000  Uiso   1.00
Zn1551 Zn    0.83333   0.49999   0.88437   0.00000  Uiso   1.00
Zn1552 Zn    0.83333   0.50001   0.78229   0.00000  Uiso   1.00
O1553  O     0.98826   0.46622   0.78146   0.00000  Uiso   1.00
C1554  C     0.67920   0.42676   0.78034   0.00000  Uiso   1.00
H1555  H     0.69034   0.41349   0.81523   0.00000  Uiso   1.00
H1556  H     0.71458   0.42951   0.76279   0.00000  Uiso   1.00
C1557  C     0.97470   0.39624   0.75352   0.00000  Uiso   1.00
H1558  H     0.96398   0.40785   0.71805   0.00000  Uiso   1.00
H1559  H     0.99341   0.36512   0.75242   0.00000  Uiso   1.00
H1560  H     0.93862   0.39282   0.77004   0.00000  Uiso   1.00
O1561  O     0.67647   0.53430   0.88297   0.00000  Uiso   1.00
C1562  C     0.67225   0.57580   0.86601   0.00000  Uiso   1.00
H1563  H     0.96392   0.58582   0.86090   0.00000  Uiso   1.00
H1564  H     0.68868   0.57894   0.83309   0.00000  Uiso   1.00
C1565  C     0.70306   0.60513   0.90013   0.00000  Uiso   1.00
H1566  H     0.74438   0.59480   0.90715   0.00000  Uiso   1.00
H1567  H     0.70241   0.63741   0.88602   0.00000  Uiso   1.00
H1568  H     0.68540   0.60526   0.93237   0.00000  Uiso   1.00
O1569  O     0.76713   0.62410   0.76630   0.00000  Uiso   1.00
C1570  C     0.78446   0.62710   0.72305   0.00000  Uiso   1.00
H1571  H     0.82681   0.61933   0.72482   0.00000  Uiso   1.00
H1572  H     0.77774   0.65913   0.70862   0.00000  Uiso   1.00
C1573  C     0.75364   0.59604   0.69096   0.00000  Uiso   1.00
H1574  H     0.71168   0.60481   0.68539   0.00000  Uiso   1.00
H1575  H     0.76929   0.59602   0.99111   0.00000  Uiso   1.00
H1576  H     0.75719   0.56405   0.70578   0.00000  Uiso   1.00
O1577  O     0.89988   0.37523   0.90116   0.00000  Uiso   1.00
C1578  C     0.94742   0.38477   0.88437   0.00000  Uiso   1.00
H1579  H     0.94086   0.40707   0.85519   0.00000  Uiso   1.00
H1580  H     0.96605   0.35591   0.87321   0.00000  Uiso   1.00
C1581  C     0.98510   0.40529   0.92191   0.00000  Uiso   1.00
H1582  H     0.99364   0.38345   0.95125   0.00000  Uiso   1.00
H1583  H     0.68895   0.41344   0.90870   0.00000  Uiso   1.00
H1584  H     0.96771   0.43436   0.93363   0.00000  Uiso   1.00
C1585  C     0.16695   0.75341   0.83342   0.00000  Uiso   1.00
C1586  C     0.16613   0.91328   0.83322   0.00000  Uiso   1.00
C1587  C     0.06741   0.83147   0.82183   0.00000  Uiso   1.00
C1588  C     0.26600   0.83411   0.84477   0.00000  Uiso   1.00
C1589  C     0.01306   0.82390   0.81725   0.00000  Uiso   1.00
C1590  C     0.32018   0.84080   0.84900   0.00000  Uiso   1.00
C1591  C     0.13572   0.68859   0.79886   0.00000  Uiso   1.00
C1592  C     0.19842   0.97815   0.86761   0.00000  Uiso   1.00
C1593  C     0.13519   0.97882   0.79798   0.00000  Uiso   1.00
C1594  C     0.20058   0.68786   0.86738   0.00000  Uiso   1.00
C1595  C     0.16612   0.95742   0.83304   0.00000  Uiso   1.00
C1596  C     0.16793   0.70933   0.83341   0.00000  Uiso   1.00
C1597  C     0.19974   0.85911   0.69435   0.00000  Uiso   1.00
C1598  C     0.13355   0.80759   0.97231   0.00000  Uiso   1.00
C1599  C     0.19969   0.85913   0.97974   0.00000  Uiso   1.00
C1600  C     0.13359   0.80758   0.68692   0.00000  Uiso   1.00
H1601  H     0.11030   0.70579   0.77328   0.00000  Uiso   1.00
H1602  H     0.22276   0.96097   0.89404   0.00000  Uiso   1.00
H1603  H     0.22614   0.87976   0.71545   0.00000  Uiso   1.00
H1604  H     0.10707   0.78700   0.95121   0.00000  Uiso   1.00
H1605  H     0.22609   0.87978   0.96456   0.00000  Uiso   1.00
H1606  H     0.10714   0.78697   0.70207   0.00000  Uiso   1.00
N1607  N     0.16665   0.83332   0.95240   0.00000  Uiso   1.00
N1608  N     0.16668   0.83334   0.71427   0.00000  Uiso   1.00
O1609  O     0.16666   0.77225   0.87154   0.00000  Uiso   1.00
O1610  O     0.16667   0.89442   0.79513   0.00000  Uiso   1.00
O1611  O     0.16666   0.77226   0.79510   0.00000  Uiso   1.00
O1612  O     0.16667   0.89441   0.87157   0.00000  Uiso   1.00
O1613  O     0.09058   0.83333   0.86261   0.00000  Uiso   1.00
O1614  O     0.24275   0.83334   0.80405   0.00000  Uiso   1.00
O1615  O     0.09058   0.83334   0.78617   0.00000  Uiso   1.00
O1616  O     0.24275   0.83333   0.88050   0.00000  Uiso   1.00
Zn1617 Zn    0.16667   0.83333   0.88437   0.00000  Uiso   1.00
Zn1618 Zn    0.16667   0.83334   0.78229   0.00000  Uiso   1.00
O1619  O     0.32159   0.79955   0.78146   0.00000  Uiso   1.00
C1620  C     0.01254   0.76009   0.78034   0.00000  Uiso   1.00
H1621  H     0.02368   0.74682   0.81523   0.00000  Uiso   1.00
H1622  H     0.04792   0.76284   0.76279   0.00000  Uiso   1.00
C1623  C     0.30804   0.72957   0.75352   0.00000  Uiso   1.00
H1624  H     0.29731   0.74118   0.71805   0.00000  Uiso   1.00
H1625  H     0.32675   0.69845   0.75242   0.00000  Uiso   1.00
H1626  H     0.27196   0.72615   0.77004   0.00000  Uiso   1.00
O1627  O     0.00980   0.86763   0.88297   0.00000  Uiso   1.00
C1628  C     0.00558   0.90914   0.86601   0.00000  Uiso   1.00
H1629  H     0.29726   0.91915   0.86090   0.00000  Uiso   1.00
H1630  H     0.02201   0.91228   0.83309   0.00000  Uiso   1.00
C1631  C     0.03639   0.93846   0.90013   0.00000  Uiso   1.00
H1632  H     0.07771   0.92813   0.90715   0.00000  Uiso   1.00
H1633  H     0.03574   0.97074   0.88602   0.00000  Uiso   1.00
H1634  H     0.01873   0.93859   0.93237   0.00000  Uiso   1.00
O1635  O     0.10047   0.95743   0.76630   0.00000  Uiso   1.00
C1636  C     0.11779   0.96043   0.72305   0.00000  Uiso   1.00
H1637  H     0.16015   0.95266   0.72482   0.00000  Uiso   1.00
H1638  H     0.11108   0.99246   0.70862   0.00000  Uiso   1.00
C1639  C     0.08698   0.92938   0.69096   0.00000  Uiso   1.00
H1640  H     0.04501   0.93814   0.68539   0.00000  Uiso   1.00
H1641  H     0.10262   0.92936   0.99111   0.00000  Uiso   1.00
H1642  H     0.09052   0.89738   0.70578   0.00000  Uiso   1.00
O1643  O     0.23322   0.70857   0.90116   0.00000  Uiso   1.00
C1644  C     0.28075   0.71811   0.88437   0.00000  Uiso   1.00
H1645  H     0.27419   0.74040   0.85519   0.00000  Uiso   1.00
H1646  H     0.29939   0.68925   0.87321   0.00000  Uiso   1.00
C1647  C     0.31843   0.73862   0.92191   0.00000  Uiso   1.00
H1648  H     0.32697   0.71678   0.95125   0.00000  Uiso   1.00
H1649  H     0.02229   0.74677   0.90870   0.00000  Uiso   1.00
H1650  H     0.30105   0.76770   0.93363   0.00000  Uiso   1.00
C1651  C     0.50029   0.75341   0.83342   0.00000  Uiso   1.00
C1652  C     0.49946   0.91328   0.83322   0.00000  Uiso   1.00
C1653  C     0.40074   0.83147   0.82183   0.00000  Uiso   1.00
C1654  C     0.59933   0.83411   0.84477   0.00000  Uiso   1.00
C1655  C     0.34639   0.82390   0.81725   0.00000  Uiso   1.00
C1656  C     0.65352   0.84080   0.84900   0.00000  Uiso   1.00
C1657  C     0.46906   0.68859   0.79886   0.00000  Uiso   1.00
C1658  C     0.53176   0.97815   0.86761   0.00000  Uiso   1.00
C1659  C     0.46852   0.97882   0.79798   0.00000  Uiso   1.00
C1660  C     0.53392   0.68786   0.86738   0.00000  Uiso   1.00
C1661  C     0.49945   0.95742   0.83304   0.00000  Uiso   1.00
C1662  C     0.50127   0.70933   0.83341   0.00000  Uiso   1.00
C1663  C     0.53307   0.85911   0.69435   0.00000  Uiso   1.00
C1664  C     0.46689   0.80759   0.97231   0.00000  Uiso   1.00
C1665  C     0.53303   0.85913   0.97974   0.00000  Uiso   1.00
C1666  C     0.46692   0.80758   0.68692   0.00000  Uiso   1.00
H1667  H     0.44363   0.70579   0.77328   0.00000  Uiso   1.00
H1668  H     0.55609   0.96097   0.89404   0.00000  Uiso   1.00
H1669  H     0.55947   0.87976   0.71545   0.00000  Uiso   1.00
H1670  H     0.44040   0.78700   0.95121   0.00000  Uiso   1.00
H1671  H     0.55943   0.87978   0.96456   0.00000  Uiso   1.00
H1672  H     0.44048   0.78697   0.70207   0.00000  Uiso   1.00
N1673  N     0.49999   0.83332   0.95240   0.00000  Uiso   1.00
N1674  N     0.50001   0.83334   0.71427   0.00000  Uiso   1.00
O1675  O     0.50000   0.77225   0.87154   0.00000  Uiso   1.00
O1676  O     0.50000   0.89442   0.79513   0.00000  Uiso   1.00
O1677  O     0.50000   0.77226   0.79510   0.00000  Uiso   1.00
O1678  O     0.50000   0.89441   0.87157   0.00000  Uiso   1.00
O1679  O     0.42392   0.83333   0.86261   0.00000  Uiso   1.00
O1680  O     0.57608   0.83334   0.80405   0.00000  Uiso   1.00
O1681  O     0.42392   0.83334   0.78617   0.00000  Uiso   1.00
O1682  O     0.57608   0.83333   0.88050   0.00000  Uiso   1.00
Zn1683 Zn    0.50000   0.83333   0.88437   0.00000  Uiso   1.00
Zn1684 Zn    0.50000   0.83334   0.78229   0.00000  Uiso   1.00
O1685  O     0.65492   0.79955   0.78146   0.00000  Uiso   1.00
C1686  C     0.34587   0.76009   0.78034   0.00000  Uiso   1.00
H1687  H     0.35701   0.74682   0.81523   0.00000  Uiso   1.00
H1688  H     0.38125   0.76284   0.76279   0.00000  Uiso   1.00
C1689  C     0.64137   0.72957   0.75352   0.00000  Uiso   1.00
H1690  H     0.63064   0.74118   0.71805   0.00000  Uiso   1.00
H1691  H     0.66008   0.69845   0.75242   0.00000  Uiso   1.00
H1692  H     0.60529   0.72615   0.77004   0.00000  Uiso   1.00
O1693  O     0.34313   0.86763   0.88297   0.00000  Uiso   1.00
C1694  C     0.33892   0.90914   0.86601   0.00000  Uiso   1.00
H1695  H     0.63059   0.91915   0.86090   0.00000  Uiso   1.00
H1696  H     0.35534   0.91228   0.83309   0.00000  Uiso   1.00
C1697  C     0.36972   0.93846   0.90013   0.00000  Uiso   1.00
H1698  H     0.41104   0.92813   0.90715   0.00000  Uiso   1.00
H1699  H     0.36907   0.97074   0.88602   0.00000  Uiso   1.00
H1700  H     0.35206   0.93859   0.93237   0.00000  Uiso   1.00
O1701  O     0.43380   0.95743   0.76630   0.00000  Uiso   1.00
C1702  C     0.45113   0.96043   0.72305   0.00000  Uiso   1.00
H1703  H     0.49348   0.95266   0.72482   0.00000  Uiso   1.00
H1704  H     0.44441   0.99246   0.70862   0.00000  Uiso   1.00
C1705  C     0.42031   0.92938   0.69096   0.00000  Uiso   1.00
H1706  H     0.37834   0.93814   0.68539   0.00000  Uiso   1.00
H1707  H     0.43596   0.92936   0.99111   0.00000  Uiso   1.00
H1708  H     0.42385   0.89738   0.70578   0.00000  Uiso   1.00
O1709  O     0.56655   0.70857   0.90116   0.00000  Uiso   1.00
C1710  C     0.61408   0.71811   0.88437   0.00000  Uiso   1.00
H1711  H     0.60752   0.74040   0.85519   0.00000  Uiso   1.00
H1712  H     0.63272   0.68925   0.87321   0.00000  Uiso   1.00
C1713  C     0.65177   0.73862   0.92191   0.00000  Uiso   1.00
H1714  H     0.66030   0.71678   0.95125   0.00000  Uiso   1.00
H1715  H     0.35562   0.74677   0.90870   0.00000  Uiso   1.00
H1716  H     0.63438   0.76770   0.93363   0.00000  Uiso   1.00
C1717  C     0.83362   0.75341   0.83342   0.00000  Uiso   1.00
C1718  C     0.83280   0.91328   0.83322   0.00000  Uiso   1.00
C1719  C     0.73407   0.83147   0.82183   0.00000  Uiso   1.00
C1720  C     0.93266   0.83411   0.84477   0.00000  Uiso   1.00
C1721  C     0.67972   0.82390   0.81725   0.00000  Uiso   1.00
C1722  C     0.98685   0.84080   0.84900   0.00000  Uiso   1.00
C1723  C     0.80239   0.68859   0.79886   0.00000  Uiso   1.00
C1724  C     0.86509   0.97815   0.86761   0.00000  Uiso   1.00
C1725  C     0.80186   0.97882   0.79798   0.00000  Uiso   1.00
C1726  C     0.86725   0.68786   0.86738   0.00000  Uiso   1.00
C1727  C     0.83278   0.95742   0.83304   0.00000  Uiso   1.00
C1728  C     0.83460   0.70933   0.83341   0.00000  Uiso   1.00
C1729  C     0.86641   0.85911   0.69435   0.00000  Uiso   1.00
C1730  C     0.80022   0.80759   0.97231   0.00000  Uiso   1.00
C1731  C     0.86636   0.85913   0.97974   0.00000  Uiso   1.00
C1732  C     0.80026   0.80758   0.68692   0.00000  Uiso   1.00
H1733  H     0.77696   0.70579   0.77328   0.00000  Uiso   1.00
H1734  H     0.88943   0.96097   0.89404   0.00000  Uiso   1.00
H1735  H     0.89281   0.87976   0.71545   0.00000  Uiso   1.00
H1736  H     0.77374   0.78700   0.95121   0.00000  Uiso   1.00
H1737  H     0.89276   0.87978   0.96456   0.00000  Uiso   1.00
H1738  H     0.77381   0.78697   0.70207   0.00000  Uiso   1.00
N1739  N     0.83332   0.83332   0.95240   0.00000  Uiso   1.00
N1740  N     0.83335   0.83334   0.71427   0.00000  Uiso   1.00
O1741  O     0.83333   0.77225   0.87154   0.00000  Uiso   1.00
O1742  O     0.83334   0.89442   0.79513   0.00000  Uiso   1.00
O1743  O     0.83333   0.77226   0.79510   0.00000  Uiso   1.00
O1744  O     0.83334   0.89441   0.87157   0.00000  Uiso   1.00
O1745  O     0.75725   0.83333   0.86261   0.00000  Uiso   1.00
O1746  O     0.90942   0.83334   0.80405   0.00000  Uiso   1.00
O1747  O     0.75725   0.83334   0.78617   0.00000  Uiso   1.00
O1748  O     0.90942   0.83333   0.88050   0.00000  Uiso   1.00
Zn1749 Zn    0.83333   0.83333   0.88437   0.00000  Uiso   1.00
Zn1750 Zn    0.83333   0.83334   0.78229   0.00000  Uiso   1.00
O1751  O     0.98826   0.79955   0.78146   0.00000  Uiso   1.00
C1752  C     0.67920   0.76009   0.78034   0.00000  Uiso   1.00
H1753  H     0.69034   0.74682   0.81523   0.00000  Uiso   1.00
H1754  H     0.71458   0.76284   0.76279   0.00000  Uiso   1.00
C1755  C     0.97470   0.72957   0.75352   0.00000  Uiso   1.00
H1756  H     0.96398   0.74118   0.71805   0.00000  Uiso   1.00
H1757  H     0.99341   0.69845   0.75242   0.00000  Uiso   1.00
H1758  H     0.93862   0.72615   0.77004   0.00000  Uiso   1.00
O1759  O     0.67647   0.86763   0.88297   0.00000  Uiso   1.00
C1760  C     0.67225   0.90914   0.86601   0.00000  Uiso   1.00
H1761  H     0.96392   0.91915   0.86090   0.00000  Uiso   1.00
H1762  H     0.68868   0.91228   0.83309   0.00000  Uiso   1.00
C1763  C     0.70306   0.93846   0.90013   0.00000  Uiso   1.00
H1764  H     0.74438   0.92813   0.90715   0.00000  Uiso   1.00
H1765  H     0.70241   0.97074   0.88602   0.00000  Uiso   1.00
H1766  H     0.68540   0.93859   0.93237   0.00000  Uiso   1.00
O1767  O     0.76713   0.95743   0.76630   0.00000  Uiso   1.00
C1768  C     0.78446   0.96043   0.72305   0.00000  Uiso   1.00
H1769  H     0.82681   0.95266   0.72482   0.00000  Uiso   1.00
H1770  H     0.77774   0.99246   0.70862   0.00000  Uiso   1.00
C1771  C     0.75364   0.92938   0.69096   0.00000  Uiso   1.00
H1772  H     0.71168   0.93814   0.68539   0.00000  Uiso   1.00
H1773  H     0.76929   0.92936   0.99111   0.00000  Uiso   1.00
H1774  H     0.75719   0.89738   0.70578   0.00000  Uiso   1.00
O1775  O     0.89988   0.70857   0.90116   0.00000  Uiso   1.00
C1776  C     0.94742   0.71811   0.88437   0.00000  Uiso   1.00
H1777  H     0.94086   0.74040   0.85519   0.00000  Uiso   1.00
H1778  H     0.96605   0.68925   0.87321   0.00000  Uiso   1.00
C1779  C     0.98510   0.73862   0.92191   0.00000  Uiso   1.00
H1780  H     0.99364   0.71678   0.95125   0.00000  Uiso   1.00
H1781  H     0.68895   0.74677   0.90870   0.00000  Uiso   1.00
H1782  H     0.96771   0.76770   0.93363   0.00000  Uiso   1.00
loop_
_geom_bond_atom_site_label_1
_geom_bond_atom_site_label_2
_geom_bond_distance
_geom_bond_site_symmetry_2
_ccdc_geom_bond_type
C1     O25     1.281   .     A
C1     C12     1.408   .     S
C1     O27     1.280   .     A
C2     O28     1.280   .     A
C2     O26     1.281   .     A
C2     C11     1.410   .     S
C3     O31     1.280   .     A
C3     O29     1.274   .     A
C3     C5      1.408   .     S
C4     O32     1.282   .     A
C4     C6      1.400   .     S
C4     O30     1.271   .     A
C5     C138    1.344   1_455 S
C5     O167    1.397   1_455 S
C6     C71     1.344   .     S
C6     O109    1.390   .     S
C7     C12     1.393   .     A
C7     H17     1.083   .     S
C7     C405    1.377   1_545 S
C8     C11     1.395   .     A
C8     H18     1.085   .     S
C8     C208    1.375   .     S
C9     O51     1.384   .     S
C9     C11     1.400   .     A
C9     C205    1.377   .     S
C10    O59     1.384   .     S
C10    C12     1.402   .     A
C10    C404    1.375   1_545 S
C13    N24     1.367   .     A
C13    H19     1.082   .     S
C13    C1203   1.417   1_554 S
C14    N23     1.366   .     A
C14    H20     1.082   .     S
C14    C610    1.417   .     S
C15    N23     1.367   .     A
C15    H21     1.082   .     S
C15    C607    1.417   .     S
C16    N24     1.367   .     A
C16    H22     1.082   .     S
C16    C1202   1.417   1_554 S
N23    Zn33    2.011   .     S
N24    Zn34    2.011   .     S
O25    Zn33    1.989   .     S
O26    Zn34    1.989   .     S
O27    Zn34    1.985   .     S
O28    Zn33    1.985   .     S
O29    Zn33    1.981   .     S
O30    Zn34    1.981   .     S
O31    Zn34    1.980   .     S
O32    Zn33    1.980   .     S
O35    C71     1.397   .     S
O35    C102    1.414   .     S
C36    H38     1.110   .     S
C36    H37     1.116   .     S
C36    O167    1.414   1_455 S
C36    C171    1.521   1_455 S
C39    H41     1.111   .     S
C39    H40     1.111   .     S
C39    H42     1.111   .     S
C39    C102    1.521   .     S
O43    C44     1.415   .     S
O43    C138    1.390   1_455 S
C44    C47     1.519   .     S
C44    H46     1.116   .     S
C44    H177    1.114   1_455 S
H45    C110    1.114   .     S
C47    H49     1.110   .     S
C47    H50     1.110   .     S
C47    H48     1.110   .     S
O51    C52     1.412   .     S
C52    C55     1.519   .     S
C52    H54     1.112   .     S
C52    H53     1.116   .     S
C55    H56     1.110   .     S
C55    H58     1.110   .     S
C55    H1245   1.109   1_554 S
H57    C649    1.109   .     S
O59    C60     1.412   .     S
C60    H62     1.114   .     S
C60    C63     1.521   .     S
C60    H61     1.112   .     S
C63    H66     1.111   .     S
C63    H64     1.111   .     S
C63    H131    1.111   .     S
H65    C195    1.111   1_455 S
C67    O91     1.281   .     A
C67    C78     1.408   .     S
C67    O93     1.280   .     A
C68    O94     1.280   .     A
C68    O92     1.281   .     A
C68    C77     1.410   .     S
C69    O97     1.280   .     A
C69    O95     1.274   .     A
C69    C71     1.408   .     S
C70    O98     1.282   .     A
C70    C72     1.400   .     S
C70    O96     1.271   .     A
C72    C137    1.344   .     S
C72    O175    1.390   .     S
C73    C78     1.393   .     A
C73    H83     1.083   .     S
C73    C471    1.377   1_545 S
C74    C77     1.395   .     A
C74    H84     1.085   .     S
C74    C274    1.375   .     S
C75    O117    1.384   .     S
C75    C77     1.400   .     A
C75    C271    1.377   .     S
C76    O125    1.384   .     S
C76    C78     1.402   .     A
C76    C470    1.375   1_545 S
C79    N90     1.367   .     A
C79    H85     1.082   .     S
C79    C1269   1.417   1_554 S
C80    N89     1.366   .     A
C80    H86     1.082   .     S
C80    C676    1.417   .     S
C81    N89     1.367   .     A
C81    H87     1.082   .     S
C81    C673    1.417   .     S
C82    N90     1.367   .     A
C82    H88     1.082   .     S
C82    C1268   1.417   1_554 S
N89    Zn99    2.011   .     S
N90    Zn100   2.011   .     S
O91    Zn99    1.989   .     S
O92    Zn100   1.989   .     S
O93    Zn100   1.985   .     S
O94    Zn99    1.985   .     S
O95    Zn99    1.981   .     S
O96    Zn100   1.981   .     S
O97    Zn100   1.980   .     S
O98    Zn99    1.980   .     S
O101   C137    1.397   .     S
O101   C168    1.414   .     S
C102   H104    1.110   .     S
C102   H103    1.116   .     S
C105   H107    1.111   .     S
C105   H106    1.111   .     S
C105   H108    1.111   .     S
C105   C168    1.521   .     S
O109   C110    1.415   .     S
C110   C113    1.519   .     S
C110   H112    1.116   .     S
H111   C176    1.114   .     S
C113   H115    1.110   .     S
C113   H116    1.110   .     S
C113   H114    1.110   .     S
O117   C118    1.412   .     S
C118   C121    1.519   .     S
C118   H120    1.112   .     S
C118   H119    1.116   .     S
C121   H122    1.110   .     S
C121   H124    1.110   .     S
C121   H1311   1.109   1_554 S
H123   C715    1.109   .     S
O125   C126    1.412   .     S
C126   H128    1.114   .     S
C126   C129    1.521   .     S
C126   H127    1.112   .     S
C129   H132    1.111   .     S
C129   H130    1.111   .     S
C129   H197    1.111   .     S
C133   O157    1.281   .     A
C133   C144    1.408   .     S
C133   O159    1.280   .     A
C134   O160    1.280   .     A
C134   O158    1.281   .     A
C134   C143    1.410   .     S
C135   O163    1.280   .     A
C135   O161    1.274   .     A
C135   C137    1.408   .     S
C136   O164    1.282   .     A
C136   C138    1.400   .     S
C136   O162    1.271   .     A
C138   C5      1.344   1_655 S
C138   O43     1.390   1_655 S
C139   C144    1.393   .     A
C139   H149    1.083   .     S
C139   C537    1.377   1_545 S
C140   C143    1.395   .     A
C140   H150    1.085   .     S
C140   C340    1.375   .     S
C141   O183    1.384   .     S
C141   C143    1.400   .     A
C141   C337    1.377   .     S
C142   O191    1.384   .     S
C142   C144    1.402   .     A
C142   C536    1.375   1_545 S
C145   N156    1.367   .     A
C145   H151    1.082   .     S
C145   C1335   1.417   1_554 S
C146   N155    1.366   .     A
C146   H152    1.082   .     S
C146   C742    1.417   .     S
C147   N155    1.367   .     A
C147   H153    1.082   .     S
C147   C739    1.417   .     S
C148   N156    1.367   .     A
C148   H154    1.082   .     S
C148   C1334   1.417   1_554 S
N155   Zn165   2.011   .     S
N156   Zn166   2.011   .     S
O157   Zn165   1.989   .     S
O158   Zn166   1.989   .     S
O159   Zn166   1.985   .     S
O160   Zn165   1.985   .     S
O161   Zn165   1.981   .     S
O162   Zn166   1.981   .     S
O163   Zn166   1.980   .     S
O164   Zn165   1.980   .     S
O167   C5      1.397   1_655 S
O167   C36     1.414   1_655 S
C168   H170    1.110   .     S
C168   H169    1.116   .     S
C171   H173    1.111   .     S
C171   H172    1.111   .     S
C171   H174    1.111   .     S
C171   C36     1.521   1_655 S
O175   C176    1.415   .     S
C176   C179    1.519   .     S
C176   H178    1.116   .     S
H177   C44     1.114   1_655 S
C179   H181    1.110   .     S
C179   H182    1.110   .     S
C179   H180    1.110   .     S
O183   C184    1.412   .     S
C184   C187    1.519   .     S
C184   H186    1.112   .     S
C184   H185    1.116   .     S
C187   H188    1.110   .     S
C187   H190    1.110   .     S
C187   H1377   1.109   1_554 S
H189   C781    1.109   .     S
O191   C192    1.412   .     S
C192   H194    1.114   .     S
C192   C195    1.521   .     S
C192   H193    1.112   .     S
C195   H198    1.111   .     S
C195   H196    1.111   .     S
C195   H65     1.111   1_655 S
C199   O223    1.281   .     A
C199   C210    1.408   .     S
C199   O225    1.280   .     A
C200   O226    1.280   .     A
C200   O224    1.281   .     A
C200   C209    1.410   .     S
C201   O229    1.280   .     A
C201   O227    1.274   .     A
C201   C203    1.408   .     S
C202   O230    1.282   .     A
C202   C204    1.400   .     S
C202   O228    1.271   .     A
C203   C336    1.344   1_455 S
C203   O365    1.397   1_455 S
C204   C269    1.344   .     S
C204   O307    1.390   .     S
C205   C210    1.393   .     A
C205   H215    1.083   .     S
C206   C209    1.395   .     A
C206   H216    1.085   .     S
C206   C406    1.375   .     S
C207   O249    1.384   .     S
C207   C209    1.400   .     A
C207   C403    1.377   .     S
C208   O257    1.384   .     S
C208   C210    1.402   .     A
C211   N222    1.367   .     A
C211   H217    1.082   .     S
C211   C1401   1.417   1_554 S
C212   N221    1.366   .     A
C212   H218    1.082   .     S
C212   C808    1.417   .     S
C213   N221    1.367   .     A
C213   H219    1.082   .     S
C213   C805    1.417   .     S
C214   N222    1.367   .     A
C214   H220    1.082   .     S
C214   C1400   1.417   1_554 S
N221   Zn231   2.011   .     S
N222   Zn232   2.011   .     S
O223   Zn231   1.989   .     S
O224   Zn232   1.989   .     S
O225   Zn232   1.985   .     S
O226   Zn231   1.985   .     S
O227   Zn231   1.981   .     S
O228   Zn232   1.981   .     S
O229   Zn232   1.980   .     S
O230   Zn231   1.980   .     S
O233   C269    1.397   .     S
O233   C300    1.414   .     S
C234   H236    1.110   .     S
C234   H235    1.116   .     S
C234   O365    1.414   1_455 S
C234   C369    1.521   1_455 S
C237   H239    1.111   .     S
C237   H238    1.111   .     S
C237   H240    1.111   .     S
C237   C300    1.521   .     S
O241   C242    1.415   .     S
O241   C336    1.390   1_455 S
C242   C245    1.519   .     S
C242   H244    1.116   .     S
C242   H375    1.114   1_455 S
H243   C308    1.114   .     S
C245   H247    1.110   .     S
C245   H248    1.110   .     S
C245   H246    1.110   .     S
O249   C250    1.412   .     S
C250   C253    1.519   .     S
C250   H252    1.112   .     S
C250   H251    1.116   .     S
C253   H254    1.110   .     S
C253   H256    1.110   .     S
C253   H1443   1.109   1_554 S
H255   C847    1.109   .     S
O257   C258    1.412   .     S
C258   H260    1.114   .     S
C258   C261    1.521   .     S
C258   H259    1.112   .     S
C261   H264    1.111   .     S
C261   H262    1.111   .     S
C261   H329    1.111   .     S
H263   C393    1.111   1_455 S
C265   O289    1.281   .     A
C265   C276    1.408   .     S
C265   O291    1.280   .     A
C266   O292    1.280   .     A
C266   O290    1.281   .     A
C266   C275    1.410   .     S
C267   O295    1.280   .     A
C267   O293    1.274   .     A
C267   C269    1.408   .     S
C268   O296    1.282   .     A
C268   C270    1.400   .     S
C268   O294    1.271   .     A
C270   C335    1.344   .     S
C270   O373    1.390   .     S
C271   C276    1.393   .     A
C271   H281    1.083   .     S
C272   C275    1.395   .     A
C272   H282    1.085   .     S
C272   C472    1.375   .     S
C273   O315    1.384   .     S
C273   C275    1.400   .     A
C273   C469    1.377   .     S
C274   O323    1.384   .     S
C274   C276    1.402   .     A
C277   N288    1.367   .     A
C277   H283    1.082   .     S
C277   C1467   1.417   1_554 S
C278   N287    1.366   .     A
C278   H284    1.082   .     S
C278   C874    1.417   .     S
C279   N287    1.367   .     A
C279   H285    1.082   .     S
C279   C871    1.417   .     S
C280   N288    1.367   .     A
C280   H286    1.082   .     S
C280   C1466   1.417   1_554 S
N287   Zn297   2.011   .     S
N288   Zn298   2.011   .     S
O289   Zn297   1.989   .     S
O290   Zn298   1.989   .     S
O291   Zn298   1.985   .     S
O292   Zn297   1.985   .     S
O293   Zn297   1.981   .     S
O294   Zn298   1.981   .     S
O295   Zn298   1.980   .     S
O296   Zn297   1.980   .     S
O299   C335    1.397   .     S
O299   C366    1.414   .     S
C300   H302    1.110   .     S
C300   H301    1.116   .     S
C303   H305    1.111   .     S
C303   H304    1.111   .     S
C303   H306    1.111   .     S
C303   C366    1.521   .     S
O307   C308    1.415   .     S
C308   C311    1.519   .     S
C308   H310    1.116   .     S
H309   C374    1.114   .     S
C311   H313    1.110   .     S
C311   H314    1.110   .     S
C311   H312    1.110   .     S
O315   C316    1.412   .     S
C316   C319    1.519   .     S
C316   H318    1.112   .     S
C316   H317    1.116   .     S
C319   H320    1.110   .     S
C319   H322    1.110   .     S
C319   H1509   1.109   1_554 S
H321   C913    1.109   .     S
O323   C324    1.412   .     S
C324   H326    1.114   .     S
C324   C327    1.521   .     S
C324   H325    1.112   .     S
C327   H330    1.111   .     S
C327   H328    1.111   .     S
C327   H395    1.111   .     S
C331   O355    1.281   .     A
C331   C342    1.408   .     S
C331   O357    1.280   .     A
C332   O358    1.280   .     A
C332   O356    1.281   .     A
C332   C341    1.410   .     S
C333   O361    1.280   .     A
C333   O359    1.274   .     A
C333   C335    1.408   .     S
C334   O362    1.282   .     A
C334   C336    1.400   .     S
C334   O360    1.271   .     A
C336   C203    1.344   1_655 S
C336   O241    1.390   1_655 S
C337   C342    1.393   .     A
C337   H347    1.083   .     S
C338   C341    1.395   .     A
C338   H348    1.085   .     S
C338   C538    1.375   .     S
C339   O381    1.384   .     S
C339   C341    1.400   .     A
C339   C535    1.377   .     S
C340   O389    1.384   .     S
C340   C342    1.402   .     A
C343   N354    1.367   .     A
C343   H349    1.082   .     S
C343   C1533   1.417   1_554 S
C344   N353    1.366   .     A
C344   H350    1.082   .     S
C344   C940    1.417   .     S
C345   N353    1.367   .     A
C345   H351    1.082   .     S
C345   C937    1.417   .     S
C346   N354    1.367   .     A
C346   H352    1.082   .     S
C346   C1532   1.417   1_554 S
N353   Zn363   2.011   .     S
N354   Zn364   2.011   .     S
O355   Zn363   1.989   .     S
O356   Zn364   1.989   .     S
O357   Zn364   1.985   .     S
O358   Zn363   1.985   .     S
O359   Zn363   1.981   .     S
O360   Zn364   1.981   .     S
O361   Zn364   1.980   .     S
O362   Zn363   1.980   .     S
O365   C203    1.397   1_655 S
O365   C234    1.414   1_655 S
C366   H368    1.110   .     S
C366   H367    1.116   .     S
C369   H371    1.111   .     S
C369   H370    1.111   .     S
C369   H372    1.111   .     S
C369   C234    1.521   1_655 S
O373   C374    1.415   .     S
C374   C377    1.519   .     S
C374   H376    1.116   .     S
H375   C242    1.114   1_655 S
C377   H379    1.110   .     S
C377   H380    1.110   .     S
C377   H378    1.110   .     S
O381   C382    1.412   .     S
C382   C385    1.519   .     S
C382   H384    1.112   .     S
C382   H383    1.116   .     S
C385   H386    1.110   .     S
C385   H388    1.110   .     S
C385   H1575   1.109   1_554 S
H387   C979    1.109   .     S
O389   C390    1.412   .     S
C390   H392    1.114   .     S
C390   C393    1.521   .     S
C390   H391    1.112   .     S
C393   H396    1.111   .     S
C393   H394    1.111   .     S
C393   H263    1.111   1_655 S
C397   O421    1.281   .     A
C397   C408    1.408   .     S
C397   O423    1.280   .     A
C398   O424    1.280   .     A
C398   O422    1.281   .     A
C398   C407    1.410   .     S
C399   O427    1.280   .     A
C399   O425    1.274   .     A
C399   C401    1.408   .     S
C400   O428    1.282   .     A
C400   C402    1.400   .     S
C400   O426    1.271   .     A
C401   C534    1.344   1_455 S
C401   O563    1.397   1_455 S
C402   C467    1.344   .     S
C402   O505    1.390   .     S
C403   C408    1.393   .     A
C403   H413    1.083   .     S
C404   C407    1.395   .     A
C404   H414    1.085   .     S
C404   C10     1.375   1_565 S
C405   O447    1.384   .     S
C405   C407    1.400   .     A
C405   C7      1.377   1_565 S
C406   O455    1.384   .     S
C406   C408    1.402   .     A
C409   N420    1.367   .     A
C409   H415    1.082   .     S
C409   C1599   1.417   1_554 S
C410   N419    1.366   .     A
C410   H416    1.082   .     S
C410   C1006   1.417   .     S
C411   N419    1.367   .     A
C411   H417    1.082   .     S
C411   C1003   1.417   .     S
C412   N420    1.367   .     A
C412   H418    1.082   .     S
C412   C1598   1.417   1_554 S
N419   Zn429   2.011   .     S
N420   Zn430   2.011   .     S
O421   Zn429   1.989   .     S
O422   Zn430   1.989   .     S
O423   Zn430   1.985   .     S
O424   Zn429   1.985   .     S
O425   Zn429   1.981   .     S
O426   Zn430   1.981   .     S
O427   Zn430   1.980   .     S
O428   Zn429   1.980   .     S
O431   C467    1.397   .     S
O431   C498    1.414   .     S
C432   H434    1.110   .     S
C432   H433    1.116   .     S
C432   O563    1.414   1_455 S
C432   C567    1.521   1_455 S
C435   H437    1.111   .     S
C435   H436    1.111   .     S
C435   H438    1.111   .     S
C435   C498    1.521   .     S
O439   C440    1.415   .     S
O439   C534    1.390   1_455 S
C440   C443    1.519   .     S
C440   H442    1.116   .     S
C440   H573    1.114   1_455 S
H441   C506    1.114   .     S
C443   H445    1.110   .     S
C443   H446    1.110   .     S
C443   H444    1.110   .     S
O447   C448    1.412   .     S
C448   C451    1.519   .     S
C448   H450    1.112   .     S
C448   H449    1.116   .     S
C451   H452    1.110   .     S
C451   H454    1.110   .     S
C451   H1641   1.109   1_554 S
H453   C1045   1.109   .     S
O455   C456    1.412   .     S
C456   H458    1.114   .     S
C456   C459    1.521   .     S
C456   H457    1.112   .     S
C459   H462    1.111   .     S
C459   H460    1.111   .     S
C459   H527    1.111   .     S
H461   C591    1.111   1_455 S
C463   O487    1.281   .     A
C463   C474    1.408   .     S
C463   O489    1.280   .     A
C464   O490    1.280   .     A
C464   O488    1.281   .     A
C464   C473    1.410   .     S
C465   O493    1.280   .     A
C465   O491    1.274   .     A
C465   C467    1.408   .     S
C466   O494    1.282   .     A
C466   C468    1.400   .     S
C466   O492    1.271   .     A
C468   C533    1.344   .     S
C468   O571    1.390   .     S
C469   C474    1.393   .     A
C469   H479    1.083   .     S
C470   C473    1.395   .     A
C470   H480    1.085   .     S
C470   C76     1.375   1_565 S
C471   O513    1.384   .     S
C471   C473    1.400   .     A
C471   C73     1.377   1_565 S
C472   O521    1.384   .     S
C472   C474    1.402   .     A
C475   N486    1.367   .     A
C475   H481    1.082   .     S
C475   C1665   1.417   1_554 S
C476   N485    1.366   .     A
C476   H482    1.082   .     S
C476   C1072   1.417   .     S
C477   N485    1.367   .     A
C477   H483    1.082   .     S
C477   C1069   1.417   .     S
C478   N486    1.367   .     A
C478   H484    1.082   .     S
C478   C1664   1.417   1_554 S
N485   Zn495   2.011   .     S
N486   Zn496   2.011   .     S
O487   Zn495   1.989   .     S
O488   Zn496   1.989   .     S
O489   Zn496   1.985   .     S
O490   Zn495   1.985   .     S
O491   Zn495   1.981   .     S
O492   Zn496   1.981   .     S
O493   Zn496   1.980   .     S
O494   Zn495   1.980   .     S
O497   C533    1.397   .     S
O497   C564    1.414   .     S
C498   H500    1.110   .     S
C498   H499    1.116   .     S
C501   H503    1.111   .     S
C501   H502    1.111   .     S
C501   H504    1.111   .     S
C501   C564    1.521   .     S
O505   C506    1.415   .     S
C506   C509    1.519   .     S
C506   H508    1.116   .     S
H507   C572    1.114   .     S
C509   H511    1.110   .     S
C509   H512    1.110   .     S
C509   H510    1.110   .     S
O513   C514    1.412   .     S
C514   C517    1.519   .     S
C514   H516    1.112   .     S
C514   H515    1.116   .     S
C517   H518    1.110   .     S
C517   H520    1.110   .     S
C517   H1707   1.109   1_554 S
H519   C1111   1.109   .     S
O521   C522    1.412   .     S
C522   H524    1.114   .     S
C522   C525    1.521   .     S
C522   H523    1.112   .     S
C525   H528    1.111   .     S
C525   H526    1.111   .     S
C525   H593    1.111   .     S
C529   O553    1.281   .     A
C529   C540    1.408   .     S
C529   O555    1.280   .     A
C530   O556    1.280   .     A
C530   O554    1.281   .     A
C530   C539    1.410   .     S
C531   O559    1.280   .     A
C531   O557    1.274   .     A
C531   C533    1.408   .     S
C532   O560    1.282   .     A
C532   C534    1.400   .     S
C532   O558    1.271   .     A
C534   C401    1.344   1_655 S
C534   O439    1.390   1_655 S
C535   C540    1.393   .     A
C535   H545    1.083   .     S
C536   C539    1.395   .     A
C536   H546    1.085   .     S
C536   C142    1.375   1_565 S
C537   O579    1.384   .     S
C537   C539    1.400   .     A
C537   C139    1.377   1_565 S
C538   O587    1.384   .     S
C538   C540    1.402   .     A
C541   N552    1.367   .     A
C541   H547    1.082   .     S
C541   C1731   1.417   1_554 S
C542   N551    1.366   .     A
C542   H548    1.082   .     S
C542   C1138   1.417   .     S
C543   N551    1.367   .     A
C543   H549    1.082   .     S
C543   C1135   1.417   .     S
C544   N552    1.367   .     A
C544   H550    1.082   .     S
C544   C1730   1.417   1_554 S
N551   Zn561   2.011   .     S
N552   Zn562   2.011   .     S
O553   Zn561   1.989   .     S
O554   Zn562   1.989   .     S
O555   Zn562   1.985   .     S
O556   Zn561   1.985   .     S
O557   Zn561   1.981   .     S
O558   Zn562   1.981   .     S
O559   Zn562   1.980   .     S
O560   Zn561   1.980   .     S
O563   C401    1.397   1_655 S
O563   C432    1.414   1_655 S
C564   H566    1.110   .     S
C564   H565    1.116   .     S
C567   H569    1.111   .     S
C567   H568    1.111   .     S
C567   H570    1.111   .     S
C567   C432    1.521   1_655 S
O571   C572    1.415   .     S
C572   C575    1.519   .     S
C572   H574    1.116   .     S
H573   C440    1.114   1_655 S
C575   H577    1.110   .     S
C575   H578    1.110   .     S
C575   H576    1.110   .     S
O579   C580    1.412   .     S
C580   C583    1.519   .     S
C580   H582    1.112   .     S
C580   H581    1.116   .     S
C583   H584    1.110   .     S
C583   H586    1.110   .     S
C583   H1773   1.109   1_554 S
H585   C1177   1.109   .     S
O587   C588    1.412   .     S
C588   H590    1.114   .     S
C588   C591    1.521   .     S
C588   H589    1.112   .     S
C591   H594    1.111   .     S
C591   H592    1.111   .     S
C591   H461    1.111   1_655 S
C595   O619    1.281   .     A
C595   C606    1.408   .     S
C595   O621    1.280   .     A
C596   O622    1.280   .     A
C596   O620    1.281   .     A
C596   C605    1.410   .     S
C597   O625    1.280   .     A
C597   O623    1.274   .     A
C597   C599    1.408   .     S
C598   O626    1.282   .     A
C598   C600    1.400   .     S
C598   O624    1.271   .     A
C599   C732    1.344   1_455 S
C599   O761    1.397   1_455 S
C600   C665    1.344   .     S
C600   O703    1.390   .     S
C601   C606    1.393   .     A
C601   H611    1.083   .     S
C601   C999    1.377   1_545 S
C602   C605    1.395   .     A
C602   H612    1.085   .     S
C602   C802    1.375   .     S
C603   O645    1.384   .     S
C603   C605    1.400   .     A
C603   C799    1.377   .     S
C604   O653    1.384   .     S
C604   C606    1.402   .     A
C604   C998    1.375   1_545 S
C607   N618    1.367   .     A
C607   H613    1.082   .     S
C608   N617    1.366   .     A
C608   H614    1.082   .     S
C608   C1204   1.417   .     S
C609   N617    1.367   .     A
C609   H615    1.082   .     S
C609   C1201   1.417   .     S
C610   N618    1.367   .     A
C610   H616    1.082   .     S
N617   Zn627   2.011   .     S
N618   Zn628   2.011   .     S
O619   Zn627   1.989   .     S
O620   Zn628   1.989   .     S
O621   Zn628   1.985   .     S
O622   Zn627   1.985   .     S
O623   Zn627   1.981   .     S
O624   Zn628   1.981   .     S
O625   Zn628   1.980   .     S
O626   Zn627   1.980   .     S
O629   C665    1.397   .     S
O629   C696    1.414   .     S
C630   H632    1.110   .     S
C630   H631    1.116   .     S
C630   O761    1.414   1_455 S
C630   C765    1.521   1_455 S
C633   H635    1.111   .     S
C633   H634    1.111   .     S
C633   H636    1.111   .     S
C633   C696    1.521   .     S
O637   C638    1.415   .     S
O637   C732    1.390   1_455 S
C638   C641    1.519   .     S
C638   H640    1.116   .     S
C638   H771    1.114   1_455 S
H639   C704    1.114   .     S
C641   H643    1.110   .     S
C641   H644    1.110   .     S
C641   H642    1.110   .     S
O645   C646    1.412   .     S
C646   C649    1.519   .     S
C646   H648    1.112   .     S
C646   H647    1.116   .     S
C649   H650    1.110   .     S
C649   H652    1.110   .     S
H651   C1243   1.109   .     S
O653   C654    1.412   .     S
C654   H656    1.114   .     S
C654   C657    1.521   .     S
C654   H655    1.112   .     S
C657   H660    1.111   .     S
C657   H658    1.111   .     S
C657   H725    1.111   .     S
H659   C789    1.111   1_455 S
C661   O685    1.281   .     A
C661   C672    1.408   .     S
C661   O687    1.280   .     A
C662   O688    1.280   .     A
C662   O686    1.281   .     A
C662   C671    1.410   .     S
C663   O691    1.280   .     A
C663   O689    1.274   .     A
C663   C665    1.408   .     S
C664   O692    1.282   .     A
C664   C666    1.400   .     S
C664   O690    1.271   .     A
C666   C731    1.344   .     S
C666   O769    1.390   .     S
C667   C672    1.393   .     A
C667   H677    1.083   .     S
C667   C1065   1.377   1_545 S
C668   C671    1.395   .     A
C668   H678    1.085   .     S
C668   C868    1.375   .     S
C669   O711    1.384   .     S
C669   C671    1.400   .     A
C669   C865    1.377   .     S
C670   O719    1.384   .     S
C670   C672    1.402   .     A
C670   C1064   1.375   1_545 S
C673   N684    1.367   .     A
C673   H679    1.082   .     S
C674   N683    1.366   .     A
C674   H680    1.082   .     S
C674   C1270   1.417   .     S
C675   N683    1.367   .     A
C675   H681    1.082   .     S
C675   C1267   1.417   .     S
C676   N684    1.367   .     A
C676   H682    1.082   .     S
N683   Zn693   2.011   .     S
N684   Zn694   2.011   .     S
O685   Zn693   1.989   .     S
O686   Zn694   1.989   .     S
O687   Zn694   1.985   .     S
O688   Zn693   1.985   .     S
O689   Zn693   1.981   .     S
O690   Zn694   1.981   .     S
O691   Zn694   1.980   .     S
O692   Zn693   1.980   .     S
O695   C731    1.397   .     S
O695   C762    1.414   .     S
C696   H698    1.110   .     S
C696   H697    1.116   .     S
C699   H701    1.111   .     S
C699   H700    1.111   .     S
C699   H702    1.111   .     S
C699   C762    1.521   .     S
O703   C704    1.415   .     S
C704   C707    1.519   .     S
C704   H706    1.116   .     S
H705   C770    1.114   .     S
C707   H709    1.110   .     S
C707   H710    1.110   .     S
C707   H708    1.110   .     S
O711   C712    1.412   .     S
C712   C715    1.519   .     S
C712   H714    1.112   .     S
C712   H713    1.116   .     S
C715   H716    1.110   .     S
C715   H718    1.110   .     S
H717   C1309   1.109   .     S
O719   C720    1.412   .     S
C720   H722    1.114   .     S
C720   C723    1.521   .     S
C720   H721    1.112   .     S
C723   H726    1.111   .     S
C723   H724    1.111   .     S
C723   H791    1.111   .     S
C727   O751    1.281   .     A
C727   C738    1.408   .     S
C727   O753    1.280   .     A
C728   O754    1.280   .     A
C728   O752    1.281   .     A
C728   C737    1.410   .     S
C729   O757    1.280   .     A
C729   O755    1.274   .     A
C729   C731    1.408   .     S
C730   O758    1.282   .     A
C730   C732    1.400   .     S
C730   O756    1.271   .     A
C732   C599    1.344   1_655 S
C732   O637    1.390   1_655 S
C733   C738    1.393   .     A
C733   H743    1.083   .     S
C733   C1131   1.377   1_545 S
C734   C737    1.395   .     A
C734   H744    1.085   .     S
C734   C934    1.375   .     S
C735   O777    1.384   .     S
C735   C737    1.400   .     A
C735   C931    1.377   .     S
C736   O785    1.384   .     S
C736   C738    1.402   .     A
C736   C1130   1.375   1_545 S
C739   N750    1.367   .     A
C739   H745    1.082   .     S
C740   N749    1.366   .     A
C740   H746    1.082   .     S
C740   C1336   1.417   .     S
C741   N749    1.367   .     A
C741   H747    1.082   .     S
C741   C1333   1.417   .     S
C742   N750    1.367   .     A
C742   H748    1.082   .     S
N749   Zn759   2.011   .     S
N750   Zn760   2.011   .     S
O751   Zn759   1.989   .     S
O752   Zn760   1.989   .     S
O753   Zn760   1.985   .     S
O754   Zn759   1.985   .     S
O755   Zn759   1.981   .     S
O756   Zn760   1.981   .     S
O757   Zn760   1.980   .     S
O758   Zn759   1.980   .     S
O761   C599    1.397   1_655 S
O761   C630    1.414   1_655 S
C762   H764    1.110   .     S
C762   H763    1.116   .     S
C765   H767    1.111   .     S
C765   H766    1.111   .     S
C765   H768    1.111   .     S
C765   C630    1.521   1_655 S
O769   C770    1.415   .     S
C770   C773    1.519   .     S
C770   H772    1.116   .     S
H771   C638    1.114   1_655 S
C773   H775    1.110   .     S
C773   H776    1.110   .     S
C773   H774    1.110   .     S
O777   C778    1.412   .     S
C778   C781    1.519   .     S
C778   H780    1.112   .     S
C778   H779    1.116   .     S
C781   H782    1.110   .     S
C781   H784    1.110   .     S
H783   C1375   1.109   .     S
O785   C786    1.412   .     S
C786   H788    1.114   .     S
C786   C789    1.521   .     S
C786   H787    1.112   .     S
C789   H792    1.111   .     S
C789   H790    1.111   .     S
C789   H659    1.111   1_655 S
C793   O817    1.281   .     A
C793   C804    1.408   .     S
C793   O819    1.280   .     A
C794   O820    1.280   .     A
C794   O818    1.281   .     A
C794   C803    1.410   .     S
C795   O823    1.280   .     A
C795   O821    1.274   .     A
C795   C797    1.408   .     S
C796   O824    1.282   .     A
C796   C798    1.400   .     S
C796   O822    1.271   .     A
C797   C930    1.344   1_455 S
C797   O959    1.397   1_455 S
C798   C863    1.344   .     S
C798   O901    1.390   .     S
C799   C804    1.393   .     A
C799   H809    1.083   .     S
C800   C803    1.395   .     A
C800   H810    1.085   .     S
C800   C1000   1.375   .     S
C801   O843    1.384   .     S
C801   C803    1.400   .     A
C801   C997    1.377   .     S
C802   O851    1.384   .     S
C802   C804    1.402   .     A
C805   N816    1.367   .     A
C805   H811    1.082   .     S
C806   N815    1.366   .     A
C806   H812    1.082   .     S
C806   C1402   1.417   .     S
C807   N815    1.367   .     A
C807   H813    1.082   .     S
C807   C1399   1.417   .     S
C808   N816    1.367   .     A
C808   H814    1.082   .     S
N815   Zn825   2.011   .     S
N816   Zn826   2.011   .     S
O817   Zn825   1.989   .     S
O818   Zn826   1.989   .     S
O819   Zn826   1.985   .     S
O820   Zn825   1.985   .     S
O821   Zn825   1.981   .     S
O822   Zn826   1.981   .     S
O823   Zn826   1.980   .     S
O824   Zn825   1.980   .     S
O827   C863    1.397   .     S
O827   C894    1.414   .     S
C828   H830    1.110   .     S
C828   H829    1.116   .     S
C828   O959    1.414   1_455 S
C828   C963    1.521   1_455 S
C831   H833    1.111   .     S
C831   H832    1.111   .     S
C831   H834    1.111   .     S
C831   C894    1.521   .     S
O835   C836    1.415   .     S
O835   C930    1.390   1_455 S
C836   C839    1.519   .     S
C836   H838    1.116   .     S
C836   H969    1.114   1_455 S
H837   C902    1.114   .     S
C839   H841    1.110   .     S
C839   H842    1.110   .     S
C839   H840    1.110   .     S
O843   C844    1.412   .     S
C844   C847    1.519   .     S
C844   H846    1.112   .     S
C844   H845    1.116   .     S
C847   H848    1.110   .     S
C847   H850    1.110   .     S
H849   C1441   1.109   .     S
O851   C852    1.412   .     S
C852   H854    1.114   .     S
C852   C855    1.521   .     S
C852   H853    1.112   .     S
C855   H858    1.111   .     S
C855   H856    1.111   .     S
C855   H923    1.111   .     S
H857   C987    1.111   1_455 S
C859   O883    1.281   .     A
C859   C870    1.408   .     S
C859   O885    1.280   .     A
C860   O886    1.280   .     A
C860   O884    1.281   .     A
C860   C869    1.410   .     S
C861   O889    1.280   .     A
C861   O887    1.274   .     A
C861   C863    1.408   .     S
C862   O890    1.282   .     A
C862   C864    1.400   .     S
C862   O888    1.271   .     A
C864   C929    1.344   .     S
C864   O967    1.390   .     S
C865   C870    1.393   .     A
C865   H875    1.083   .     S
C866   C869    1.395   .     A
C866   H876    1.085   .     S
C866   C1066   1.375   .     S
C867   O909    1.384   .     S
C867   C869    1.400   .     A
C867   C1063   1.377   .     S
C868   O917    1.384   .     S
C868   C870    1.402   .     A
C871   N882    1.367   .     A
C871   H877    1.082   .     S
C872   N881    1.366   .     A
C872   H878    1.082   .     S
C872   C1468   1.417   .     S
C873   N881    1.367   .     A
C873   H879    1.082   .     S
C873   C1465   1.417   .     S
C874   N882    1.367   .     A
C874   H880    1.082   .     S
N881   Zn891   2.011   .     S
N882   Zn892   2.011   .     S
O883   Zn891   1.989   .     S
O884   Zn892   1.989   .     S
O885   Zn892   1.985   .     S
O886   Zn891   1.985   .     S
O887   Zn891   1.981   .     S
O888   Zn892   1.981   .     S
O889   Zn892   1.980   .     S
O890   Zn891   1.980   .     S
O893   C929    1.397   .     S
O893   C960    1.414   .     S
C894   H896    1.110   .     S
C894   H895    1.116   .     S
C897   H899    1.111   .     S
C897   H898    1.111   .     S
C897   H900    1.111   .     S
C897   C960    1.521   .     S
O901   C902    1.415   .     S
C902   C905    1.519   .     S
C902   H904    1.116   .     S
H903   C968    1.114   .     S
C905   H907    1.110   .     S
C905   H908    1.110   .     S
C905   H906    1.110   .     S
O909   C910    1.412   .     S
C910   C913    1.519   .     S
C910   H912    1.112   .     S
C910   H911    1.116   .     S
C913   H914    1.110   .     S
C913   H916    1.110   .     S
H915   C1507   1.109   .     S
O917   C918    1.412   .     S
C918   H920    1.114   .     S
C918   C921    1.521   .     S
C918   H919    1.112   .     S
C921   H924    1.111   .     S
C921   H922    1.111   .     S
C921   H989    1.111   .     S
C925   O949    1.281   .     A
C925   C936    1.408   .     S
C925   O951    1.280   .     A
C926   O952    1.280   .     A
C926   O950    1.281   .     A
C926   C935    1.410   .     S
C927   O955    1.280   .     A
C927   O953    1.274   .     A
C927   C929    1.408   .     S
C928   O956    1.282   .     A
C928   C930    1.400   .     S
C928   O954    1.271   .     A
C930   C797    1.344   1_655 S
C930   O835    1.390   1_655 S
C931   C936    1.393   .     A
C931   H941    1.083   .     S
C932   C935    1.395   .     A
C932   H942    1.085   .     S
C932   C1132   1.375   .     S
C933   O975    1.384   .     S
C933   C935    1.400   .     A
C933   C1129   1.377   .     S
C934   O983    1.384   .     S
C934   C936    1.402   .     A
C937   N948    1.367   .     A
C937   H943    1.082   .     S
C938   N947    1.366   .     A
C938   H944    1.082   .     S
C938   C1534   1.417   .     S
C939   N947    1.367   .     A
C939   H945    1.082   .     S
C939   C1531   1.417   .     S
C940   N948    1.367   .     A
C940   H946    1.082   .     S
N947   Zn957   2.011   .     S
N948   Zn958   2.011   .     S
O949   Zn957   1.989   .     S
O950   Zn958   1.989   .     S
O951   Zn958   1.985   .     S
O952   Zn957   1.985   .     S
O953   Zn957   1.981   .     S
O954   Zn958   1.981   .     S
O955   Zn958   1.980   .     S
O956   Zn957   1.980   .     S
O959   C797    1.397   1_655 S
O959   C828    1.414   1_655 S
C960   H962    1.110   .     S
C960   H961    1.116   .     S
C963   H965    1.111   .     S
C963   H964    1.111   .     S
C963   H966    1.111   .     S
C963   C828    1.521   1_655 S
O967   C968    1.415   .     S
C968   C971    1.519   .     S
C968   H970    1.116   .     S
H969   C836    1.114   1_655 S
C971   H973    1.110   .     S
C971   H974    1.110   .     S
C971   H972    1.110   .     S
O975   C976    1.412   .     S
C976   C979    1.519   .     S
C976   H978    1.112   .     S
C976   H977    1.116   .     S
C979   H980    1.110   .     S
C979   H982    1.110   .     S
H981   C1573   1.109   .     S
O983   C984    1.412   .     S
C984   H986    1.114   .     S
C984   C987    1.521   .     S
C984   H985    1.112   .     S
C987   H990    1.111   .     S
C987   H988    1.111   .     S
C987   H857    1.111   1_655 S
C991   O1015   1.281   .     A
C991   C1002   1.408   .     S
C991   O1017   1.280   .     A
C992   O1018   1.280   .     A
C992   O1016   1.281   .     A
C992   C1001   1.410   .     S
C993   O1021   1.280   .     A
C993   O1019   1.274   .     A
C993   C995    1.408   .     S
C994   O1022   1.282   .     A
C994   C996    1.400   .     S
C994   O1020   1.271   .     A
C995   C1128   1.344   1_455 S
C995   O1157   1.397   1_455 S
C996   C1061   1.344   .     S
C996   O1099   1.390   .     S
C997   C1002   1.393   .     A
C997   H1007   1.083   .     S
C998   C1001   1.395   .     A
C998   H1008   1.085   .     S
C998   C604    1.375   1_565 S
C999   O1041   1.384   .     S
C999   C1001   1.400   .     A
C999   C601    1.377   1_565 S
C1000  O1049   1.384   .     S
C1000  C1002   1.402   .     A
C1003  N1014   1.367   .     A
C1003  H1009   1.082   .     S
C1004  N1013   1.366   .     A
C1004  H1010   1.082   .     S
C1004  C1600   1.417   .     S
C1005  N1013   1.367   .     A
C1005  H1011   1.082   .     S
C1005  C1597   1.417   .     S
C1006  N1014   1.367   .     A
C1006  H1012   1.082   .     S
N1013  Zn1023  2.011   .     S
N1014  Zn1024  2.011   .     S
O1015  Zn1023  1.989   .     S
O1016  Zn1024  1.989   .     S
O1017  Zn1024  1.985   .     S
O1018  Zn1023  1.985   .     S
O1019  Zn1023  1.981   .     S
O1020  Zn1024  1.981   .     S
O1021  Zn1024  1.980   .     S
O1022  Zn1023  1.980   .     S
O1025  C1061   1.397   .     S
O1025  C1092   1.414   .     S
C1026  H1028   1.110   .     S
C1026  H1027   1.116   .     S
C1026  O1157   1.414   1_455 S
C1026  C1161   1.521   1_455 S
C1029  H1031   1.111   .     S
C1029  H1030   1.111   .     S
C1029  H1032   1.111   .     S
C1029  C1092   1.521   .     S
O1033  C1034   1.415   .     S
O1033  C1128   1.390   1_455 S
C1034  C1037   1.519   .     S
C1034  H1036   1.116   .     S
C1034  H1167   1.114   1_455 S
H1035  C1100   1.114   .     S
C1037  H1039   1.110   .     S
C1037  H1040   1.110   .     S
C1037  H1038   1.110   .     S
O1041  C1042   1.412   .     S
C1042  C1045   1.519   .     S
C1042  H1044   1.112   .     S
C1042  H1043   1.116   .     S
C1045  H1046   1.110   .     S
C1045  H1048   1.110   .     S
H1047  C1639   1.109   .     S
O1049  C1050   1.412   .     S
C1050  H1052   1.114   .     S
C1050  C1053   1.521   .     S
C1050  H1051   1.112   .     S
C1053  H1056   1.111   .     S
C1053  H1054   1.111   .     S
C1053  H1121   1.111   .     S
H1055  C1185   1.111   1_455 S
C1057  O1081   1.281   .     A
C1057  C1068   1.408   .     S
C1057  O1083   1.280   .     A
C1058  O1084   1.280   .     A
C1058  O1082   1.281   .     A
C1058  C1067   1.410   .     S
C1059  O1087   1.280   .     A
C1059  O1085   1.274   .     A
C1059  C1061   1.408   .     S
C1060  O1088   1.282   .     A
C1060  C1062   1.400   .     S
C1060  O1086   1.271   .     A
C1062  C1127   1.344   .     S
C1062  O1165   1.390   .     S
C1063  C1068   1.393   .     A
C1063  H1073   1.083   .     S
C1064  C1067   1.395   .     A
C1064  H1074   1.085   .     S
C1064  C670    1.375   1_565 S
C1065  O1107   1.384   .     S
C1065  C1067   1.400   .     A
C1065  C667    1.377   1_565 S
C1066  O1115   1.384   .     S
C1066  C1068   1.402   .     A
C1069  N1080   1.367   .     A
C1069  H1075   1.082   .     S
C1070  N1079   1.366   .     A
C1070  H1076   1.082   .     S
C1070  C1666   1.417   .     S
C1071  N1079   1.367   .     A
C1071  H1077   1.082   .     S
C1071  C1663   1.417   .     S
C1072  N1080   1.367   .     A
C1072  H1078   1.082   .     S
N1079  Zn1089  2.011   .     S
N1080  Zn1090  2.011   .     S
O1081  Zn1089  1.989   .     S
O1082  Zn1090  1.989   .     S
O1083  Zn1090  1.985   .     S
O1084  Zn1089  1.985   .     S
O1085  Zn1089  1.981   .     S
O1086  Zn1090  1.981   .     S
O1087  Zn1090  1.980   .     S
O1088  Zn1089  1.980   .     S
O1091  C1127   1.397   .     S
O1091  C1158   1.414   .     S
C1092  H1094   1.110   .     S
C1092  H1093   1.116   .     S
C1095  H1097   1.111   .     S
C1095  H1096   1.111   .     S
C1095  H1098   1.111   .     S
C1095  C1158   1.521   .     S
O1099  C1100   1.415   .     S
C1100  C1103   1.519   .     S
C1100  H1102   1.116   .     S
H1101  C1166   1.114   .     S
C1103  H1105   1.110   .     S
C1103  H1106   1.110   .     S
C1103  H1104   1.110   .     S
O1107  C1108   1.412   .     S
C1108  C1111   1.519   .     S
C1108  H1110   1.112   .     S
C1108  H1109   1.116   .     S
C1111  H1112   1.110   .     S
C1111  H1114   1.110   .     S
H1113  C1705   1.109   .     S
O1115  C1116   1.412   .     S
C1116  H1118   1.114   .     S
C1116  C1119   1.521   .     S
C1116  H1117   1.112   .     S
C1119  H1122   1.111   .     S
C1119  H1120   1.111   .     S
C1119  H1187   1.111   .     S
C1123  O1147   1.281   .     A
C1123  C1134   1.408   .     S
C1123  O1149   1.280   .     A
C1124  O1150   1.280   .     A
C1124  O1148   1.281   .     A
C1124  C1133   1.410   .     S
C1125  O1153   1.280   .     A
C1125  O1151   1.274   .     A
C1125  C1127   1.408   .     S
C1126  O1154   1.282   .     A
C1126  C1128   1.400   .     S
C1126  O1152   1.271   .     A
C1128  C995    1.344   1_655 S
C1128  O1033   1.390   1_655 S
C1129  C1134   1.393   .     A
C1129  H1139   1.083   .     S
C1130  C1133   1.395   .     A
C1130  H1140   1.085   .     S
C1130  C736    1.375   1_565 S
C1131  O1173   1.384   .     S
C1131  C1133   1.400   .     A
C1131  C733    1.377   1_565 S
C1132  O1181   1.384   .     S
C1132  C1134   1.402   .     A
C1135  N1146   1.367   .     A
C1135  H1141   1.082   .     S
C1136  N1145   1.366   .     A
C1136  H1142   1.082   .     S
C1136  C1732   1.417   .     S
C1137  N1145   1.367   .     A
C1137  H1143   1.082   .     S
C1137  C1729   1.417   .     S
C1138  N1146   1.367   .     A
C1138  H1144   1.082   .     S
N1145  Zn1155  2.011   .     S
N1146  Zn1156  2.011   .     S
O1147  Zn1155  1.989   .     S
O1148  Zn1156  1.989   .     S
O1149  Zn1156  1.985   .     S
O1150  Zn1155  1.985   .     S
O1151  Zn1155  1.981   .     S
O1152  Zn1156  1.981   .     S
O1153  Zn1156  1.980   .     S
O1154  Zn1155  1.980   .     S
O1157  C995    1.397   1_655 S
O1157  C1026   1.414   1_655 S
C1158  H1160   1.110   .     S
C1158  H1159   1.116   .     S
C1161  H1163   1.111   .     S
C1161  H1162   1.111   .     S
C1161  H1164   1.111   .     S
C1161  C1026   1.521   1_655 S
O1165  C1166   1.415   .     S
C1166  C1169   1.519   .     S
C1166  H1168   1.116   .     S
H1167  C1034   1.114   1_655 S
C1169  H1171   1.110   .     S
C1169  H1172   1.110   .     S
C1169  H1170   1.110   .     S
O1173  C1174   1.412   .     S
C1174  C1177   1.519   .     S
C1174  H1176   1.112   .     S
C1174  H1175   1.116   .     S
C1177  H1178   1.110   .     S
C1177  H1180   1.110   .     S
H1179  C1771   1.109   .     S
O1181  C1182   1.412   .     S
C1182  H1184   1.114   .     S
C1182  C1185   1.521   .     S
C1182  H1183   1.112   .     S
C1185  H1188   1.111   .     S
C1185  H1186   1.111   .     S
C1185  H1055   1.111   1_655 S
C1189  O1213   1.281   .     A
C1189  C1200   1.408   .     S
C1189  O1215   1.280   .     A
C1190  O1216   1.280   .     A
C1190  O1214   1.281   .     A
C1190  C1199   1.410   .     S
C1191  O1219   1.280   .     A
C1191  O1217   1.274   .     A
C1191  C1193   1.408   .     S
C1192  O1220   1.282   .     A
C1192  C1194   1.400   .     S
C1192  O1218   1.271   .     A
C1193  C1326   1.344   1_455 S
C1193  O1355   1.397   1_455 S
C1194  C1259   1.344   .     S
C1194  O1297   1.390   .     S
C1195  C1200   1.393   .     A
C1195  H1205   1.083   .     S
C1195  C1593   1.377   1_545 S
C1196  C1199   1.395   .     A
C1196  H1206   1.085   .     S
C1196  C1396   1.375   .     S
C1197  O1239   1.384   .     S
C1197  C1199   1.400   .     A
C1197  C1393   1.377   .     S
C1198  O1247   1.384   .     S
C1198  C1200   1.402   .     A
C1198  C1592   1.375   1_545 S
C1201  N1212   1.367   .     A
C1201  H1207   1.082   .     S
C1202  N1211   1.366   .     A
C1202  H1208   1.082   .     S
C1202  C16     1.417   1_556 S
C1203  N1211   1.367   .     A
C1203  H1209   1.082   .     S
C1203  C13     1.417   1_556 S
C1204  N1212   1.367   .     A
C1204  H1210   1.082   .     S
N1211  Zn1221  2.011   .     S
N1212  Zn1222  2.011   .     S
O1213  Zn1221  1.989   .     S
O1214  Zn1222  1.989   .     S
O1215  Zn1222  1.985   .     S
O1216  Zn1221  1.985   .     S
O1217  Zn1221  1.981   .     S
O1218  Zn1222  1.981   .     S
O1219  Zn1222  1.980   .     S
O1220  Zn1221  1.980   .     S
O1223  C1259   1.397   .     S
O1223  C1290   1.414   .     S
C1224  H1226   1.110   .     S
C1224  H1225   1.116   .     S
C1224  O1355   1.414   1_455 S
C1224  C1359   1.521   1_455 S
C1227  H1229   1.111   .     S
C1227  H1228   1.111   .     S
C1227  H1230   1.111   .     S
C1227  C1290   1.521   .     S
O1231  C1232   1.415   .     S
O1231  C1326   1.390   1_455 S
C1232  C1235   1.519   .     S
C1232  H1234   1.116   .     S
C1232  H1365   1.114   1_455 S
H1233  C1298   1.114   .     S
C1235  H1237   1.110   .     S
C1235  H1238   1.110   .     S
C1235  H1236   1.110   .     S
O1239  C1240   1.412   .     S
C1240  C1243   1.519   .     S
C1240  H1242   1.112   .     S
C1240  H1241   1.116   .     S
C1243  H1244   1.110   .     S
C1243  H1246   1.110   .     S
H1245  C55     1.109   1_556 S
O1247  C1248   1.412   .     S
C1248  H1250   1.114   .     S
C1248  C1251   1.521   .     S
C1248  H1249   1.112   .     S
C1251  H1254   1.111   .     S
C1251  H1252   1.111   .     S
C1251  H1319   1.111   .     S
H1253  C1383   1.111   1_455 S
C1255  O1279   1.281   .     A
C1255  C1266   1.408   .     S
C1255  O1281   1.280   .     A
C1256  O1282   1.280   .     A
C1256  O1280   1.281   .     A
C1256  C1265   1.410   .     S
C1257  O1285   1.280   .     A
C1257  O1283   1.274   .     A
C1257  C1259   1.408   .     S
C1258  O1286   1.282   .     A
C1258  C1260   1.400   .     S
C1258  O1284   1.271   .     A
C1260  C1325   1.344   .     S
C1260  O1363   1.390   .     S
C1261  C1266   1.393   .     A
C1261  H1271   1.083   .     S
C1261  C1659   1.377   1_545 S
C1262  C1265   1.395   .     A
C1262  H1272   1.085   .     S
C1262  C1462   1.375   .     S
C1263  O1305   1.384   .     S
C1263  C1265   1.400   .     A
C1263  C1459   1.377   .     S
C1264  O1313   1.384   .     S
C1264  C1266   1.402   .     A
C1264  C1658   1.375   1_545 S
C1267  N1278   1.367   .     A
C1267  H1273   1.082   .     S
C1268  N1277   1.366   .     A
C1268  H1274   1.082   .     S
C1268  C82     1.417   1_556 S
C1269  N1277   1.367   .     A
C1269  H1275   1.082   .     S
C1269  C79     1.417   1_556 S
C1270  N1278   1.367   .     A
C1270  H1276   1.082   .     S
N1277  Zn1287  2.011   .     S
N1278  Zn1288  2.011   .     S
O1279  Zn1287  1.989   .     S
O1280  Zn1288  1.989   .     S
O1281  Zn1288  1.985   .     S
O1282  Zn1287  1.985   .     S
O1283  Zn1287  1.981   .     S
O1284  Zn1288  1.981   .     S
O1285  Zn1288  1.980   .     S
O1286  Zn1287  1.980   .     S
O1289  C1325   1.397   .     S
O1289  C1356   1.414   .     S
C1290  H1292   1.110   .     S
C1290  H1291   1.116   .     S
C1293  H1295   1.111   .     S
C1293  H1294   1.111   .     S
C1293  H1296   1.111   .     S
C1293  C1356   1.521   .     S
O1297  C1298   1.415   .     S
C1298  C1301   1.519   .     S
C1298  H1300   1.116   .     S
H1299  C1364   1.114   .     S
C1301  H1303   1.110   .     S
C1301  H1304   1.110   .     S
C1301  H1302   1.110   .     S
O1305  C1306   1.412   .     S
C1306  C1309   1.519   .     S
C1306  H1308   1.112   .     S
C1306  H1307   1.116   .     S
C1309  H1310   1.110   .     S
C1309  H1312   1.110   .     S
H1311  C121    1.109   1_556 S
O1313  C1314   1.412   .     S
C1314  H1316   1.114   .     S
C1314  C1317   1.521   .     S
C1314  H1315   1.112   .     S
C1317  H1320   1.111   .     S
C1317  H1318   1.111   .     S
C1317  H1385   1.111   .     S
C1321  O1345   1.281   .     A
C1321  C1332   1.408   .     S
C1321  O1347   1.280   .     A
C1322  O1348   1.280   .     A
C1322  O1346   1.281   .     A
C1322  C1331   1.410   .     S
C1323  O1351   1.280   .     A
C1323  O1349   1.274   .     A
C1323  C1325   1.408   .     S
C1324  O1352   1.282   .     A
C1324  C1326   1.400   .     S
C1324  O1350   1.271   .     A
C1326  C1193   1.344   1_655 S
C1326  O1231   1.390   1_655 S
C1327  C1332   1.393   .     A
C1327  H1337   1.083   .     S
C1327  C1725   1.377   1_545 S
C1328  C1331   1.395   .     A
C1328  H1338   1.085   .     S
C1328  C1528   1.375   .     S
C1329  O1371   1.384   .     S
C1329  C1331   1.400   .     A
C1329  C1525   1.377   .     S
C1330  O1379   1.384   .     S
C1330  C1332   1.402   .     A
C1330  C1724   1.375   1_545 S
C1333  N1344   1.367   .     A
C1333  H1339   1.082   .     S
C1334  N1343   1.366   .     A
C1334  H1340   1.082   .     S
C1334  C148    1.417   1_556 S
C1335  N1343   1.367   .     A
C1335  H1341   1.082   .     S
C1335  C145    1.417   1_556 S
C1336  N1344   1.367   .     A
C1336  H1342   1.082   .     S
N1343  Zn1353  2.011   .     S
N1344  Zn1354  2.011   .     S
O1345  Zn1353  1.989   .     S
O1346  Zn1354  1.989   .     S
O1347  Zn1354  1.985   .     S
O1348  Zn1353  1.985   .     S
O1349  Zn1353  1.981   .     S
O1350  Zn1354  1.981   .     S
O1351  Zn1354  1.980   .     S
O1352  Zn1353  1.980   .     S
O1355  C1193   1.397   1_655 S
O1355  C1224   1.414   1_655 S
C1356  H1358   1.110   .     S
C1356  H1357   1.116   .     S
C1359  H1361   1.111   .     S
C1359  H1360   1.111   .     S
C1359  H1362   1.111   .     S
C1359  C1224   1.521   1_655 S
O1363  C1364   1.415   .     S
C1364  C1367   1.519   .     S
C1364  H1366   1.116   .     S
H1365  C1232   1.114   1_655 S
C1367  H1369   1.110   .     S
C1367  H1370   1.110   .     S
C1367  H1368   1.110   .     S
O1371  C1372   1.412   .     S
C1372  C1375   1.519   .     S
C1372  H1374   1.112   .     S
C1372  H1373   1.116   .     S
C1375  H1376   1.110   .     S
C1375  H1378   1.110   .     S
H1377  C187    1.109   1_556 S
O1379  C1380   1.412   .     S
C1380  H1382   1.114   .     S
C1380  C1383   1.521   .     S
C1380  H1381   1.112   .     S
C1383  H1386   1.111   .     S
C1383  H1384   1.111   .     S
C1383  H1253   1.111   1_655 S
C1387  O1411   1.281   .     A
C1387  C1398   1.408   .     S
C1387  O1413   1.280   .     A
C1388  O1414   1.280   .     A
C1388  O1412   1.281   .     A
C1388  C1397   1.410   .     S
C1389  O1417   1.280   .     A
C1389  O1415   1.274   .     A
C1389  C1391   1.408   .     S
C1390  O1418   1.282   .     A
C1390  C1392   1.400   .     S
C1390  O1416   1.271   .     A
C1391  C1524   1.344   1_455 S
C1391  O1553   1.397   1_455 S
C1392  C1457   1.344   .     S
C1392  O1495   1.390   .     S
C1393  C1398   1.393   .     A
C1393  H1403   1.083   .     S
C1394  C1397   1.395   .     A
C1394  H1404   1.085   .     S
C1394  C1594   1.375   .     S
C1395  O1437   1.384   .     S
C1395  C1397   1.400   .     A
C1395  C1591   1.377   .     S
C1396  O1445   1.384   .     S
C1396  C1398   1.402   .     A
C1399  N1410   1.367   .     A
C1399  H1405   1.082   .     S
C1400  N1409   1.366   .     A
C1400  H1406   1.082   .     S
C1400  C214    1.417   1_556 S
C1401  N1409   1.367   .     A
C1401  H1407   1.082   .     S
C1401  C211    1.417   1_556 S
C1402  N1410   1.367   .     A
C1402  H1408   1.082   .     S
N1409  Zn1419  2.011   .     S
N1410  Zn1420  2.011   .     S
O1411  Zn1419  1.989   .     S
O1412  Zn1420  1.989   .     S
O1413  Zn1420  1.985   .     S
O1414  Zn1419  1.985   .     S
O1415  Zn1419  1.981   .     S
O1416  Zn1420  1.981   .     S
O1417  Zn1420  1.980   .     S
O1418  Zn1419  1.980   .     S
O1421  C1457   1.397   .     S
O1421  C1488   1.414   .     S
C1422  H1424   1.110   .     S
C1422  H1423   1.116   .     S
C1422  O1553   1.414   1_455 S
C1422  C1557   1.521   1_455 S
C1425  H1427   1.111   .     S
C1425  H1426   1.111   .     S
C1425  H1428   1.111   .     S
C1425  C1488   1.521   .     S
O1429  C1430   1.415   .     S
O1429  C1524   1.390   1_455 S
C1430  C1433   1.519   .     S
C1430  H1432   1.116   .     S
C1430  H1563   1.114   1_455 S
H1431  C1496   1.114   .     S
C1433  H1435   1.110   .     S
C1433  H1436   1.110   .     S
C1433  H1434   1.110   .     S
O1437  C1438   1.412   .     S
C1438  C1441   1.519   .     S
C1438  H1440   1.112   .     S
C1438  H1439   1.116   .     S
C1441  H1442   1.110   .     S
C1441  H1444   1.110   .     S
H1443  C253    1.109   1_556 S
O1445  C1446   1.412   .     S
C1446  H1448   1.114   .     S
C1446  C1449   1.521   .     S
C1446  H1447   1.112   .     S
C1449  H1452   1.111   .     S
C1449  H1450   1.111   .     S
C1449  H1517   1.111   .     S
H1451  C1581   1.111   1_455 S
C1453  O1477   1.281   .     A
C1453  C1464   1.408   .     S
C1453  O1479   1.280   .     A
C1454  O1480   1.280   .     A
C1454  O1478   1.281   .     A
C1454  C1463   1.410   .     S
C1455  O1483   1.280   .     A
C1455  O1481   1.274   .     A
C1455  C1457   1.408   .     S
C1456  O1484   1.282   .     A
C1456  C1458   1.400   .     S
C1456  O1482   1.271   .     A
C1458  C1523   1.344   .     S
C1458  O1561   1.390   .     S
C1459  C1464   1.393   .     A
C1459  H1469   1.083   .     S
C1460  C1463   1.395   .     A
C1460  H1470   1.085   .     S
C1460  C1660   1.375   .     S
C1461  O1503   1.384   .     S
C1461  C1463   1.400   .     A
C1461  C1657   1.377   .     S
C1462  O1511   1.384   .     S
C1462  C1464   1.402   .     A
C1465  N1476   1.367   .     A
C1465  H1471   1.082   .     S
C1466  N1475   1.366   .     A
C1466  H1472   1.082   .     S
C1466  C280    1.417   1_556 S
C1467  N1475   1.367   .     A
C1467  H1473   1.082   .     S
C1467  C277    1.417   1_556 S
C1468  N1476   1.367   .     A
C1468  H1474   1.082   .     S
N1475  Zn1485  2.011   .     S
N1476  Zn1486  2.011   .     S
O1477  Zn1485  1.989   .     S
O1478  Zn1486  1.989   .     S
O1479  Zn1486  1.985   .     S
O1480  Zn1485  1.985   .     S
O1481  Zn1485  1.981   .     S
O1482  Zn1486  1.981   .     S
O1483  Zn1486  1.980   .     S
O1484  Zn1485  1.980   .     S
O1487  C1523   1.397   .     S
O1487  C1554   1.414   .     S
C1488  H1490   1.110   .     S
C1488  H1489   1.116   .     S
C1491  H1493   1.111   .     S
C1491  H1492   1.111   .     S
C1491  H1494   1.111   .     S
C1491  C1554   1.521   .     S
O1495  C1496   1.415   .     S
C1496  C1499   1.519   .     S
C1496  H1498   1.116   .     S
H1497  C1562   1.114   .     S
C1499  H1501   1.110   .     S
C1499  H1502   1.110   .     S
C1499  H1500   1.110   .     S
O1503  C1504   1.412   .     S
C1504  C1507   1.519   .     S
C1504  H1506   1.112   .     S
C1504  H1505   1.116   .     S
C1507  H1508   1.110   .     S
C1507  H1510   1.110   .     S
H1509  C319    1.109   1_556 S
O1511  C1512   1.412   .     S
C1512  H1514   1.114   .     S
C1512  C1515   1.521   .     S
C1512  H1513   1.112   .     S
C1515  H1518   1.111   .     S
C1515  H1516   1.111   .     S
C1515  H1583   1.111   .     S
C1519  O1543   1.281   .     A
C1519  C1530   1.408   .     S
C1519  O1545   1.280   .     A
C1520  O1546   1.280   .     A
C1520  O1544   1.281   .     A
C1520  C1529   1.410   .     S
C1521  O1549   1.280   .     A
C1521  O1547   1.274   .     A
C1521  C1523   1.408   .     S
C1522  O1550   1.282   .     A
C1522  C1524   1.400   .     S
C1522  O1548   1.271   .     A
C1524  C1391   1.344   1_655 S
C1524  O1429   1.390   1_655 S
C1525  C1530   1.393   .     A
C1525  H1535   1.083   .     S
C1526  C1529   1.395   .     A
C1526  H1536   1.085   .     S
C1526  C1726   1.375   .     S
C1527  O1569   1.384   .     S
C1527  C1529   1.400   .     A
C1527  C1723   1.377   .     S
C1528  O1577   1.384   .     S
C1528  C1530   1.402   .     A
C1531  N1542   1.367   .     A
C1531  H1537   1.082   .     S
C1532  N1541   1.366   .     A
C1532  H1538   1.082   .     S
C1532  C346    1.417   1_556 S
C1533  N1541   1.367   .     A
C1533  H1539   1.082   .     S
C1533  C343    1.417   1_556 S
C1534  N1542   1.367   .     A
C1534  H1540   1.082   .     S
N1541  Zn1551  2.011   .     S
N1542  Zn1552  2.011   .     S
O1543  Zn1551  1.989   .     S
O1544  Zn1552  1.989   .     S
O1545  Zn1552  1.985   .     S
O1546  Zn1551  1.985   .     S
O1547  Zn1551  1.981   .     S
O1548  Zn1552  1.981   .     S
O1549  Zn1552  1.980   .     S
O1550  Zn1551  1.980   .     S
O1553  C1391   1.397   1_655 S
O1553  C1422   1.414   1_655 S
C1554  H1556   1.110   .     S
C1554  H1555   1.116   .     S
C1557  H1559   1.111   .     S
C1557  H1558   1.111   .     S
C1557  H1560   1.111   .     S
C1557  C1422   1.521   1_655 S
O1561  C1562   1.415   .     S
C1562  C1565   1.519   .     S
C1562  H1564   1.116   .     S
H1563  C1430   1.114   1_655 S
C1565  H1567   1.110   .     S
C1565  H1568   1.110   .     S
C1565  H1566   1.110   .     S
O1569  C1570   1.412   .     S
C1570  C1573   1.519   .     S
C1570  H1572   1.112   .     S
C1570  H1571   1.116   .     S
C1573  H1574   1.110   .     S
C1573  H1576   1.110   .     S
H1575  C385    1.109   1_556 S
O1577  C1578   1.412   .     S
C1578  H1580   1.114   .     S
C1578  C1581   1.521   .     S
C1578  H1579   1.112   .     S
C1581  H1584   1.111   .     S
C1581  H1582   1.111   .     S
C1581  H1451   1.111   1_655 S
C1585  O1609   1.281   .     A
C1585  C1596   1.408   .     S
C1585  O1611   1.280   .     A
C1586  O1612   1.280   .     A
C1586  O1610   1.281   .     A
C1586  C1595   1.410   .     S
C1587  O1615   1.280   .     A
C1587  O1613   1.274   .     A
C1587  C1589   1.408   .     S
C1588  O1616   1.282   .     A
C1588  C1590   1.400   .     S
C1588  O1614   1.271   .     A
C1589  C1722   1.344   1_455 S
C1589  O1751   1.397   1_455 S
C1590  C1655   1.344   .     S
C1590  O1693   1.390   .     S
C1591  C1596   1.393   .     A
C1591  H1601   1.083   .     S
C1592  C1595   1.395   .     A
C1592  H1602   1.085   .     S
C1592  C1198   1.375   1_565 S
C1593  O1635   1.384   .     S
C1593  C1595   1.400   .     A
C1593  C1195   1.377   1_565 S
C1594  O1643   1.384   .     S
C1594  C1596   1.402   .     A
C1597  N1608   1.367   .     A
C1597  H1603   1.082   .     S
C1598  N1607   1.366   .     A
C1598  H1604   1.082   .     S
C1598  C412    1.417   1_556 S
C1599  N1607   1.367   .     A
C1599  H1605   1.082   .     S
C1599  C409    1.417   1_556 S
C1600  N1608   1.367   .     A
C1600  H1606   1.082   .     S
N1607  Zn1617  2.011   .     S
N1608  Zn1618  2.011   .     S
O1609  Zn1617  1.989   .     S
O1610  Zn1618  1.989   .     S
O1611  Zn1618  1.985   .     S
O1612  Zn1617  1.985   .     S
O1613  Zn1617  1.981   .     S
O1614  Zn1618  1.981   .     S
O1615  Zn1618  1.980   .     S
O1616  Zn1617  1.980   .     S
O1619  C1655   1.397   .     S
O1619  C1686   1.414   .     S
C1620  H1622   1.110   .     S
C1620  H1621   1.116   .     S
C1620  O1751   1.414   1_455 S
C1620  C1755   1.521   1_455 S
C1623  H1625   1.111   .     S
C1623  H1624   1.111   .     S
C1623  H1626   1.111   .     S
C1623  C1686   1.521   .     S
O1627  C1628   1.415   .     S
O1627  C1722   1.390   1_455 S
C1628  C1631   1.519   .     S
C1628  H1630   1.116   .     S
C1628  H1761   1.114   1_455 S
H1629  C1694   1.114   .     S
C1631  H1633   1.110   .     S
C1631  H1634   1.110   .     S
C1631  H1632   1.110   .     S
O1635  C1636   1.412   .     S
C1636  C1639   1.519   .     S
C1636  H1638   1.112   .     S
C1636  H1637   1.116   .     S
C1639  H1640   1.110   .     S
C1639  H1642   1.110   .     S
H1641  C451    1.109   1_556 S
O1643  C1644   1.412   .     S
C1644  H1646   1.114   .     S
C1644  C1647   1.521   .     S
C1644  H1645   1.112   .     S
C1647  H1650   1.111   .     S
C1647  H1648   1.111   .     S
C1647  H1715   1.111   .     S
H1649  C1779   1.111   1_455 S
C1651  O1675   1.281   .     A
C1651  C1662   1.408   .     S
C1651  O1677   1.280   .     A
C1652  O1678   1.280   .     A
C1652  O1676   1.281   .     A
C1652  C1661   1.410   .     S
C1653  O1681   1.280   .     A
C1653  O1679   1.274   .     A
C1653  C1655   1.408   .     S
C1654  O1682   1.282   .     A
C1654  C1656   1.400   .     S
C1654  O1680   1.271   .     A
C1656  C1721   1.344   .     S
C1656  O1759   1.390   .     S
C1657  C1662   1.393   .     A
C1657  H1667   1.083   .     S
C1658  C1661   1.395   .     A
C1658  H1668   1.085   .     S
C1658  C1264   1.375   1_565 S
C1659  O1701   1.384   .     S
C1659  C1661   1.400   .     A
C1659  C1261   1.377   1_565 S
C1660  O1709   1.384   .     S
C1660  C1662   1.402   .     A
C1663  N1674   1.367   .     A
C1663  H1669   1.082   .     S
C1664  N1673   1.366   .     A
C1664  H1670   1.082   .     S
C1664  C478    1.417   1_556 S
C1665  N1673   1.367   .     A
C1665  H1671   1.082   .     S
C1665  C475    1.417   1_556 S
C1666  N1674   1.367   .     A
C1666  H1672   1.082   .     S
N1673  Zn1683  2.011   .     S
N1674  Zn1684  2.011   .     S
O1675  Zn1683  1.989   .     S
O1676  Zn1684  1.989   .     S
O1677  Zn1684  1.985   .     S
O1678  Zn1683  1.985   .     S
O1679  Zn1683  1.981   .     S
O1680  Zn1684  1.981   .     S
O1681  Zn1684  1.980   .     S
O1682  Zn1683  1.980   .     S
O1685  C1721   1.397   .     S
O1685  C1752   1.414   .     S
C1686  H1688   1.110   .     S
C1686  H1687   1.116   .     S
C1689  H1691   1.111   .     S
C1689  H1690   1.111   .     S
C1689  H1692   1.111   .     S
C1689  C1752   1.521   .     S
O1693  C1694   1.415   .     S
C1694  C1697   1.519   .     S
C1694  H1696   1.116   .     S
H1695  C1760   1.114   .     S
C1697  H1699   1.110   .     S
C1697  H1700   1.110   .     S
C1697  H1698   1.110   .     S
O1701  C1702   1.412   .     S
C1702  C1705   1.519   .     S
C1702  H1704   1.112   .     S
C1702  H1703   1.116   .     S
C1705  H1706   1.110   .     S
C1705  H1708   1.110   .     S
H1707  C517    1.109   1_556 S
O1709  C1710   1.412   .     S
C1710  H1712   1.114   .     S
C1710  C1713   1.521   .     S
C1710  H1711   1.112   .     S
C1713  H1716   1.111   .     S
C1713  H1714   1.111   .     S
C1713  H1781   1.111   .     S
C1717  O1741   1.281   .     A
C1717  C1728   1.408   .     S
C1717  O1743   1.280   .     A
C1718  O1744   1.280   .     A
C1718  O1742   1.281   .     A
C1718  C1727   1.410   .     S
C1719  O1747   1.280   .     A
C1719  O1745   1.274   .     A
C1719  C1721   1.408   .     S
C1720  O1748   1.282   .     A
C1720  C1722   1.400   .     S
C1720  O1746   1.271   .     A
C1722  C1589   1.344   1_655 S
C1722  O1627   1.390   1_655 S
C1723  C1728   1.393   .     A
C1723  H1733   1.083   .     S
C1724  C1727   1.395   .     A
C1724  H1734   1.085   .     S
C1724  C1330   1.375   1_565 S
C1725  O1767   1.384   .     S
C1725  C1727   1.400   .     A
C1725  C1327   1.377   1_565 S
C1726  O1775   1.384   .     S
C1726  C1728   1.402   .     A
C1729  N1740   1.367   .     A
C1729  H1735   1.082   .     S
C1730  N1739   1.366   .     A
C1730  H1736   1.082   .     S
C1730  C544    1.417   1_556 S
C1731  N1739   1.367   .     A
C1731  H1737   1.082   .     S
C1731  C541    1.417   1_556 S
C1732  N1740   1.367   .     A
C1732  H1738   1.082   .     S
N1739  Zn1749  2.011   .     S
N1740  Zn1750  2.011   .     S
O1741  Zn1749  1.989   .     S
O1742  Zn1750  1.989   .     S
O1743  Zn1750  1.985   .     S
O1744  Zn1749  1.985   .     S
O1745  Zn1749  1.981   .     S
O1746  Zn1750  1.981   .     S
O1747  Zn1750  1.980   .     S
O1748  Zn1749  1.980   .     S
O1751  C1589   1.397   1_655 S
O1751  C1620   1.414   1_655 S
C1752  H1754   1.110   .     S
C1752  H1753   1.116   .     S
C1755  H1757   1.111   .     S
C1755  H1756   1.111   .     S
C1755  H1758   1.111   .     S
C1755  C1620   1.521   1_655 S
O1759  C1760   1.415   .     S
C1760  C1763   1.519   .     S
C1760  H1762   1.116   .     S
H1761  C1628   1.114   1_655 S
C1763  H1765   1.110   .     S
C1763  H1766   1.110   .     S
C1763  H1764   1.110   .     S
O1767  C1768   1.412   .     S
C1768  C1771   1.519   .     S
C1768  H1770   1.112   .     S
C1768  H1769   1.116   .     S
C1771  H1772   1.110   .     S
C1771  H1774   1.110   .     S
H1773  C583    1.109   1_556 S
O1775  C1776   1.412   .     S
C1776  H1778   1.114   .     S
C1776  C1779   1.521   .     S
C1776  H1777   1.112   .     S
C1779  H1782   1.111   .     S
C1779  H1780   1.111   .     S
C1779  H1649   1.111   1_655 S
