data_str_m3_o2_o10_pcu_sym.129
_audit_creation_date              2020-01-03
_audit_creation_method            'Materials Studio'
_symmetry_space_group_name_H-M    'P1'
_symmetry_Int_Tables_number       1
_symmetry_cell_setting            triclinic
loop_
_symmetry_equiv_pos_as_xyz
  x,y,z
_cell_length_a                    25.7838
_cell_length_b                    29.9329
_cell_length_c                    28.4591
_cell_angle_alpha                 90.0394
_cell_angle_beta                  98.5223
_cell_angle_gamma                 90.3063
loop_
_atom_site_label
_atom_site_type_symbol
_atom_site_fract_x
_atom_site_fract_y
_atom_site_fract_z
_atom_site_U_iso_or_equiv
_atom_site_adp_type
_atom_site_occupancy
C1     C     0.16692   0.16369   0.24986   0.00000  Uiso   1.00
C2     C     0.16708   0.33576   0.25010   0.00000  Uiso   1.00
C3     C     0.11943   0.23523   0.04738   0.00000  Uiso   1.00
C4     C     0.17823   0.29224   0.44769   0.00000  Uiso   1.00
C5     C     0.12455   0.23212   0.09765   0.00000  Uiso   1.00
C6     C     0.18203   0.28806   0.39856   0.00000  Uiso   1.00
C7     C     0.20511   0.27124   0.10610   0.00000  Uiso   1.00
C8     C     0.14782   0.21473   0.39714   0.00000  Uiso   1.00
C9     C     0.20445   0.27104   0.05678   0.00000  Uiso   1.00
C10    C     0.14846   0.21572   0.44642   0.00000  Uiso   1.00
C11    C     0.16124   0.25405   0.02608   0.00000  Uiso   1.00
C12    C     0.16218   0.25466   0.47280   0.00000  Uiso   1.00
C13    C     0.06709   0.24948   0.23761   0.00000  Uiso   1.00
C14    C     0.26628   0.24980   0.26242   0.00000  Uiso   1.00
C15    C     0.01212   0.24794   0.23105   0.00000  Uiso   1.00
C16    C     0.32131   0.25009   0.26914   0.00000  Uiso   1.00
C17    C     0.20236   0.04565   0.28326   0.00000  Uiso   1.00
C18    C     0.13291   0.45461   0.23240   0.00000  Uiso   1.00
C19    C     0.19914   0.09167   0.28652   0.00000  Uiso   1.00
C20    C     0.12734   0.40884   0.23415   0.00000  Uiso   1.00
C21    C     0.16959   0.11512   0.24855   0.00000  Uiso   1.00
C22    C     0.17181   0.38338   0.25056   0.00000  Uiso   1.00
C23    C     0.14661   0.09221   0.20658   0.00000  Uiso   1.00
C24    C     0.22210   0.40285   0.26264   0.00000  Uiso   1.00
C25    C     0.15759   0.04670   0.20137   0.00000  Uiso   1.00
C26    C     0.22781   0.44936   0.25715   0.00000  Uiso   1.00
C27    C     0.18333   0.02348   0.24110   0.00000  Uiso   1.00
C28    C     0.18233   0.47478   0.24230   0.00000  Uiso   1.00
H29    H     0.32504   0.24480   0.19496   0.00000  Uiso   1.00
H30    H     0.00849   0.25266   0.30532   0.00000  Uiso   1.00
H31    H     0.22104   0.02675   0.31355   0.00000  Uiso   1.00
H32    H     0.09834   0.47506   0.22288   0.00000  Uiso   1.00
H33    H     0.09340   0.21736   0.11420   0.00000  Uiso   1.00
H34    H     0.19501   0.31623   0.37950   0.00000  Uiso   1.00
H35    H     0.23727   0.28565   0.04244   0.00000  Uiso   1.00
H36    H     0.13628   0.18614   0.46388   0.00000  Uiso   1.00
N37    N     0.16667   0.24999   0.12624   0.00000  Uiso   1.00
N38    N     0.16667   0.25001   0.37377   0.00000  Uiso   1.00
O39    O     0.16667   0.18453   0.28974   0.00000  Uiso   1.00
O40    O     0.16666   0.31546   0.21026   0.00000  Uiso   1.00
O41    O     0.16667   0.18453   0.21026   0.00000  Uiso   1.00
O42    O     0.16666   0.31547   0.28974   0.00000  Uiso   1.00
O43    O     0.09058   0.25000   0.28045   0.00000  Uiso   1.00
O44    O     0.24275   0.25000   0.21956   0.00000  Uiso   1.00
O45    O     0.09058   0.24999   0.20097   0.00000  Uiso   1.00
O46    O     0.24275   0.25000   0.29904   0.00000  Uiso   1.00
Zn47   Zn    0.16667   0.25000   0.30307   0.00000  Uiso   1.00
Zn48   Zn    0.16667   0.24999   0.19693   0.00000  Uiso   1.00
C49    C     0.22948   0.11399   0.32874   0.00000  Uiso   1.00
H50    H     0.24372   0.14795   0.32668   0.00000  Uiso   1.00
O51    O     0.24022   0.09411   0.36637   0.00000  Uiso   1.00
C52    C     0.07511   0.38812   0.21812   0.00000  Uiso   1.00
H53    H     0.06811   0.35304   0.22455   0.00000  Uiso   1.00
O54    O     0.03928   0.40999   0.19676   0.00000  Uiso   1.00
C55    C     0.11100   0.11543   0.16844   0.00000  Uiso   1.00
H56    H     0.11645   0.11205   0.13154   0.00000  Uiso   1.00
O57    O     0.07484   0.13817   0.17816   0.00000  Uiso   1.00
C58    C     0.26770   0.37349   0.27890   0.00000  Uiso   1.00
H59    H     0.26373   0.34628   0.30328   0.00000  Uiso   1.00
O60    O     0.30912   0.37799   0.26362   0.00000  Uiso   1.00
C61    C     0.14213   0.02211   0.15568   0.00000  Uiso   1.00
H62    H     0.16626   0.49471   0.14662   0.00000  Uiso   1.00
O63    O     0.10163   0.03030   0.12917   0.00000  Uiso   1.00
C64    C     0.27982   0.47212   0.26667   0.00000  Uiso   1.00
H65    H     0.28789   0.00063   0.24529   0.00000  Uiso   1.00
O66    O     0.31286   0.46099   0.29978   0.00000  Uiso   1.00
C67    C     0.06907   0.22161   0.01853   0.00000  Uiso   1.00
H68    H     0.06000   0.23134   0.48156   0.00000  Uiso   1.00
O69    O     0.03652   0.19987   0.03596   0.00000  Uiso   1.00
C70    C     0.18767   0.33662   0.47076   0.00000  Uiso   1.00
H71    H     0.17530   0.34323   0.00486   0.00000  Uiso   1.00
O72    O     0.20874   0.36677   0.45155   0.00000  Uiso   1.00
Cl73   Cl    0.25379   0.30356   0.14009   0.00000  Uiso   1.00
Cl74   Cl    0.11705   0.16839   0.36704   0.00000  Uiso   1.00
C75    C     0.50026   0.16369   0.24986   0.00000  Uiso   1.00
C76    C     0.50042   0.33576   0.25010   0.00000  Uiso   1.00
C77    C     0.45276   0.23523   0.04738   0.00000  Uiso   1.00
C78    C     0.51156   0.29224   0.44769   0.00000  Uiso   1.00
C79    C     0.45789   0.23212   0.09765   0.00000  Uiso   1.00
C80    C     0.51536   0.28806   0.39856   0.00000  Uiso   1.00
C81    C     0.53844   0.27124   0.10610   0.00000  Uiso   1.00
C82    C     0.48115   0.21473   0.39714   0.00000  Uiso   1.00
C83    C     0.53778   0.27104   0.05678   0.00000  Uiso   1.00
C84    C     0.48179   0.21572   0.44642   0.00000  Uiso   1.00
C85    C     0.49457   0.25405   0.02608   0.00000  Uiso   1.00
C86    C     0.49552   0.25466   0.47280   0.00000  Uiso   1.00
C87    C     0.40042   0.24948   0.23761   0.00000  Uiso   1.00
C88    C     0.59961   0.24980   0.26242   0.00000  Uiso   1.00
C89    C     0.34545   0.24794   0.23105   0.00000  Uiso   1.00
C90    C     0.65465   0.25009   0.26914   0.00000  Uiso   1.00
C91    C     0.53570   0.04565   0.28326   0.00000  Uiso   1.00
C92    C     0.46624   0.45461   0.23240   0.00000  Uiso   1.00
C93    C     0.53247   0.09167   0.28652   0.00000  Uiso   1.00
C94    C     0.46067   0.40884   0.23415   0.00000  Uiso   1.00
C95    C     0.50293   0.11512   0.24855   0.00000  Uiso   1.00
C96    C     0.50514   0.38338   0.25056   0.00000  Uiso   1.00
C97    C     0.47994   0.09221   0.20658   0.00000  Uiso   1.00
C98    C     0.55544   0.40285   0.26264   0.00000  Uiso   1.00
C99    C     0.49093   0.04670   0.20137   0.00000  Uiso   1.00
C100   C     0.56114   0.44936   0.25715   0.00000  Uiso   1.00
C101   C     0.51666   0.02348   0.24110   0.00000  Uiso   1.00
C102   C     0.51566   0.47478   0.24230   0.00000  Uiso   1.00
H103   H     0.65838   0.24480   0.19496   0.00000  Uiso   1.00
H104   H     0.34183   0.25266   0.30532   0.00000  Uiso   1.00
H105   H     0.55438   0.02675   0.31355   0.00000  Uiso   1.00
H106   H     0.43167   0.47506   0.22288   0.00000  Uiso   1.00
H107   H     0.42674   0.21736   0.11420   0.00000  Uiso   1.00
H108   H     0.52834   0.31623   0.37950   0.00000  Uiso   1.00
H109   H     0.57061   0.28565   0.04244   0.00000  Uiso   1.00
H110   H     0.46962   0.18614   0.46388   0.00000  Uiso   1.00
N111   N     0.50000   0.24999   0.12624   0.00000  Uiso   1.00
N112   N     0.50000   0.25001   0.37377   0.00000  Uiso   1.00
O113   O     0.50000   0.18453   0.28974   0.00000  Uiso   1.00
O114   O     0.50000   0.31546   0.21026   0.00000  Uiso   1.00
O115   O     0.50000   0.18453   0.21026   0.00000  Uiso   1.00
O116   O     0.50000   0.31547   0.28974   0.00000  Uiso   1.00
O117   O     0.42392   0.25000   0.28045   0.00000  Uiso   1.00
O118   O     0.57608   0.25000   0.21956   0.00000  Uiso   1.00
O119   O     0.42392   0.24999   0.20097   0.00000  Uiso   1.00
O120   O     0.57608   0.25000   0.29904   0.00000  Uiso   1.00
Zn121  Zn    0.50000   0.25000   0.30307   0.00000  Uiso   1.00
Zn122  Zn    0.50000   0.24999   0.19693   0.00000  Uiso   1.00
C123   C     0.56282   0.11399   0.32874   0.00000  Uiso   1.00
H124   H     0.57705   0.14795   0.32668   0.00000  Uiso   1.00
O125   O     0.57355   0.09411   0.36637   0.00000  Uiso   1.00
C126   C     0.40845   0.38812   0.21812   0.00000  Uiso   1.00
H127   H     0.40144   0.35304   0.22455   0.00000  Uiso   1.00
O128   O     0.37262   0.40999   0.19676   0.00000  Uiso   1.00
C129   C     0.44433   0.11543   0.16844   0.00000  Uiso   1.00
H130   H     0.44978   0.11205   0.13154   0.00000  Uiso   1.00
O131   O     0.40818   0.13817   0.17816   0.00000  Uiso   1.00
C132   C     0.60103   0.37349   0.27890   0.00000  Uiso   1.00
H133   H     0.59707   0.34628   0.30328   0.00000  Uiso   1.00
O134   O     0.64246   0.37799   0.26362   0.00000  Uiso   1.00
C135   C     0.47547   0.02211   0.15568   0.00000  Uiso   1.00
H136   H     0.49959   0.49471   0.14662   0.00000  Uiso   1.00
O137   O     0.43496   0.03030   0.12917   0.00000  Uiso   1.00
C138   C     0.61315   0.47212   0.26667   0.00000  Uiso   1.00
H139   H     0.62122   0.00063   0.24529   0.00000  Uiso   1.00
O140   O     0.64619   0.46099   0.29978   0.00000  Uiso   1.00
C141   C     0.40240   0.22161   0.01853   0.00000  Uiso   1.00
H142   H     0.39333   0.23134   0.48156   0.00000  Uiso   1.00
O143   O     0.36985   0.19987   0.03596   0.00000  Uiso   1.00
C144   C     0.52101   0.33662   0.47076   0.00000  Uiso   1.00
H145   H     0.50864   0.34323   0.00486   0.00000  Uiso   1.00
O146   O     0.54208   0.36677   0.45155   0.00000  Uiso   1.00
Cl147  Cl    0.58712   0.30356   0.14009   0.00000  Uiso   1.00
Cl148  Cl    0.45038   0.16839   0.36704   0.00000  Uiso   1.00
C149   C     0.83359   0.16369   0.24986   0.00000  Uiso   1.00
C150   C     0.83375   0.33576   0.25010   0.00000  Uiso   1.00
C151   C     0.78610   0.23523   0.04738   0.00000  Uiso   1.00
C152   C     0.84489   0.29224   0.44769   0.00000  Uiso   1.00
C153   C     0.79122   0.23212   0.09765   0.00000  Uiso   1.00
C154   C     0.84870   0.28806   0.39856   0.00000  Uiso   1.00
C155   C     0.87177   0.27124   0.10610   0.00000  Uiso   1.00
C156   C     0.81449   0.21473   0.39714   0.00000  Uiso   1.00
C157   C     0.87111   0.27104   0.05678   0.00000  Uiso   1.00
C158   C     0.81513   0.21572   0.44642   0.00000  Uiso   1.00
C159   C     0.82790   0.25405   0.02608   0.00000  Uiso   1.00
C160   C     0.82885   0.25466   0.47280   0.00000  Uiso   1.00
C161   C     0.73375   0.24948   0.23761   0.00000  Uiso   1.00
C162   C     0.93294   0.24980   0.26242   0.00000  Uiso   1.00
C163   C     0.67879   0.24794   0.23105   0.00000  Uiso   1.00
C164   C     0.98798   0.25009   0.26914   0.00000  Uiso   1.00
C165   C     0.86903   0.04565   0.28326   0.00000  Uiso   1.00
C166   C     0.79957   0.45461   0.23240   0.00000  Uiso   1.00
C167   C     0.86581   0.09167   0.28652   0.00000  Uiso   1.00
C168   C     0.79400   0.40884   0.23415   0.00000  Uiso   1.00
C169   C     0.83626   0.11512   0.24855   0.00000  Uiso   1.00
C170   C     0.83848   0.38338   0.25056   0.00000  Uiso   1.00
C171   C     0.81327   0.09221   0.20658   0.00000  Uiso   1.00
C172   C     0.88877   0.40285   0.26264   0.00000  Uiso   1.00
C173   C     0.82426   0.04670   0.20137   0.00000  Uiso   1.00
C174   C     0.89447   0.44936   0.25715   0.00000  Uiso   1.00
C175   C     0.85000   0.02348   0.24110   0.00000  Uiso   1.00
C176   C     0.84900   0.47478   0.24230   0.00000  Uiso   1.00
H177   H     0.99171   0.24480   0.19496   0.00000  Uiso   1.00
H178   H     0.67516   0.25266   0.30532   0.00000  Uiso   1.00
H179   H     0.88771   0.02675   0.31355   0.00000  Uiso   1.00
H180   H     0.76501   0.47506   0.22288   0.00000  Uiso   1.00
H181   H     0.76007   0.21736   0.11420   0.00000  Uiso   1.00
H182   H     0.86167   0.31623   0.37950   0.00000  Uiso   1.00
H183   H     0.90394   0.28565   0.04244   0.00000  Uiso   1.00
H184   H     0.80295   0.18614   0.46388   0.00000  Uiso   1.00
N185   N     0.83333   0.24999   0.12624   0.00000  Uiso   1.00
N186   N     0.83333   0.25001   0.37377   0.00000  Uiso   1.00
O187   O     0.83334   0.18453   0.28974   0.00000  Uiso   1.00
O188   O     0.83333   0.31546   0.21026   0.00000  Uiso   1.00
O189   O     0.83334   0.18453   0.21026   0.00000  Uiso   1.00
O190   O     0.83333   0.31547   0.28974   0.00000  Uiso   1.00
O191   O     0.75725   0.25000   0.28045   0.00000  Uiso   1.00
O192   O     0.90942   0.25000   0.21956   0.00000  Uiso   1.00
O193   O     0.75725   0.24999   0.20097   0.00000  Uiso   1.00
O194   O     0.90942   0.25000   0.29904   0.00000  Uiso   1.00
Zn195  Zn    0.83333   0.25000   0.30307   0.00000  Uiso   1.00
Zn196  Zn    0.83333   0.24999   0.19693   0.00000  Uiso   1.00
C197   C     0.89615   0.11399   0.32874   0.00000  Uiso   1.00
H198   H     0.91038   0.14795   0.32668   0.00000  Uiso   1.00
O199   O     0.90688   0.09411   0.36637   0.00000  Uiso   1.00
C200   C     0.74178   0.38812   0.21812   0.00000  Uiso   1.00
H201   H     0.73478   0.35304   0.22455   0.00000  Uiso   1.00
O202   O     0.70595   0.40999   0.19676   0.00000  Uiso   1.00
C203   C     0.77767   0.11543   0.16844   0.00000  Uiso   1.00
H204   H     0.78311   0.11205   0.13154   0.00000  Uiso   1.00
O205   O     0.74151   0.13817   0.17816   0.00000  Uiso   1.00
C206   C     0.93437   0.37349   0.27890   0.00000  Uiso   1.00
H207   H     0.93040   0.34628   0.30328   0.00000  Uiso   1.00
O208   O     0.97579   0.37799   0.26362   0.00000  Uiso   1.00
C209   C     0.80880   0.02211   0.15568   0.00000  Uiso   1.00
H210   H     0.83293   0.49471   0.14662   0.00000  Uiso   1.00
O211   O     0.76829   0.03030   0.12917   0.00000  Uiso   1.00
C212   C     0.94649   0.47212   0.26667   0.00000  Uiso   1.00
H213   H     0.95455   0.00063   0.24529   0.00000  Uiso   1.00
O214   O     0.97952   0.46099   0.29978   0.00000  Uiso   1.00
C215   C     0.73574   0.22161   0.01853   0.00000  Uiso   1.00
H216   H     0.72667   0.23134   0.48156   0.00000  Uiso   1.00
O217   O     0.70319   0.19987   0.03596   0.00000  Uiso   1.00
C218   C     0.85434   0.33662   0.47076   0.00000  Uiso   1.00
H219   H     0.84197   0.34323   0.00486   0.00000  Uiso   1.00
O220   O     0.87541   0.36677   0.45155   0.00000  Uiso   1.00
Cl221  Cl    0.92046   0.30356   0.14009   0.00000  Uiso   1.00
Cl222  Cl    0.78372   0.16839   0.36704   0.00000  Uiso   1.00
C223   C     0.16692   0.66369   0.24986   0.00000  Uiso   1.00
C224   C     0.16708   0.83576   0.25010   0.00000  Uiso   1.00
C225   C     0.11943   0.73523   0.04738   0.00000  Uiso   1.00
C226   C     0.17823   0.79224   0.44769   0.00000  Uiso   1.00
C227   C     0.12455   0.73212   0.09765   0.00000  Uiso   1.00
C228   C     0.18203   0.78806   0.39856   0.00000  Uiso   1.00
C229   C     0.20511   0.77124   0.10610   0.00000  Uiso   1.00
C230   C     0.14782   0.71473   0.39714   0.00000  Uiso   1.00
C231   C     0.20445   0.77104   0.05678   0.00000  Uiso   1.00
C232   C     0.14846   0.71572   0.44642   0.00000  Uiso   1.00
C233   C     0.16124   0.75405   0.02608   0.00000  Uiso   1.00
C234   C     0.16218   0.75466   0.47280   0.00000  Uiso   1.00
C235   C     0.06709   0.74948   0.23761   0.00000  Uiso   1.00
C236   C     0.26628   0.74980   0.26242   0.00000  Uiso   1.00
C237   C     0.01212   0.74794   0.23105   0.00000  Uiso   1.00
C238   C     0.32131   0.75009   0.26914   0.00000  Uiso   1.00
C239   C     0.20236   0.54565   0.28326   0.00000  Uiso   1.00
C240   C     0.13291   0.95461   0.23240   0.00000  Uiso   1.00
C241   C     0.19914   0.59167   0.28652   0.00000  Uiso   1.00
C242   C     0.12734   0.90884   0.23415   0.00000  Uiso   1.00
C243   C     0.16959   0.61512   0.24855   0.00000  Uiso   1.00
C244   C     0.17181   0.88338   0.25056   0.00000  Uiso   1.00
C245   C     0.14661   0.59221   0.20658   0.00000  Uiso   1.00
C246   C     0.22210   0.90285   0.26264   0.00000  Uiso   1.00
C247   C     0.15759   0.54670   0.20137   0.00000  Uiso   1.00
C248   C     0.22781   0.94936   0.25715   0.00000  Uiso   1.00
C249   C     0.18333   0.52348   0.24110   0.00000  Uiso   1.00
C250   C     0.18233   0.97478   0.24230   0.00000  Uiso   1.00
H251   H     0.32504   0.74480   0.19496   0.00000  Uiso   1.00
H252   H     0.00849   0.75266   0.30532   0.00000  Uiso   1.00
H253   H     0.22104   0.52675   0.31355   0.00000  Uiso   1.00
H254   H     0.09834   0.97506   0.22288   0.00000  Uiso   1.00
H255   H     0.09340   0.71736   0.11420   0.00000  Uiso   1.00
H256   H     0.19501   0.81623   0.37950   0.00000  Uiso   1.00
H257   H     0.23727   0.78565   0.04244   0.00000  Uiso   1.00
H258   H     0.13628   0.68614   0.46388   0.00000  Uiso   1.00
N259   N     0.16667   0.74999   0.12624   0.00000  Uiso   1.00
N260   N     0.16667   0.75001   0.37377   0.00000  Uiso   1.00
O261   O     0.16667   0.68453   0.28974   0.00000  Uiso   1.00
O262   O     0.16666   0.81546   0.21026   0.00000  Uiso   1.00
O263   O     0.16667   0.68453   0.21026   0.00000  Uiso   1.00
O264   O     0.16666   0.81547   0.28974   0.00000  Uiso   1.00
O265   O     0.09058   0.75000   0.28045   0.00000  Uiso   1.00
O266   O     0.24275   0.75000   0.21956   0.00000  Uiso   1.00
O267   O     0.09058   0.74999   0.20097   0.00000  Uiso   1.00
O268   O     0.24275   0.75000   0.29904   0.00000  Uiso   1.00
Zn269  Zn    0.16667   0.75000   0.30307   0.00000  Uiso   1.00
Zn270  Zn    0.16667   0.74999   0.19693   0.00000  Uiso   1.00
C271   C     0.22948   0.61399   0.32874   0.00000  Uiso   1.00
H272   H     0.24372   0.64795   0.32668   0.00000  Uiso   1.00
O273   O     0.24022   0.59411   0.36637   0.00000  Uiso   1.00
C274   C     0.07511   0.88812   0.21812   0.00000  Uiso   1.00
H275   H     0.06811   0.85304   0.22455   0.00000  Uiso   1.00
O276   O     0.03928   0.90999   0.19676   0.00000  Uiso   1.00
C277   C     0.11100   0.61543   0.16844   0.00000  Uiso   1.00
H278   H     0.11645   0.61205   0.13154   0.00000  Uiso   1.00
O279   O     0.07484   0.63817   0.17816   0.00000  Uiso   1.00
C280   C     0.26770   0.87349   0.27890   0.00000  Uiso   1.00
H281   H     0.26373   0.84628   0.30328   0.00000  Uiso   1.00
O282   O     0.30912   0.87799   0.26362   0.00000  Uiso   1.00
C283   C     0.14213   0.52211   0.15568   0.00000  Uiso   1.00
H284   H     0.16626   0.99471   0.14662   0.00000  Uiso   1.00
O285   O     0.10163   0.53030   0.12917   0.00000  Uiso   1.00
C286   C     0.27982   0.97212   0.26667   0.00000  Uiso   1.00
H287   H     0.28789   0.50063   0.24529   0.00000  Uiso   1.00
O288   O     0.31286   0.96099   0.29978   0.00000  Uiso   1.00
C289   C     0.06907   0.72161   0.01853   0.00000  Uiso   1.00
H290   H     0.06000   0.73134   0.48156   0.00000  Uiso   1.00
O291   O     0.03652   0.69987   0.03596   0.00000  Uiso   1.00
C292   C     0.18767   0.83662   0.47076   0.00000  Uiso   1.00
H293   H     0.17530   0.84323   0.00486   0.00000  Uiso   1.00
O294   O     0.20874   0.86677   0.45155   0.00000  Uiso   1.00
Cl295  Cl    0.25379   0.80356   0.14009   0.00000  Uiso   1.00
Cl296  Cl    0.11705   0.66839   0.36704   0.00000  Uiso   1.00
C297   C     0.50026   0.66369   0.24986   0.00000  Uiso   1.00
C298   C     0.50042   0.83576   0.25010   0.00000  Uiso   1.00
C299   C     0.45276   0.73523   0.04738   0.00000  Uiso   1.00
C300   C     0.51156   0.79224   0.44769   0.00000  Uiso   1.00
C301   C     0.45789   0.73212   0.09765   0.00000  Uiso   1.00
C302   C     0.51536   0.78806   0.39856   0.00000  Uiso   1.00
C303   C     0.53844   0.77124   0.10610   0.00000  Uiso   1.00
C304   C     0.48115   0.71473   0.39714   0.00000  Uiso   1.00
C305   C     0.53778   0.77104   0.05678   0.00000  Uiso   1.00
C306   C     0.48179   0.71572   0.44642   0.00000  Uiso   1.00
C307   C     0.49457   0.75405   0.02608   0.00000  Uiso   1.00
C308   C     0.49552   0.75466   0.47280   0.00000  Uiso   1.00
C309   C     0.40042   0.74948   0.23761   0.00000  Uiso   1.00
C310   C     0.59961   0.74980   0.26242   0.00000  Uiso   1.00
C311   C     0.34545   0.74794   0.23105   0.00000  Uiso   1.00
C312   C     0.65465   0.75009   0.26914   0.00000  Uiso   1.00
C313   C     0.53570   0.54565   0.28326   0.00000  Uiso   1.00
C314   C     0.46624   0.95461   0.23240   0.00000  Uiso   1.00
C315   C     0.53247   0.59167   0.28652   0.00000  Uiso   1.00
C316   C     0.46067   0.90884   0.23415   0.00000  Uiso   1.00
C317   C     0.50293   0.61512   0.24855   0.00000  Uiso   1.00
C318   C     0.50514   0.88338   0.25056   0.00000  Uiso   1.00
C319   C     0.47994   0.59221   0.20658   0.00000  Uiso   1.00
C320   C     0.55544   0.90285   0.26264   0.00000  Uiso   1.00
C321   C     0.49093   0.54670   0.20137   0.00000  Uiso   1.00
C322   C     0.56114   0.94936   0.25715   0.00000  Uiso   1.00
C323   C     0.51666   0.52348   0.24110   0.00000  Uiso   1.00
C324   C     0.51566   0.97478   0.24230   0.00000  Uiso   1.00
H325   H     0.65838   0.74480   0.19496   0.00000  Uiso   1.00
H326   H     0.34183   0.75266   0.30532   0.00000  Uiso   1.00
H327   H     0.55438   0.52675   0.31355   0.00000  Uiso   1.00
H328   H     0.43167   0.97506   0.22288   0.00000  Uiso   1.00
H329   H     0.42674   0.71736   0.11420   0.00000  Uiso   1.00
H330   H     0.52834   0.81623   0.37950   0.00000  Uiso   1.00
H331   H     0.57061   0.78565   0.04244   0.00000  Uiso   1.00
H332   H     0.46962   0.68614   0.46388   0.00000  Uiso   1.00
N333   N     0.50000   0.74999   0.12624   0.00000  Uiso   1.00
N334   N     0.50000   0.75001   0.37377   0.00000  Uiso   1.00
O335   O     0.50000   0.68453   0.28974   0.00000  Uiso   1.00
O336   O     0.50000   0.81546   0.21026   0.00000  Uiso   1.00
O337   O     0.50000   0.68453   0.21026   0.00000  Uiso   1.00
O338   O     0.50000   0.81547   0.28974   0.00000  Uiso   1.00
O339   O     0.42392   0.75000   0.28045   0.00000  Uiso   1.00
O340   O     0.57608   0.75000   0.21956   0.00000  Uiso   1.00
O341   O     0.42392   0.74999   0.20097   0.00000  Uiso   1.00
O342   O     0.57608   0.75000   0.29904   0.00000  Uiso   1.00
Zn343  Zn    0.50000   0.75000   0.30307   0.00000  Uiso   1.00
Zn344  Zn    0.50000   0.74999   0.19693   0.00000  Uiso   1.00
C345   C     0.56282   0.61399   0.32874   0.00000  Uiso   1.00
H346   H     0.57705   0.64795   0.32668   0.00000  Uiso   1.00
O347   O     0.57355   0.59411   0.36637   0.00000  Uiso   1.00
C348   C     0.40845   0.88812   0.21812   0.00000  Uiso   1.00
H349   H     0.40144   0.85304   0.22455   0.00000  Uiso   1.00
O350   O     0.37262   0.90999   0.19676   0.00000  Uiso   1.00
C351   C     0.44433   0.61543   0.16844   0.00000  Uiso   1.00
H352   H     0.44978   0.61205   0.13154   0.00000  Uiso   1.00
O353   O     0.40818   0.63817   0.17816   0.00000  Uiso   1.00
C354   C     0.60103   0.87349   0.27890   0.00000  Uiso   1.00
H355   H     0.59707   0.84628   0.30328   0.00000  Uiso   1.00
O356   O     0.64246   0.87799   0.26362   0.00000  Uiso   1.00
C357   C     0.47547   0.52211   0.15568   0.00000  Uiso   1.00
H358   H     0.49959   0.99471   0.14662   0.00000  Uiso   1.00
O359   O     0.43496   0.53030   0.12917   0.00000  Uiso   1.00
C360   C     0.61315   0.97212   0.26667   0.00000  Uiso   1.00
H361   H     0.62122   0.50063   0.24529   0.00000  Uiso   1.00
O362   O     0.64619   0.96099   0.29978   0.00000  Uiso   1.00
C363   C     0.40240   0.72161   0.01853   0.00000  Uiso   1.00
H364   H     0.39333   0.73134   0.48156   0.00000  Uiso   1.00
O365   O     0.36985   0.69987   0.03596   0.00000  Uiso   1.00
C366   C     0.52101   0.83662   0.47076   0.00000  Uiso   1.00
H367   H     0.50864   0.84323   0.00486   0.00000  Uiso   1.00
O368   O     0.54208   0.86677   0.45155   0.00000  Uiso   1.00
Cl369  Cl    0.58712   0.80356   0.14009   0.00000  Uiso   1.00
Cl370  Cl    0.45038   0.66839   0.36704   0.00000  Uiso   1.00
C371   C     0.83359   0.66369   0.24986   0.00000  Uiso   1.00
C372   C     0.83375   0.83576   0.25010   0.00000  Uiso   1.00
C373   C     0.78610   0.73523   0.04738   0.00000  Uiso   1.00
C374   C     0.84489   0.79224   0.44769   0.00000  Uiso   1.00
C375   C     0.79122   0.73212   0.09765   0.00000  Uiso   1.00
C376   C     0.84870   0.78806   0.39856   0.00000  Uiso   1.00
C377   C     0.87177   0.77124   0.10610   0.00000  Uiso   1.00
C378   C     0.81449   0.71473   0.39714   0.00000  Uiso   1.00
C379   C     0.87111   0.77104   0.05678   0.00000  Uiso   1.00
C380   C     0.81513   0.71572   0.44642   0.00000  Uiso   1.00
C381   C     0.82790   0.75405   0.02608   0.00000  Uiso   1.00
C382   C     0.82885   0.75466   0.47280   0.00000  Uiso   1.00
C383   C     0.73375   0.74948   0.23761   0.00000  Uiso   1.00
C384   C     0.93294   0.74980   0.26242   0.00000  Uiso   1.00
C385   C     0.67879   0.74794   0.23105   0.00000  Uiso   1.00
C386   C     0.98798   0.75009   0.26914   0.00000  Uiso   1.00
C387   C     0.86903   0.54565   0.28326   0.00000  Uiso   1.00
C388   C     0.79957   0.95461   0.23240   0.00000  Uiso   1.00
C389   C     0.86581   0.59167   0.28652   0.00000  Uiso   1.00
C390   C     0.79400   0.90884   0.23415   0.00000  Uiso   1.00
C391   C     0.83626   0.61512   0.24855   0.00000  Uiso   1.00
C392   C     0.83848   0.88338   0.25056   0.00000  Uiso   1.00
C393   C     0.81327   0.59221   0.20658   0.00000  Uiso   1.00
C394   C     0.88877   0.90285   0.26264   0.00000  Uiso   1.00
C395   C     0.82426   0.54670   0.20137   0.00000  Uiso   1.00
C396   C     0.89447   0.94936   0.25715   0.00000  Uiso   1.00
C397   C     0.85000   0.52348   0.24110   0.00000  Uiso   1.00
C398   C     0.84900   0.97478   0.24230   0.00000  Uiso   1.00
H399   H     0.99171   0.74480   0.19496   0.00000  Uiso   1.00
H400   H     0.67516   0.75266   0.30532   0.00000  Uiso   1.00
H401   H     0.88771   0.52675   0.31355   0.00000  Uiso   1.00
H402   H     0.76501   0.97506   0.22288   0.00000  Uiso   1.00
H403   H     0.76007   0.71736   0.11420   0.00000  Uiso   1.00
H404   H     0.86167   0.81623   0.37950   0.00000  Uiso   1.00
H405   H     0.90394   0.78565   0.04244   0.00000  Uiso   1.00
H406   H     0.80295   0.68614   0.46388   0.00000  Uiso   1.00
N407   N     0.83333   0.74999   0.12624   0.00000  Uiso   1.00
N408   N     0.83333   0.75001   0.37377   0.00000  Uiso   1.00
O409   O     0.83334   0.68453   0.28974   0.00000  Uiso   1.00
O410   O     0.83333   0.81546   0.21026   0.00000  Uiso   1.00
O411   O     0.83334   0.68453   0.21026   0.00000  Uiso   1.00
O412   O     0.83333   0.81547   0.28974   0.00000  Uiso   1.00
O413   O     0.75725   0.75000   0.28045   0.00000  Uiso   1.00
O414   O     0.90942   0.75000   0.21956   0.00000  Uiso   1.00
O415   O     0.75725   0.74999   0.20097   0.00000  Uiso   1.00
O416   O     0.90942   0.75000   0.29904   0.00000  Uiso   1.00
Zn417  Zn    0.83333   0.75000   0.30307   0.00000  Uiso   1.00
Zn418  Zn    0.83333   0.74999   0.19693   0.00000  Uiso   1.00
C419   C     0.89615   0.61399   0.32874   0.00000  Uiso   1.00
H420   H     0.91038   0.64795   0.32668   0.00000  Uiso   1.00
O421   O     0.90688   0.59411   0.36637   0.00000  Uiso   1.00
C422   C     0.74178   0.88812   0.21812   0.00000  Uiso   1.00
H423   H     0.73478   0.85304   0.22455   0.00000  Uiso   1.00
O424   O     0.70595   0.90999   0.19676   0.00000  Uiso   1.00
C425   C     0.77767   0.61543   0.16844   0.00000  Uiso   1.00
H426   H     0.78311   0.61205   0.13154   0.00000  Uiso   1.00
O427   O     0.74151   0.63817   0.17816   0.00000  Uiso   1.00
C428   C     0.93437   0.87349   0.27890   0.00000  Uiso   1.00
H429   H     0.93040   0.84628   0.30328   0.00000  Uiso   1.00
O430   O     0.97579   0.87799   0.26362   0.00000  Uiso   1.00
C431   C     0.80880   0.52211   0.15568   0.00000  Uiso   1.00
H432   H     0.83293   0.99471   0.14662   0.00000  Uiso   1.00
O433   O     0.76829   0.53030   0.12917   0.00000  Uiso   1.00
C434   C     0.94649   0.97212   0.26667   0.00000  Uiso   1.00
H435   H     0.95455   0.50063   0.24529   0.00000  Uiso   1.00
O436   O     0.97952   0.96099   0.29978   0.00000  Uiso   1.00
C437   C     0.73574   0.72161   0.01853   0.00000  Uiso   1.00
H438   H     0.72667   0.73134   0.48156   0.00000  Uiso   1.00
O439   O     0.70319   0.69987   0.03596   0.00000  Uiso   1.00
C440   C     0.85434   0.83662   0.47076   0.00000  Uiso   1.00
H441   H     0.84197   0.84323   0.00486   0.00000  Uiso   1.00
O442   O     0.87541   0.86677   0.45155   0.00000  Uiso   1.00
Cl443  Cl    0.92046   0.80356   0.14009   0.00000  Uiso   1.00
Cl444  Cl    0.78372   0.66839   0.36704   0.00000  Uiso   1.00
C445   C     0.16692   0.16369   0.74986   0.00000  Uiso   1.00
C446   C     0.16708   0.33576   0.75010   0.00000  Uiso   1.00
C447   C     0.11943   0.23523   0.54738   0.00000  Uiso   1.00
C448   C     0.17823   0.29224   0.94769   0.00000  Uiso   1.00
C449   C     0.12455   0.23212   0.59765   0.00000  Uiso   1.00
C450   C     0.18203   0.28806   0.89856   0.00000  Uiso   1.00
C451   C     0.20511   0.27124   0.60610   0.00000  Uiso   1.00
C452   C     0.14782   0.21473   0.89714   0.00000  Uiso   1.00
C453   C     0.20445   0.27104   0.55678   0.00000  Uiso   1.00
C454   C     0.14846   0.21572   0.94642   0.00000  Uiso   1.00
C455   C     0.16124   0.25405   0.52608   0.00000  Uiso   1.00
C456   C     0.16218   0.25466   0.97280   0.00000  Uiso   1.00
C457   C     0.06709   0.24948   0.73761   0.00000  Uiso   1.00
C458   C     0.26628   0.24980   0.76242   0.00000  Uiso   1.00
C459   C     0.01212   0.24794   0.73105   0.00000  Uiso   1.00
C460   C     0.32131   0.25009   0.76914   0.00000  Uiso   1.00
C461   C     0.20236   0.04565   0.78326   0.00000  Uiso   1.00
C462   C     0.13291   0.45461   0.73240   0.00000  Uiso   1.00
C463   C     0.19914   0.09167   0.78652   0.00000  Uiso   1.00
C464   C     0.12734   0.40884   0.73415   0.00000  Uiso   1.00
C465   C     0.16959   0.11512   0.74855   0.00000  Uiso   1.00
C466   C     0.17181   0.38338   0.75056   0.00000  Uiso   1.00
C467   C     0.14661   0.09221   0.70658   0.00000  Uiso   1.00
C468   C     0.22210   0.40285   0.76264   0.00000  Uiso   1.00
C469   C     0.15759   0.04670   0.70137   0.00000  Uiso   1.00
C470   C     0.22781   0.44936   0.75715   0.00000  Uiso   1.00
C471   C     0.18333   0.02348   0.74110   0.00000  Uiso   1.00
C472   C     0.18233   0.47478   0.74230   0.00000  Uiso   1.00
H473   H     0.32504   0.24480   0.69496   0.00000  Uiso   1.00
H474   H     0.00849   0.25266   0.80532   0.00000  Uiso   1.00
H475   H     0.22104   0.02675   0.81355   0.00000  Uiso   1.00
H476   H     0.09834   0.47506   0.72288   0.00000  Uiso   1.00
H477   H     0.09340   0.21736   0.61420   0.00000  Uiso   1.00
H478   H     0.19501   0.31623   0.87950   0.00000  Uiso   1.00
H479   H     0.23727   0.28565   0.54244   0.00000  Uiso   1.00
H480   H     0.13628   0.18614   0.96388   0.00000  Uiso   1.00
N481   N     0.16667   0.24999   0.62624   0.00000  Uiso   1.00
N482   N     0.16667   0.25001   0.87377   0.00000  Uiso   1.00
O483   O     0.16667   0.18453   0.78974   0.00000  Uiso   1.00
O484   O     0.16666   0.31546   0.71026   0.00000  Uiso   1.00
O485   O     0.16667   0.18453   0.71026   0.00000  Uiso   1.00
O486   O     0.16666   0.31547   0.78974   0.00000  Uiso   1.00
O487   O     0.09058   0.25000   0.78045   0.00000  Uiso   1.00
O488   O     0.24275   0.25000   0.71956   0.00000  Uiso   1.00
O489   O     0.09058   0.24999   0.70097   0.00000  Uiso   1.00
O490   O     0.24275   0.25000   0.79904   0.00000  Uiso   1.00
Zn491  Zn    0.16667   0.25000   0.80307   0.00000  Uiso   1.00
Zn492  Zn    0.16667   0.24999   0.69693   0.00000  Uiso   1.00
C493   C     0.22948   0.11399   0.82874   0.00000  Uiso   1.00
H494   H     0.24372   0.14795   0.82668   0.00000  Uiso   1.00
O495   O     0.24022   0.09411   0.86637   0.00000  Uiso   1.00
C496   C     0.07511   0.38812   0.71812   0.00000  Uiso   1.00
H497   H     0.06811   0.35304   0.72455   0.00000  Uiso   1.00
O498   O     0.03928   0.40999   0.69676   0.00000  Uiso   1.00
C499   C     0.11100   0.11543   0.66844   0.00000  Uiso   1.00
H500   H     0.11645   0.11205   0.63154   0.00000  Uiso   1.00
O501   O     0.07484   0.13817   0.67816   0.00000  Uiso   1.00
C502   C     0.26770   0.37349   0.77890   0.00000  Uiso   1.00
H503   H     0.26373   0.34628   0.80328   0.00000  Uiso   1.00
O504   O     0.30912   0.37799   0.76362   0.00000  Uiso   1.00
C505   C     0.14213   0.02211   0.65568   0.00000  Uiso   1.00
H506   H     0.16626   0.49471   0.64662   0.00000  Uiso   1.00
O507   O     0.10163   0.03030   0.62917   0.00000  Uiso   1.00
C508   C     0.27982   0.47212   0.76667   0.00000  Uiso   1.00
H509   H     0.28789   0.00063   0.74529   0.00000  Uiso   1.00
O510   O     0.31286   0.46099   0.79978   0.00000  Uiso   1.00
C511   C     0.06907   0.22161   0.51853   0.00000  Uiso   1.00
H512   H     0.06000   0.23134   0.98156   0.00000  Uiso   1.00
O513   O     0.03652   0.19987   0.53596   0.00000  Uiso   1.00
C514   C     0.18767   0.33662   0.97076   0.00000  Uiso   1.00
H515   H     0.17530   0.34323   0.50486   0.00000  Uiso   1.00
O516   O     0.20874   0.36677   0.95155   0.00000  Uiso   1.00
Cl517  Cl    0.25379   0.30356   0.64009   0.00000  Uiso   1.00
Cl518  Cl    0.11705   0.16839   0.86704   0.00000  Uiso   1.00
C519   C     0.50026   0.16369   0.74986   0.00000  Uiso   1.00
C520   C     0.50042   0.33576   0.75010   0.00000  Uiso   1.00
C521   C     0.45276   0.23523   0.54738   0.00000  Uiso   1.00
C522   C     0.51156   0.29224   0.94769   0.00000  Uiso   1.00
C523   C     0.45789   0.23212   0.59765   0.00000  Uiso   1.00
C524   C     0.51536   0.28806   0.89856   0.00000  Uiso   1.00
C525   C     0.53844   0.27124   0.60610   0.00000  Uiso   1.00
C526   C     0.48115   0.21473   0.89714   0.00000  Uiso   1.00
C527   C     0.53778   0.27104   0.55678   0.00000  Uiso   1.00
C528   C     0.48179   0.21572   0.94642   0.00000  Uiso   1.00
C529   C     0.49457   0.25405   0.52608   0.00000  Uiso   1.00
C530   C     0.49552   0.25466   0.97280   0.00000  Uiso   1.00
C531   C     0.40042   0.24948   0.73761   0.00000  Uiso   1.00
C532   C     0.59961   0.24980   0.76242   0.00000  Uiso   1.00
C533   C     0.34545   0.24794   0.73105   0.00000  Uiso   1.00
C534   C     0.65465   0.25009   0.76914   0.00000  Uiso   1.00
C535   C     0.53570   0.04565   0.78326   0.00000  Uiso   1.00
C536   C     0.46624   0.45461   0.73240   0.00000  Uiso   1.00
C537   C     0.53247   0.09167   0.78652   0.00000  Uiso   1.00
C538   C     0.46067   0.40884   0.73415   0.00000  Uiso   1.00
C539   C     0.50293   0.11512   0.74855   0.00000  Uiso   1.00
C540   C     0.50514   0.38338   0.75056   0.00000  Uiso   1.00
C541   C     0.47994   0.09221   0.70658   0.00000  Uiso   1.00
C542   C     0.55544   0.40285   0.76264   0.00000  Uiso   1.00
C543   C     0.49093   0.04670   0.70137   0.00000  Uiso   1.00
C544   C     0.56114   0.44936   0.75715   0.00000  Uiso   1.00
C545   C     0.51666   0.02348   0.74110   0.00000  Uiso   1.00
C546   C     0.51566   0.47478   0.74230   0.00000  Uiso   1.00
H547   H     0.65838   0.24480   0.69496   0.00000  Uiso   1.00
H548   H     0.34183   0.25266   0.80532   0.00000  Uiso   1.00
H549   H     0.55438   0.02675   0.81355   0.00000  Uiso   1.00
H550   H     0.43167   0.47506   0.72288   0.00000  Uiso   1.00
H551   H     0.42674   0.21736   0.61420   0.00000  Uiso   1.00
H552   H     0.52834   0.31623   0.87950   0.00000  Uiso   1.00
H553   H     0.57061   0.28565   0.54244   0.00000  Uiso   1.00
H554   H     0.46962   0.18614   0.96388   0.00000  Uiso   1.00
N555   N     0.50000   0.24999   0.62624   0.00000  Uiso   1.00
N556   N     0.50000   0.25001   0.87377   0.00000  Uiso   1.00
O557   O     0.50000   0.18453   0.78974   0.00000  Uiso   1.00
O558   O     0.50000   0.31546   0.71026   0.00000  Uiso   1.00
O559   O     0.50000   0.18453   0.71026   0.00000  Uiso   1.00
O560   O     0.50000   0.31547   0.78974   0.00000  Uiso   1.00
O561   O     0.42392   0.25000   0.78045   0.00000  Uiso   1.00
O562   O     0.57608   0.25000   0.71956   0.00000  Uiso   1.00
O563   O     0.42392   0.24999   0.70097   0.00000  Uiso   1.00
O564   O     0.57608   0.25000   0.79904   0.00000  Uiso   1.00
Zn565  Zn    0.50000   0.25000   0.80307   0.00000  Uiso   1.00
Zn566  Zn    0.50000   0.24999   0.69693   0.00000  Uiso   1.00
C567   C     0.56282   0.11399   0.82874   0.00000  Uiso   1.00
H568   H     0.57705   0.14795   0.82668   0.00000  Uiso   1.00
O569   O     0.57355   0.09411   0.86637   0.00000  Uiso   1.00
C570   C     0.40845   0.38812   0.71812   0.00000  Uiso   1.00
H571   H     0.40144   0.35304   0.72455   0.00000  Uiso   1.00
O572   O     0.37262   0.40999   0.69676   0.00000  Uiso   1.00
C573   C     0.44433   0.11543   0.66844   0.00000  Uiso   1.00
H574   H     0.44978   0.11205   0.63154   0.00000  Uiso   1.00
O575   O     0.40818   0.13817   0.67816   0.00000  Uiso   1.00
C576   C     0.60103   0.37349   0.77890   0.00000  Uiso   1.00
H577   H     0.59707   0.34628   0.80328   0.00000  Uiso   1.00
O578   O     0.64246   0.37799   0.76362   0.00000  Uiso   1.00
C579   C     0.47547   0.02211   0.65568   0.00000  Uiso   1.00
H580   H     0.49959   0.49471   0.64662   0.00000  Uiso   1.00
O581   O     0.43496   0.03030   0.62917   0.00000  Uiso   1.00
C582   C     0.61315   0.47212   0.76667   0.00000  Uiso   1.00
H583   H     0.62122   0.00063   0.74529   0.00000  Uiso   1.00
O584   O     0.64619   0.46099   0.79978   0.00000  Uiso   1.00
C585   C     0.40240   0.22161   0.51853   0.00000  Uiso   1.00
H586   H     0.39333   0.23134   0.98156   0.00000  Uiso   1.00
O587   O     0.36985   0.19987   0.53596   0.00000  Uiso   1.00
C588   C     0.52101   0.33662   0.97076   0.00000  Uiso   1.00
H589   H     0.50864   0.34323   0.50486   0.00000  Uiso   1.00
O590   O     0.54208   0.36677   0.95155   0.00000  Uiso   1.00
Cl591  Cl    0.58712   0.30356   0.64009   0.00000  Uiso   1.00
Cl592  Cl    0.45038   0.16839   0.86704   0.00000  Uiso   1.00
C593   C     0.83359   0.16369   0.74986   0.00000  Uiso   1.00
C594   C     0.83375   0.33576   0.75010   0.00000  Uiso   1.00
C595   C     0.78610   0.23523   0.54738   0.00000  Uiso   1.00
C596   C     0.84489   0.29224   0.94769   0.00000  Uiso   1.00
C597   C     0.79122   0.23212   0.59765   0.00000  Uiso   1.00
C598   C     0.84870   0.28806   0.89856   0.00000  Uiso   1.00
C599   C     0.87177   0.27124   0.60610   0.00000  Uiso   1.00
C600   C     0.81449   0.21473   0.89714   0.00000  Uiso   1.00
C601   C     0.87111   0.27104   0.55678   0.00000  Uiso   1.00
C602   C     0.81513   0.21572   0.94642   0.00000  Uiso   1.00
C603   C     0.82790   0.25405   0.52608   0.00000  Uiso   1.00
C604   C     0.82885   0.25466   0.97280   0.00000  Uiso   1.00
C605   C     0.73375   0.24948   0.73761   0.00000  Uiso   1.00
C606   C     0.93294   0.24980   0.76242   0.00000  Uiso   1.00
C607   C     0.67879   0.24794   0.73105   0.00000  Uiso   1.00
C608   C     0.98798   0.25009   0.76914   0.00000  Uiso   1.00
C609   C     0.86903   0.04565   0.78326   0.00000  Uiso   1.00
C610   C     0.79957   0.45461   0.73240   0.00000  Uiso   1.00
C611   C     0.86581   0.09167   0.78652   0.00000  Uiso   1.00
C612   C     0.79400   0.40884   0.73415   0.00000  Uiso   1.00
C613   C     0.83626   0.11512   0.74855   0.00000  Uiso   1.00
C614   C     0.83848   0.38338   0.75056   0.00000  Uiso   1.00
C615   C     0.81327   0.09221   0.70658   0.00000  Uiso   1.00
C616   C     0.88877   0.40285   0.76264   0.00000  Uiso   1.00
C617   C     0.82426   0.04670   0.70137   0.00000  Uiso   1.00
C618   C     0.89447   0.44936   0.75715   0.00000  Uiso   1.00
C619   C     0.85000   0.02348   0.74110   0.00000  Uiso   1.00
C620   C     0.84900   0.47478   0.74230   0.00000  Uiso   1.00
H621   H     0.99171   0.24480   0.69496   0.00000  Uiso   1.00
H622   H     0.67516   0.25266   0.80532   0.00000  Uiso   1.00
H623   H     0.88771   0.02675   0.81355   0.00000  Uiso   1.00
H624   H     0.76501   0.47506   0.72288   0.00000  Uiso   1.00
H625   H     0.76007   0.21736   0.61420   0.00000  Uiso   1.00
H626   H     0.86167   0.31623   0.87950   0.00000  Uiso   1.00
H627   H     0.90394   0.28565   0.54244   0.00000  Uiso   1.00
H628   H     0.80295   0.18614   0.96388   0.00000  Uiso   1.00
N629   N     0.83333   0.24999   0.62624   0.00000  Uiso   1.00
N630   N     0.83333   0.25001   0.87377   0.00000  Uiso   1.00
O631   O     0.83334   0.18453   0.78974   0.00000  Uiso   1.00
O632   O     0.83333   0.31546   0.71026   0.00000  Uiso   1.00
O633   O     0.83334   0.18453   0.71026   0.00000  Uiso   1.00
O634   O     0.83333   0.31547   0.78974   0.00000  Uiso   1.00
O635   O     0.75725   0.25000   0.78045   0.00000  Uiso   1.00
O636   O     0.90942   0.25000   0.71956   0.00000  Uiso   1.00
O637   O     0.75725   0.24999   0.70097   0.00000  Uiso   1.00
O638   O     0.90942   0.25000   0.79904   0.00000  Uiso   1.00
Zn639  Zn    0.83333   0.25000   0.80307   0.00000  Uiso   1.00
Zn640  Zn    0.83333   0.24999   0.69693   0.00000  Uiso   1.00
C641   C     0.89615   0.11399   0.82874   0.00000  Uiso   1.00
H642   H     0.91038   0.14795   0.82668   0.00000  Uiso   1.00
O643   O     0.90688   0.09411   0.86637   0.00000  Uiso   1.00
C644   C     0.74178   0.38812   0.71812   0.00000  Uiso   1.00
H645   H     0.73478   0.35304   0.72455   0.00000  Uiso   1.00
O646   O     0.70595   0.40999   0.69676   0.00000  Uiso   1.00
C647   C     0.77767   0.11543   0.66844   0.00000  Uiso   1.00
H648   H     0.78311   0.11205   0.63154   0.00000  Uiso   1.00
O649   O     0.74151   0.13817   0.67816   0.00000  Uiso   1.00
C650   C     0.93437   0.37349   0.77890   0.00000  Uiso   1.00
H651   H     0.93040   0.34628   0.80328   0.00000  Uiso   1.00
O652   O     0.97579   0.37799   0.76362   0.00000  Uiso   1.00
C653   C     0.80880   0.02211   0.65568   0.00000  Uiso   1.00
H654   H     0.83293   0.49471   0.64662   0.00000  Uiso   1.00
O655   O     0.76829   0.03030   0.62917   0.00000  Uiso   1.00
C656   C     0.94649   0.47212   0.76667   0.00000  Uiso   1.00
H657   H     0.95455   0.00063   0.74529   0.00000  Uiso   1.00
O658   O     0.97952   0.46099   0.79978   0.00000  Uiso   1.00
C659   C     0.73574   0.22161   0.51853   0.00000  Uiso   1.00
H660   H     0.72667   0.23134   0.98156   0.00000  Uiso   1.00
O661   O     0.70319   0.19987   0.53596   0.00000  Uiso   1.00
C662   C     0.85434   0.33662   0.97076   0.00000  Uiso   1.00
H663   H     0.84197   0.34323   0.50486   0.00000  Uiso   1.00
O664   O     0.87541   0.36677   0.95155   0.00000  Uiso   1.00
Cl665  Cl    0.92046   0.30356   0.64009   0.00000  Uiso   1.00
Cl666  Cl    0.78372   0.16839   0.86704   0.00000  Uiso   1.00
C667   C     0.16692   0.66369   0.74986   0.00000  Uiso   1.00
C668   C     0.16708   0.83576   0.75010   0.00000  Uiso   1.00
C669   C     0.11943   0.73523   0.54738   0.00000  Uiso   1.00
C670   C     0.17823   0.79224   0.94769   0.00000  Uiso   1.00
C671   C     0.12455   0.73212   0.59765   0.00000  Uiso   1.00
C672   C     0.18203   0.78806   0.89856   0.00000  Uiso   1.00
C673   C     0.20511   0.77124   0.60610   0.00000  Uiso   1.00
C674   C     0.14782   0.71473   0.89714   0.00000  Uiso   1.00
C675   C     0.20445   0.77104   0.55678   0.00000  Uiso   1.00
C676   C     0.14846   0.71572   0.94642   0.00000  Uiso   1.00
C677   C     0.16124   0.75405   0.52608   0.00000  Uiso   1.00
C678   C     0.16218   0.75466   0.97280   0.00000  Uiso   1.00
C679   C     0.06709   0.74948   0.73761   0.00000  Uiso   1.00
C680   C     0.26628   0.74980   0.76242   0.00000  Uiso   1.00
C681   C     0.01212   0.74794   0.73105   0.00000  Uiso   1.00
C682   C     0.32131   0.75009   0.76914   0.00000  Uiso   1.00
C683   C     0.20236   0.54565   0.78326   0.00000  Uiso   1.00
C684   C     0.13291   0.95461   0.73240   0.00000  Uiso   1.00
C685   C     0.19914   0.59167   0.78652   0.00000  Uiso   1.00
C686   C     0.12734   0.90884   0.73415   0.00000  Uiso   1.00
C687   C     0.16959   0.61512   0.74855   0.00000  Uiso   1.00
C688   C     0.17181   0.88338   0.75056   0.00000  Uiso   1.00
C689   C     0.14661   0.59221   0.70658   0.00000  Uiso   1.00
C690   C     0.22210   0.90285   0.76264   0.00000  Uiso   1.00
C691   C     0.15759   0.54670   0.70137   0.00000  Uiso   1.00
C692   C     0.22781   0.94936   0.75715   0.00000  Uiso   1.00
C693   C     0.18333   0.52348   0.74110   0.00000  Uiso   1.00
C694   C     0.18233   0.97478   0.74230   0.00000  Uiso   1.00
H695   H     0.32504   0.74480   0.69496   0.00000  Uiso   1.00
H696   H     0.00849   0.75266   0.80532   0.00000  Uiso   1.00
H697   H     0.22104   0.52675   0.81355   0.00000  Uiso   1.00
H698   H     0.09834   0.97506   0.72288   0.00000  Uiso   1.00
H699   H     0.09340   0.71736   0.61420   0.00000  Uiso   1.00
H700   H     0.19501   0.81623   0.87950   0.00000  Uiso   1.00
H701   H     0.23727   0.78565   0.54244   0.00000  Uiso   1.00
H702   H     0.13628   0.68614   0.96388   0.00000  Uiso   1.00
N703   N     0.16667   0.74999   0.62624   0.00000  Uiso   1.00
N704   N     0.16667   0.75001   0.87377   0.00000  Uiso   1.00
O705   O     0.16667   0.68453   0.78974   0.00000  Uiso   1.00
O706   O     0.16666   0.81546   0.71026   0.00000  Uiso   1.00
O707   O     0.16667   0.68453   0.71026   0.00000  Uiso   1.00
O708   O     0.16666   0.81547   0.78974   0.00000  Uiso   1.00
O709   O     0.09058   0.75000   0.78045   0.00000  Uiso   1.00
O710   O     0.24275   0.75000   0.71956   0.00000  Uiso   1.00
O711   O     0.09058   0.74999   0.70097   0.00000  Uiso   1.00
O712   O     0.24275   0.75000   0.79904   0.00000  Uiso   1.00
Zn713  Zn    0.16667   0.75000   0.80307   0.00000  Uiso   1.00
Zn714  Zn    0.16667   0.74999   0.69693   0.00000  Uiso   1.00
C715   C     0.22948   0.61399   0.82874   0.00000  Uiso   1.00
H716   H     0.24372   0.64795   0.82668   0.00000  Uiso   1.00
O717   O     0.24022   0.59411   0.86637   0.00000  Uiso   1.00
C718   C     0.07511   0.88812   0.71812   0.00000  Uiso   1.00
H719   H     0.06811   0.85304   0.72455   0.00000  Uiso   1.00
O720   O     0.03928   0.90999   0.69676   0.00000  Uiso   1.00
C721   C     0.11100   0.61543   0.66844   0.00000  Uiso   1.00
H722   H     0.11645   0.61205   0.63154   0.00000  Uiso   1.00
O723   O     0.07484   0.63817   0.67816   0.00000  Uiso   1.00
C724   C     0.26770   0.87349   0.77890   0.00000  Uiso   1.00
H725   H     0.26373   0.84628   0.80328   0.00000  Uiso   1.00
O726   O     0.30912   0.87799   0.76362   0.00000  Uiso   1.00
C727   C     0.14213   0.52211   0.65568   0.00000  Uiso   1.00
H728   H     0.16626   0.99471   0.64662   0.00000  Uiso   1.00
O729   O     0.10163   0.53030   0.62917   0.00000  Uiso   1.00
C730   C     0.27982   0.97212   0.76667   0.00000  Uiso   1.00
H731   H     0.28789   0.50063   0.74529   0.00000  Uiso   1.00
O732   O     0.31286   0.96099   0.79978   0.00000  Uiso   1.00
C733   C     0.06907   0.72161   0.51853   0.00000  Uiso   1.00
H734   H     0.06000   0.73134   0.98156   0.00000  Uiso   1.00
O735   O     0.03652   0.69987   0.53596   0.00000  Uiso   1.00
C736   C     0.18767   0.83662   0.97076   0.00000  Uiso   1.00
H737   H     0.17530   0.84323   0.50486   0.00000  Uiso   1.00
O738   O     0.20874   0.86677   0.95155   0.00000  Uiso   1.00
Cl739  Cl    0.25379   0.80356   0.64009   0.00000  Uiso   1.00
Cl740  Cl    0.11705   0.66839   0.86704   0.00000  Uiso   1.00
C741   C     0.50026   0.66369   0.74986   0.00000  Uiso   1.00
C742   C     0.50042   0.83576   0.75010   0.00000  Uiso   1.00
C743   C     0.45276   0.73523   0.54738   0.00000  Uiso   1.00
C744   C     0.51156   0.79224   0.94769   0.00000  Uiso   1.00
C745   C     0.45789   0.73212   0.59765   0.00000  Uiso   1.00
C746   C     0.51536   0.78806   0.89856   0.00000  Uiso   1.00
C747   C     0.53844   0.77124   0.60610   0.00000  Uiso   1.00
C748   C     0.48115   0.71473   0.89714   0.00000  Uiso   1.00
C749   C     0.53778   0.77104   0.55678   0.00000  Uiso   1.00
C750   C     0.48179   0.71572   0.94642   0.00000  Uiso   1.00
C751   C     0.49457   0.75405   0.52608   0.00000  Uiso   1.00
C752   C     0.49552   0.75466   0.97280   0.00000  Uiso   1.00
C753   C     0.40042   0.74948   0.73761   0.00000  Uiso   1.00
C754   C     0.59961   0.74980   0.76242   0.00000  Uiso   1.00
C755   C     0.34545   0.74794   0.73105   0.00000  Uiso   1.00
C756   C     0.65465   0.75009   0.76914   0.00000  Uiso   1.00
C757   C     0.53570   0.54565   0.78326   0.00000  Uiso   1.00
C758   C     0.46624   0.95461   0.73240   0.00000  Uiso   1.00
C759   C     0.53247   0.59167   0.78652   0.00000  Uiso   1.00
C760   C     0.46067   0.90884   0.73415   0.00000  Uiso   1.00
C761   C     0.50293   0.61512   0.74855   0.00000  Uiso   1.00
C762   C     0.50514   0.88338   0.75056   0.00000  Uiso   1.00
C763   C     0.47994   0.59221   0.70658   0.00000  Uiso   1.00
C764   C     0.55544   0.90285   0.76264   0.00000  Uiso   1.00
C765   C     0.49093   0.54670   0.70137   0.00000  Uiso   1.00
C766   C     0.56114   0.94936   0.75715   0.00000  Uiso   1.00
C767   C     0.51666   0.52348   0.74110   0.00000  Uiso   1.00
C768   C     0.51566   0.97478   0.74230   0.00000  Uiso   1.00
H769   H     0.65838   0.74480   0.69496   0.00000  Uiso   1.00
H770   H     0.34183   0.75266   0.80532   0.00000  Uiso   1.00
H771   H     0.55438   0.52675   0.81355   0.00000  Uiso   1.00
H772   H     0.43167   0.97506   0.72288   0.00000  Uiso   1.00
H773   H     0.42674   0.71736   0.61420   0.00000  Uiso   1.00
H774   H     0.52834   0.81623   0.87950   0.00000  Uiso   1.00
H775   H     0.57061   0.78565   0.54244   0.00000  Uiso   1.00
H776   H     0.46962   0.68614   0.96388   0.00000  Uiso   1.00
N777   N     0.50000   0.74999   0.62624   0.00000  Uiso   1.00
N778   N     0.50000   0.75001   0.87377   0.00000  Uiso   1.00
O779   O     0.50000   0.68453   0.78974   0.00000  Uiso   1.00
O780   O     0.50000   0.81546   0.71026   0.00000  Uiso   1.00
O781   O     0.50000   0.68453   0.71026   0.00000  Uiso   1.00
O782   O     0.50000   0.81547   0.78974   0.00000  Uiso   1.00
O783   O     0.42392   0.75000   0.78045   0.00000  Uiso   1.00
O784   O     0.57608   0.75000   0.71956   0.00000  Uiso   1.00
O785   O     0.42392   0.74999   0.70097   0.00000  Uiso   1.00
O786   O     0.57608   0.75000   0.79904   0.00000  Uiso   1.00
Zn787  Zn    0.50000   0.75000   0.80307   0.00000  Uiso   1.00
Zn788  Zn    0.50000   0.74999   0.69693   0.00000  Uiso   1.00
C789   C     0.56282   0.61399   0.82874   0.00000  Uiso   1.00
H790   H     0.57705   0.64795   0.82668   0.00000  Uiso   1.00
O791   O     0.57355   0.59411   0.86637   0.00000  Uiso   1.00
C792   C     0.40845   0.88812   0.71812   0.00000  Uiso   1.00
H793   H     0.40144   0.85304   0.72455   0.00000  Uiso   1.00
O794   O     0.37262   0.90999   0.69676   0.00000  Uiso   1.00
C795   C     0.44433   0.61543   0.66844   0.00000  Uiso   1.00
H796   H     0.44978   0.61205   0.63154   0.00000  Uiso   1.00
O797   O     0.40818   0.63817   0.67816   0.00000  Uiso   1.00
C798   C     0.60103   0.87349   0.77890   0.00000  Uiso   1.00
H799   H     0.59707   0.84628   0.80328   0.00000  Uiso   1.00
O800   O     0.64246   0.87799   0.76362   0.00000  Uiso   1.00
C801   C     0.47547   0.52211   0.65568   0.00000  Uiso   1.00
H802   H     0.49959   0.99471   0.64662   0.00000  Uiso   1.00
O803   O     0.43496   0.53030   0.62917   0.00000  Uiso   1.00
C804   C     0.61315   0.97212   0.76667   0.00000  Uiso   1.00
H805   H     0.62122   0.50063   0.74529   0.00000  Uiso   1.00
O806   O     0.64619   0.96099   0.79978   0.00000  Uiso   1.00
C807   C     0.40240   0.72161   0.51853   0.00000  Uiso   1.00
H808   H     0.39333   0.73134   0.98156   0.00000  Uiso   1.00
O809   O     0.36985   0.69987   0.53596   0.00000  Uiso   1.00
C810   C     0.52101   0.83662   0.97076   0.00000  Uiso   1.00
H811   H     0.50864   0.84323   0.50486   0.00000  Uiso   1.00
O812   O     0.54208   0.86677   0.95155   0.00000  Uiso   1.00
Cl813  Cl    0.58712   0.80356   0.64009   0.00000  Uiso   1.00
Cl814  Cl    0.45038   0.66839   0.86704   0.00000  Uiso   1.00
C815   C     0.83359   0.66369   0.74986   0.00000  Uiso   1.00
C816   C     0.83375   0.83576   0.75010   0.00000  Uiso   1.00
C817   C     0.78610   0.73523   0.54738   0.00000  Uiso   1.00
C818   C     0.84489   0.79224   0.94769   0.00000  Uiso   1.00
C819   C     0.79122   0.73212   0.59765   0.00000  Uiso   1.00
C820   C     0.84870   0.78806   0.89856   0.00000  Uiso   1.00
C821   C     0.87177   0.77124   0.60610   0.00000  Uiso   1.00
C822   C     0.81449   0.71473   0.89714   0.00000  Uiso   1.00
C823   C     0.87111   0.77104   0.55678   0.00000  Uiso   1.00
C824   C     0.81513   0.71572   0.94642   0.00000  Uiso   1.00
C825   C     0.82790   0.75405   0.52608   0.00000  Uiso   1.00
C826   C     0.82885   0.75466   0.97280   0.00000  Uiso   1.00
C827   C     0.73375   0.74948   0.73761   0.00000  Uiso   1.00
C828   C     0.93294   0.74980   0.76242   0.00000  Uiso   1.00
C829   C     0.67879   0.74794   0.73105   0.00000  Uiso   1.00
C830   C     0.98798   0.75009   0.76914   0.00000  Uiso   1.00
C831   C     0.86903   0.54565   0.78326   0.00000  Uiso   1.00
C832   C     0.79957   0.95461   0.73240   0.00000  Uiso   1.00
C833   C     0.86581   0.59167   0.78652   0.00000  Uiso   1.00
C834   C     0.79400   0.90884   0.73415   0.00000  Uiso   1.00
C835   C     0.83626   0.61512   0.74855   0.00000  Uiso   1.00
C836   C     0.83848   0.88338   0.75056   0.00000  Uiso   1.00
C837   C     0.81327   0.59221   0.70658   0.00000  Uiso   1.00
C838   C     0.88877   0.90285   0.76264   0.00000  Uiso   1.00
C839   C     0.82426   0.54670   0.70137   0.00000  Uiso   1.00
C840   C     0.89447   0.94936   0.75715   0.00000  Uiso   1.00
C841   C     0.85000   0.52348   0.74110   0.00000  Uiso   1.00
C842   C     0.84900   0.97478   0.74230   0.00000  Uiso   1.00
H843   H     0.99171   0.74480   0.69496   0.00000  Uiso   1.00
H844   H     0.67516   0.75266   0.80532   0.00000  Uiso   1.00
H845   H     0.88771   0.52675   0.81355   0.00000  Uiso   1.00
H846   H     0.76501   0.97506   0.72288   0.00000  Uiso   1.00
H847   H     0.76007   0.71736   0.61420   0.00000  Uiso   1.00
H848   H     0.86167   0.81623   0.87950   0.00000  Uiso   1.00
H849   H     0.90394   0.78565   0.54244   0.00000  Uiso   1.00
H850   H     0.80295   0.68614   0.96388   0.00000  Uiso   1.00
N851   N     0.83333   0.74999   0.62624   0.00000  Uiso   1.00
N852   N     0.83333   0.75001   0.87377   0.00000  Uiso   1.00
O853   O     0.83334   0.68453   0.78974   0.00000  Uiso   1.00
O854   O     0.83333   0.81546   0.71026   0.00000  Uiso   1.00
O855   O     0.83334   0.68453   0.71026   0.00000  Uiso   1.00
O856   O     0.83333   0.81547   0.78974   0.00000  Uiso   1.00
O857   O     0.75725   0.75000   0.78045   0.00000  Uiso   1.00
O858   O     0.90942   0.75000   0.71956   0.00000  Uiso   1.00
O859   O     0.75725   0.74999   0.70097   0.00000  Uiso   1.00
O860   O     0.90942   0.75000   0.79904   0.00000  Uiso   1.00
Zn861  Zn    0.83333   0.75000   0.80307   0.00000  Uiso   1.00
Zn862  Zn    0.83333   0.74999   0.69693   0.00000  Uiso   1.00
C863   C     0.89615   0.61399   0.82874   0.00000  Uiso   1.00
H864   H     0.91038   0.64795   0.82668   0.00000  Uiso   1.00
O865   O     0.90688   0.59411   0.86637   0.00000  Uiso   1.00
C866   C     0.74178   0.88812   0.71812   0.00000  Uiso   1.00
H867   H     0.73478   0.85304   0.72455   0.00000  Uiso   1.00
O868   O     0.70595   0.90999   0.69676   0.00000  Uiso   1.00
C869   C     0.77767   0.61543   0.66844   0.00000  Uiso   1.00
H870   H     0.78311   0.61205   0.63154   0.00000  Uiso   1.00
O871   O     0.74151   0.63817   0.67816   0.00000  Uiso   1.00
C872   C     0.93437   0.87349   0.77890   0.00000  Uiso   1.00
H873   H     0.93040   0.84628   0.80328   0.00000  Uiso   1.00
O874   O     0.97579   0.87799   0.76362   0.00000  Uiso   1.00
C875   C     0.80880   0.52211   0.65568   0.00000  Uiso   1.00
H876   H     0.83293   0.99471   0.64662   0.00000  Uiso   1.00
O877   O     0.76829   0.53030   0.62917   0.00000  Uiso   1.00
C878   C     0.94649   0.97212   0.76667   0.00000  Uiso   1.00
H879   H     0.95455   0.50063   0.74529   0.00000  Uiso   1.00
O880   O     0.97952   0.96099   0.79978   0.00000  Uiso   1.00
C881   C     0.73574   0.72161   0.51853   0.00000  Uiso   1.00
H882   H     0.72667   0.73134   0.98156   0.00000  Uiso   1.00
O883   O     0.70319   0.69987   0.53596   0.00000  Uiso   1.00
C884   C     0.85434   0.83662   0.97076   0.00000  Uiso   1.00
H885   H     0.84197   0.84323   0.50486   0.00000  Uiso   1.00
O886   O     0.87541   0.86677   0.95155   0.00000  Uiso   1.00
Cl887  Cl    0.92046   0.80356   0.64009   0.00000  Uiso   1.00
Cl888  Cl    0.78372   0.66839   0.86704   0.00000  Uiso   1.00
loop_
_geom_bond_atom_site_label_1
_geom_bond_atom_site_label_2
_geom_bond_distance
_geom_bond_site_symmetry_2
_ccdc_geom_bond_type
C1     C21     1.457   .     S
C1     O39     1.296   .     A
C1     O41     1.288   .     A
C2     C22     1.430   .     S
C2     O42     1.283   .     A
C2     O40     1.285   .     A
C3     C11     1.426   .     A
C3     C5      1.420   .     A
C3     C67     1.485   .     S
C4     C70     1.484   .     S
C4     C6      1.421   .     A
C4     C12     1.425   .     A
C5     N37     1.363   .     A
C5     H33     1.082   .     S
C6     N38     1.365   .     A
C6     H34     1.081   .     S
C7     Cl73    1.753   .     S
C7     N37     1.370   .     A
C7     C9      1.401   .     A
C8     N38     1.373   .     A
C8     C10     1.401   .     A
C8     Cl74    1.753   .     S
C9     C11     1.403   .     A
C9     H35     1.083   .     S
C10    C12     1.401   .     A
C10    H36     1.083   .     S
C11    C456    1.520   1_554 S
C12    C455    1.520   .     S
C13    C15     1.402   .     S
C13    O43     1.278   .     A
C13    O45     1.282   .     A
C14    C16     1.403   .     S
C14    O44     1.279   .     A
C14    O46     1.281   .     A
C15    C164    1.329   1_455 S
C15    H177    1.086   1_455 S
C16    C89     1.329   .     S
C16    H104    1.088   .     S
C17    H31     1.084   .     S
C17    C27     1.394   .     A
C17    C19     1.384   .     A
C18    H32     1.085   .     S
C18    C28     1.397   .     A
C18    C20     1.379   .     A
C19    C49     1.489   .     S
C19    C21     1.416   .     A
C20    C52     1.488   .     S
C20    C22     1.402   .     A
C21    C23     1.426   .     A
C22    C24     1.414   .     A
C23    C55     1.489   .     S
C23    C25     1.405   .     A
C24    C26     1.410   .     A
C24    C58     1.490   .     S
C25    C27     1.409   .     A
C25    C61     1.495   .     S
C26    C64     1.489   .     S
C26    C28     1.413   .     A
C27    C250    1.458   1_545 S
C28    C249    1.458   .     S
H29    C89     1.086   .     S
H30    C164    1.088   1_455 S
N37    Zn48    2.012   .     S
N38    Zn47    2.012   .     S
O39    Zn47    1.996   .     S
O40    Zn48    1.996   .     S
O41    Zn48    1.996   .     S
O42    Zn47    1.996   .     S
O43    Zn47    1.972   .     S
O44    Zn48    1.972   .     S
O45    Zn48    1.982   .     S
O46    Zn47    1.982   .     S
C49    H50     1.083   .     S
C49    O51     1.221   .     D
C52    O54     1.222   .     D
C52    H53     1.085   .     S
C55    H56     1.085   .     S
C55    O57     1.221   .     D
C58    O60     1.218   .     D
C58    H59     1.084   .     S
C61    O63     1.221   .     D
C61    H284    1.086   1_545 S
H62    C283    1.086   .     S
C64    O66     1.221   .     D
C64    H287    1.085   .     S
H65    C286    1.085   1_545 S
C67    O69     1.221   .     D
C67    H512    1.084   1_554 S
H68    C511    1.084   .     S
C70    O72     1.221   .     D
C70    H515    1.084   .     S
H71    C514    1.084   1_554 S
C75    C95     1.457   .     S
C75    O113    1.296   .     A
C75    O115    1.288   .     A
C76    C96     1.430   .     S
C76    O116    1.283   .     A
C76    O114    1.285   .     A
C77    C85     1.426   .     A
C77    C79     1.420   .     A
C77    C141    1.485   .     S
C78    C144    1.484   .     S
C78    C80     1.421   .     A
C78    C86     1.425   .     A
C79    N111    1.363   .     A
C79    H107    1.082   .     S
C80    N112    1.365   .     A
C80    H108    1.081   .     S
C81    Cl147   1.753   .     S
C81    N111    1.370   .     A
C81    C83     1.401   .     A
C82    N112    1.373   .     A
C82    C84     1.401   .     A
C82    Cl148   1.753   .     S
C83    C85     1.403   .     A
C83    H109    1.083   .     S
C84    C86     1.401   .     A
C84    H110    1.083   .     S
C85    C530    1.520   1_554 S
C86    C529    1.520   .     S
C87    C89     1.402   .     S
C87    O117    1.278   .     A
C87    O119    1.282   .     A
C88    C90     1.403   .     S
C88    O118    1.279   .     A
C88    O120    1.281   .     A
C90    C163    1.329   .     S
C90    H178    1.088   .     S
C91    H105    1.084   .     S
C91    C101    1.394   .     A
C91    C93     1.384   .     A
C92    H106    1.085   .     S
C92    C102    1.397   .     A
C92    C94     1.379   .     A
C93    C123    1.489   .     S
C93    C95     1.416   .     A
C94    C126    1.488   .     S
C94    C96     1.402   .     A
C95    C97     1.426   .     A
C96    C98     1.414   .     A
C97    C129    1.489   .     S
C97    C99     1.405   .     A
C98    C100    1.410   .     A
C98    C132    1.490   .     S
C99    C101    1.409   .     A
C99    C135    1.495   .     S
C100   C138    1.489   .     S
C100   C102    1.413   .     A
C101   C324    1.458   1_545 S
C102   C323    1.458   .     S
H103   C163    1.086   .     S
N111   Zn122   2.012   .     S
N112   Zn121   2.012   .     S
O113   Zn121   1.996   .     S
O114   Zn122   1.996   .     S
O115   Zn122   1.996   .     S
O116   Zn121   1.996   .     S
O117   Zn121   1.972   .     S
O118   Zn122   1.972   .     S
O119   Zn122   1.982   .     S
O120   Zn121   1.982   .     S
C123   H124    1.083   .     S
C123   O125    1.221   .     D
C126   O128    1.222   .     D
C126   H127    1.085   .     S
C129   H130    1.085   .     S
C129   O131    1.221   .     D
C132   O134    1.218   .     D
C132   H133    1.084   .     S
C135   O137    1.221   .     D
C135   H358    1.086   1_545 S
H136   C357    1.086   .     S
C138   O140    1.221   .     D
C138   H361    1.085   .     S
H139   C360    1.085   1_545 S
C141   O143    1.221   .     D
C141   H586    1.084   1_554 S
H142   C585    1.084   .     S
C144   O146    1.221   .     D
C144   H589    1.084   .     S
H145   C588    1.084   1_554 S
C149   C169    1.457   .     S
C149   O187    1.296   .     A
C149   O189    1.288   .     A
C150   C170    1.430   .     S
C150   O190    1.283   .     A
C150   O188    1.285   .     A
C151   C159    1.426   .     A
C151   C153    1.420   .     A
C151   C215    1.485   .     S
C152   C218    1.484   .     S
C152   C154    1.421   .     A
C152   C160    1.425   .     A
C153   N185    1.363   .     A
C153   H181    1.082   .     S
C154   N186    1.365   .     A
C154   H182    1.081   .     S
C155   Cl221   1.753   .     S
C155   N185    1.370   .     A
C155   C157    1.401   .     A
C156   N186    1.373   .     A
C156   C158    1.401   .     A
C156   Cl222   1.753   .     S
C157   C159    1.403   .     A
C157   H183    1.083   .     S
C158   C160    1.401   .     A
C158   H184    1.083   .     S
C159   C604    1.520   1_554 S
C160   C603    1.520   .     S
C161   C163    1.402   .     S
C161   O191    1.278   .     A
C161   O193    1.282   .     A
C162   C164    1.403   .     S
C162   O192    1.279   .     A
C162   O194    1.281   .     A
C164   C15     1.329   1_655 S
C164   H30     1.088   1_655 S
C165   H179    1.084   .     S
C165   C175    1.394   .     A
C165   C167    1.384   .     A
C166   H180    1.085   .     S
C166   C176    1.397   .     A
C166   C168    1.379   .     A
C167   C197    1.489   .     S
C167   C169    1.416   .     A
C168   C200    1.488   .     S
C168   C170    1.402   .     A
C169   C171    1.426   .     A
C170   C172    1.414   .     A
C171   C203    1.489   .     S
C171   C173    1.405   .     A
C172   C174    1.410   .     A
C172   C206    1.490   .     S
C173   C175    1.409   .     A
C173   C209    1.495   .     S
C174   C212    1.489   .     S
C174   C176    1.413   .     A
C175   C398    1.458   1_545 S
C176   C397    1.458   .     S
H177   C15     1.086   1_655 S
N185   Zn196   2.012   .     S
N186   Zn195   2.012   .     S
O187   Zn195   1.996   .     S
O188   Zn196   1.996   .     S
O189   Zn196   1.996   .     S
O190   Zn195   1.996   .     S
O191   Zn195   1.972   .     S
O192   Zn196   1.972   .     S
O193   Zn196   1.982   .     S
O194   Zn195   1.982   .     S
C197   H198    1.083   .     S
C197   O199    1.221   .     D
C200   O202    1.222   .     D
C200   H201    1.085   .     S
C203   H204    1.085   .     S
C203   O205    1.221   .     D
C206   O208    1.218   .     D
C206   H207    1.084   .     S
C209   O211    1.221   .     D
C209   H432    1.086   1_545 S
H210   C431    1.086   .     S
C212   O214    1.221   .     D
C212   H435    1.085   .     S
H213   C434    1.085   1_545 S
C215   O217    1.221   .     D
C215   H660    1.084   1_554 S
H216   C659    1.084   .     S
C218   O220    1.221   .     D
C218   H663    1.084   .     S
H219   C662    1.084   1_554 S
C223   C243    1.457   .     S
C223   O261    1.296   .     A
C223   O263    1.288   .     A
C224   C244    1.430   .     S
C224   O264    1.283   .     A
C224   O262    1.285   .     A
C225   C233    1.426   .     A
C225   C227    1.420   .     A
C225   C289    1.485   .     S
C226   C292    1.484   .     S
C226   C228    1.421   .     A
C226   C234    1.425   .     A
C227   N259    1.363   .     A
C227   H255    1.082   .     S
C228   N260    1.365   .     A
C228   H256    1.081   .     S
C229   Cl295   1.753   .     S
C229   N259    1.370   .     A
C229   C231    1.401   .     A
C230   N260    1.373   .     A
C230   C232    1.401   .     A
C230   Cl296   1.753   .     S
C231   C233    1.403   .     A
C231   H257    1.083   .     S
C232   C234    1.401   .     A
C232   H258    1.083   .     S
C233   C678    1.520   1_554 S
C234   C677    1.520   .     S
C235   C237    1.402   .     S
C235   O265    1.278   .     A
C235   O267    1.282   .     A
C236   C238    1.403   .     S
C236   O266    1.279   .     A
C236   O268    1.281   .     A
C237   C386    1.329   1_455 S
C237   H399    1.086   1_455 S
C238   C311    1.329   .     S
C238   H326    1.088   .     S
C239   H253    1.084   .     S
C239   C249    1.394   .     A
C239   C241    1.384   .     A
C240   H254    1.085   .     S
C240   C250    1.397   .     A
C240   C242    1.379   .     A
C241   C271    1.489   .     S
C241   C243    1.416   .     A
C242   C274    1.488   .     S
C242   C244    1.402   .     A
C243   C245    1.426   .     A
C244   C246    1.414   .     A
C245   C277    1.489   .     S
C245   C247    1.405   .     A
C246   C248    1.410   .     A
C246   C280    1.490   .     S
C247   C249    1.409   .     A
C247   C283    1.495   .     S
C248   C286    1.489   .     S
C248   C250    1.413   .     A
C250   C27     1.458   1_565 S
H251   C311    1.086   .     S
H252   C386    1.088   1_455 S
N259   Zn270   2.012   .     S
N260   Zn269   2.012   .     S
O261   Zn269   1.996   .     S
O262   Zn270   1.996   .     S
O263   Zn270   1.996   .     S
O264   Zn269   1.996   .     S
O265   Zn269   1.972   .     S
O266   Zn270   1.972   .     S
O267   Zn270   1.982   .     S
O268   Zn269   1.982   .     S
C271   H272    1.083   .     S
C271   O273    1.221   .     D
C274   O276    1.222   .     D
C274   H275    1.085   .     S
C277   H278    1.085   .     S
C277   O279    1.221   .     D
C280   O282    1.218   .     D
C280   H281    1.084   .     S
C283   O285    1.221   .     D
H284   C61     1.086   1_565 S
C286   O288    1.221   .     D
C286   H65     1.085   1_565 S
C289   O291    1.221   .     D
C289   H734    1.084   1_554 S
H290   C733    1.084   .     S
C292   O294    1.221   .     D
C292   H737    1.084   .     S
H293   C736    1.084   1_554 S
C297   C317    1.457   .     S
C297   O335    1.296   .     A
C297   O337    1.288   .     A
C298   C318    1.430   .     S
C298   O338    1.283   .     A
C298   O336    1.285   .     A
C299   C307    1.426   .     A
C299   C301    1.420   .     A
C299   C363    1.485   .     S
C300   C366    1.484   .     S
C300   C302    1.421   .     A
C300   C308    1.425   .     A
C301   N333    1.363   .     A
C301   H329    1.082   .     S
C302   N334    1.365   .     A
C302   H330    1.081   .     S
C303   Cl369   1.753   .     S
C303   N333    1.370   .     A
C303   C305    1.401   .     A
C304   N334    1.373   .     A
C304   C306    1.401   .     A
C304   Cl370   1.753   .     S
C305   C307    1.403   .     A
C305   H331    1.083   .     S
C306   C308    1.401   .     A
C306   H332    1.083   .     S
C307   C752    1.520   1_554 S
C308   C751    1.520   .     S
C309   C311    1.402   .     S
C309   O339    1.278   .     A
C309   O341    1.282   .     A
C310   C312    1.403   .     S
C310   O340    1.279   .     A
C310   O342    1.281   .     A
C312   C385    1.329   .     S
C312   H400    1.088   .     S
C313   H327    1.084   .     S
C313   C323    1.394   .     A
C313   C315    1.384   .     A
C314   H328    1.085   .     S
C314   C324    1.397   .     A
C314   C316    1.379   .     A
C315   C345    1.489   .     S
C315   C317    1.416   .     A
C316   C348    1.488   .     S
C316   C318    1.402   .     A
C317   C319    1.426   .     A
C318   C320    1.414   .     A
C319   C351    1.489   .     S
C319   C321    1.405   .     A
C320   C322    1.410   .     A
C320   C354    1.490   .     S
C321   C323    1.409   .     A
C321   C357    1.495   .     S
C322   C360    1.489   .     S
C322   C324    1.413   .     A
C324   C101    1.458   1_565 S
H325   C385    1.086   .     S
N333   Zn344   2.012   .     S
N334   Zn343   2.012   .     S
O335   Zn343   1.996   .     S
O336   Zn344   1.996   .     S
O337   Zn344   1.996   .     S
O338   Zn343   1.996   .     S
O339   Zn343   1.972   .     S
O340   Zn344   1.972   .     S
O341   Zn344   1.982   .     S
O342   Zn343   1.982   .     S
C345   H346    1.083   .     S
C345   O347    1.221   .     D
C348   O350    1.222   .     D
C348   H349    1.085   .     S
C351   H352    1.085   .     S
C351   O353    1.221   .     D
C354   O356    1.218   .     D
C354   H355    1.084   .     S
C357   O359    1.221   .     D
H358   C135    1.086   1_565 S
C360   O362    1.221   .     D
C360   H139    1.085   1_565 S
C363   O365    1.221   .     D
C363   H808    1.084   1_554 S
H364   C807    1.084   .     S
C366   O368    1.221   .     D
C366   H811    1.084   .     S
H367   C810    1.084   1_554 S
C371   C391    1.457   .     S
C371   O409    1.296   .     A
C371   O411    1.288   .     A
C372   C392    1.430   .     S
C372   O412    1.283   .     A
C372   O410    1.285   .     A
C373   C381    1.426   .     A
C373   C375    1.420   .     A
C373   C437    1.485   .     S
C374   C440    1.484   .     S
C374   C376    1.421   .     A
C374   C382    1.425   .     A
C375   N407    1.363   .     A
C375   H403    1.082   .     S
C376   N408    1.365   .     A
C376   H404    1.081   .     S
C377   Cl443   1.753   .     S
C377   N407    1.370   .     A
C377   C379    1.401   .     A
C378   N408    1.373   .     A
C378   C380    1.401   .     A
C378   Cl444   1.753   .     S
C379   C381    1.403   .     A
C379   H405    1.083   .     S
C380   C382    1.401   .     A
C380   H406    1.083   .     S
C381   C826    1.520   1_554 S
C382   C825    1.520   .     S
C383   C385    1.402   .     S
C383   O413    1.278   .     A
C383   O415    1.282   .     A
C384   C386    1.403   .     S
C384   O414    1.279   .     A
C384   O416    1.281   .     A
C386   C237    1.329   1_655 S
C386   H252    1.088   1_655 S
C387   H401    1.084   .     S
C387   C397    1.394   .     A
C387   C389    1.384   .     A
C388   H402    1.085   .     S
C388   C398    1.397   .     A
C388   C390    1.379   .     A
C389   C419    1.489   .     S
C389   C391    1.416   .     A
C390   C422    1.488   .     S
C390   C392    1.402   .     A
C391   C393    1.426   .     A
C392   C394    1.414   .     A
C393   C425    1.489   .     S
C393   C395    1.405   .     A
C394   C396    1.410   .     A
C394   C428    1.490   .     S
C395   C397    1.409   .     A
C395   C431    1.495   .     S
C396   C434    1.489   .     S
C396   C398    1.413   .     A
C398   C175    1.458   1_565 S
H399   C237    1.086   1_655 S
N407   Zn418   2.012   .     S
N408   Zn417   2.012   .     S
O409   Zn417   1.996   .     S
O410   Zn418   1.996   .     S
O411   Zn418   1.996   .     S
O412   Zn417   1.996   .     S
O413   Zn417   1.972   .     S
O414   Zn418   1.972   .     S
O415   Zn418   1.982   .     S
O416   Zn417   1.982   .     S
C419   H420    1.083   .     S
C419   O421    1.221   .     D
C422   O424    1.222   .     D
C422   H423    1.085   .     S
C425   H426    1.085   .     S
C425   O427    1.221   .     D
C428   O430    1.218   .     D
C428   H429    1.084   .     S
C431   O433    1.221   .     D
H432   C209    1.086   1_565 S
C434   O436    1.221   .     D
C434   H213    1.085   1_565 S
C437   O439    1.221   .     D
C437   H882    1.084   1_554 S
H438   C881    1.084   .     S
C440   O442    1.221   .     D
C440   H885    1.084   .     S
H441   C884    1.084   1_554 S
C445   C465    1.457   .     S
C445   O483    1.296   .     A
C445   O485    1.288   .     A
C446   C466    1.430   .     S
C446   O486    1.283   .     A
C446   O484    1.285   .     A
C447   C455    1.426   .     A
C447   C449    1.420   .     A
C447   C511    1.485   .     S
C448   C514    1.484   .     S
C448   C450    1.421   .     A
C448   C456    1.425   .     A
C449   N481    1.363   .     A
C449   H477    1.082   .     S
C450   N482    1.365   .     A
C450   H478    1.081   .     S
C451   Cl517   1.753   .     S
C451   N481    1.370   .     A
C451   C453    1.401   .     A
C452   N482    1.373   .     A
C452   C454    1.401   .     A
C452   Cl518   1.753   .     S
C453   C455    1.403   .     A
C453   H479    1.083   .     S
C454   C456    1.401   .     A
C454   H480    1.083   .     S
C456   C11     1.520   1_556 S
C457   C459    1.402   .     S
C457   O487    1.278   .     A
C457   O489    1.282   .     A
C458   C460    1.403   .     S
C458   O488    1.279   .     A
C458   O490    1.281   .     A
C459   C608    1.329   1_455 S
C459   H621    1.086   1_455 S
C460   C533    1.329   .     S
C460   H548    1.088   .     S
C461   H475    1.084   .     S
C461   C471    1.394   .     A
C461   C463    1.384   .     A
C462   H476    1.085   .     S
C462   C472    1.397   .     A
C462   C464    1.379   .     A
C463   C493    1.489   .     S
C463   C465    1.416   .     A
C464   C496    1.488   .     S
C464   C466    1.402   .     A
C465   C467    1.426   .     A
C466   C468    1.414   .     A
C467   C499    1.489   .     S
C467   C469    1.405   .     A
C468   C470    1.410   .     A
C468   C502    1.490   .     S
C469   C471    1.409   .     A
C469   C505    1.495   .     S
C470   C508    1.489   .     S
C470   C472    1.413   .     A
C471   C694    1.458   1_545 S
C472   C693    1.458   .     S
H473   C533    1.086   .     S
H474   C608    1.088   1_455 S
N481   Zn492   2.012   .     S
N482   Zn491   2.012   .     S
O483   Zn491   1.996   .     S
O484   Zn492   1.996   .     S
O485   Zn492   1.996   .     S
O486   Zn491   1.996   .     S
O487   Zn491   1.972   .     S
O488   Zn492   1.972   .     S
O489   Zn492   1.982   .     S
O490   Zn491   1.982   .     S
C493   H494    1.083   .     S
C493   O495    1.221   .     D
C496   O498    1.222   .     D
C496   H497    1.085   .     S
C499   H500    1.085   .     S
C499   O501    1.221   .     D
C502   O504    1.218   .     D
C502   H503    1.084   .     S
C505   O507    1.221   .     D
C505   H728    1.086   1_545 S
H506   C727    1.086   .     S
C508   O510    1.221   .     D
C508   H731    1.085   .     S
H509   C730    1.085   1_545 S
C511   O513    1.221   .     D
H512   C67     1.084   1_556 S
C514   O516    1.221   .     D
C514   H71     1.084   1_556 S
C519   C539    1.457   .     S
C519   O557    1.296   .     A
C519   O559    1.288   .     A
C520   C540    1.430   .     S
C520   O560    1.283   .     A
C520   O558    1.285   .     A
C521   C529    1.426   .     A
C521   C523    1.420   .     A
C521   C585    1.485   .     S
C522   C588    1.484   .     S
C522   C524    1.421   .     A
C522   C530    1.425   .     A
C523   N555    1.363   .     A
C523   H551    1.082   .     S
C524   N556    1.365   .     A
C524   H552    1.081   .     S
C525   Cl591   1.753   .     S
C525   N555    1.370   .     A
C525   C527    1.401   .     A
C526   N556    1.373   .     A
C526   C528    1.401   .     A
C526   Cl592   1.753   .     S
C527   C529    1.403   .     A
C527   H553    1.083   .     S
C528   C530    1.401   .     A
C528   H554    1.083   .     S
C530   C85     1.520   1_556 S
C531   C533    1.402   .     S
C531   O561    1.278   .     A
C531   O563    1.282   .     A
C532   C534    1.403   .     S
C532   O562    1.279   .     A
C532   O564    1.281   .     A
C534   C607    1.329   .     S
C534   H622    1.088   .     S
C535   H549    1.084   .     S
C535   C545    1.394   .     A
C535   C537    1.384   .     A
C536   H550    1.085   .     S
C536   C546    1.397   .     A
C536   C538    1.379   .     A
C537   C567    1.489   .     S
C537   C539    1.416   .     A
C538   C570    1.488   .     S
C538   C540    1.402   .     A
C539   C541    1.426   .     A
C540   C542    1.414   .     A
C541   C573    1.489   .     S
C541   C543    1.405   .     A
C542   C544    1.410   .     A
C542   C576    1.490   .     S
C543   C545    1.409   .     A
C543   C579    1.495   .     S
C544   C582    1.489   .     S
C544   C546    1.413   .     A
C545   C768    1.458   1_545 S
C546   C767    1.458   .     S
H547   C607    1.086   .     S
N555   Zn566   2.012   .     S
N556   Zn565   2.012   .     S
O557   Zn565   1.996   .     S
O558   Zn566   1.996   .     S
O559   Zn566   1.996   .     S
O560   Zn565   1.996   .     S
O561   Zn565   1.972   .     S
O562   Zn566   1.972   .     S
O563   Zn566   1.982   .     S
O564   Zn565   1.982   .     S
C567   H568    1.083   .     S
C567   O569    1.221   .     D
C570   O572    1.222   .     D
C570   H571    1.085   .     S
C573   H574    1.085   .     S
C573   O575    1.221   .     D
C576   O578    1.218   .     D
C576   H577    1.084   .     S
C579   O581    1.221   .     D
C579   H802    1.086   1_545 S
H580   C801    1.086   .     S
C582   O584    1.221   .     D
C582   H805    1.085   .     S
H583   C804    1.085   1_545 S
C585   O587    1.221   .     D
H586   C141    1.084   1_556 S
C588   O590    1.221   .     D
C588   H145    1.084   1_556 S
C593   C613    1.457   .     S
C593   O631    1.296   .     A
C593   O633    1.288   .     A
C594   C614    1.430   .     S
C594   O634    1.283   .     A
C594   O632    1.285   .     A
C595   C603    1.426   .     A
C595   C597    1.420   .     A
C595   C659    1.485   .     S
C596   C662    1.484   .     S
C596   C598    1.421   .     A
C596   C604    1.425   .     A
C597   N629    1.363   .     A
C597   H625    1.082   .     S
C598   N630    1.365   .     A
C598   H626    1.081   .     S
C599   Cl665   1.753   .     S
C599   N629    1.370   .     A
C599   C601    1.401   .     A
C600   N630    1.373   .     A
C600   C602    1.401   .     A
C600   Cl666   1.753   .     S
C601   C603    1.403   .     A
C601   H627    1.083   .     S
C602   C604    1.401   .     A
C602   H628    1.083   .     S
C604   C159    1.520   1_556 S
C605   C607    1.402   .     S
C605   O635    1.278   .     A
C605   O637    1.282   .     A
C606   C608    1.403   .     S
C606   O636    1.279   .     A
C606   O638    1.281   .     A
C608   C459    1.329   1_655 S
C608   H474    1.088   1_655 S
C609   H623    1.084   .     S
C609   C619    1.394   .     A
C609   C611    1.384   .     A
C610   H624    1.085   .     S
C610   C620    1.397   .     A
C610   C612    1.379   .     A
C611   C641    1.489   .     S
C611   C613    1.416   .     A
C612   C644    1.488   .     S
C612   C614    1.402   .     A
C613   C615    1.426   .     A
C614   C616    1.414   .     A
C615   C647    1.489   .     S
C615   C617    1.405   .     A
C616   C618    1.410   .     A
C616   C650    1.490   .     S
C617   C619    1.409   .     A
C617   C653    1.495   .     S
C618   C656    1.489   .     S
C618   C620    1.413   .     A
C619   C842    1.458   1_545 S
C620   C841    1.458   .     S
H621   C459    1.086   1_655 S
N629   Zn640   2.012   .     S
N630   Zn639   2.012   .     S
O631   Zn639   1.996   .     S
O632   Zn640   1.996   .     S
O633   Zn640   1.996   .     S
O634   Zn639   1.996   .     S
O635   Zn639   1.972   .     S
O636   Zn640   1.972   .     S
O637   Zn640   1.982   .     S
O638   Zn639   1.982   .     S
C641   H642    1.083   .     S
C641   O643    1.221   .     D
C644   O646    1.222   .     D
C644   H645    1.085   .     S
C647   H648    1.085   .     S
C647   O649    1.221   .     D
C650   O652    1.218   .     D
C650   H651    1.084   .     S
C653   O655    1.221   .     D
C653   H876    1.086   1_545 S
H654   C875    1.086   .     S
C656   O658    1.221   .     D
C656   H879    1.085   .     S
H657   C878    1.085   1_545 S
C659   O661    1.221   .     D
H660   C215    1.084   1_556 S
C662   O664    1.221   .     D
C662   H219    1.084   1_556 S
C667   C687    1.457   .     S
C667   O705    1.296   .     A
C667   O707    1.288   .     A
C668   C688    1.430   .     S
C668   O708    1.283   .     A
C668   O706    1.285   .     A
C669   C677    1.426   .     A
C669   C671    1.420   .     A
C669   C733    1.485   .     S
C670   C736    1.484   .     S
C670   C672    1.421   .     A
C670   C678    1.425   .     A
C671   N703    1.363   .     A
C671   H699    1.082   .     S
C672   N704    1.365   .     A
C672   H700    1.081   .     S
C673   Cl739   1.753   .     S
C673   N703    1.370   .     A
C673   C675    1.401   .     A
C674   N704    1.373   .     A
C674   C676    1.401   .     A
C674   Cl740   1.753   .     S
C675   C677    1.403   .     A
C675   H701    1.083   .     S
C676   C678    1.401   .     A
C676   H702    1.083   .     S
C678   C233    1.520   1_556 S
C679   C681    1.402   .     S
C679   O709    1.278   .     A
C679   O711    1.282   .     A
C680   C682    1.403   .     S
C680   O710    1.279   .     A
C680   O712    1.281   .     A
C681   C830    1.329   1_455 S
C681   H843    1.086   1_455 S
C682   C755    1.329   .     S
C682   H770    1.088   .     S
C683   H697    1.084   .     S
C683   C693    1.394   .     A
C683   C685    1.384   .     A
C684   H698    1.085   .     S
C684   C694    1.397   .     A
C684   C686    1.379   .     A
C685   C715    1.489   .     S
C685   C687    1.416   .     A
C686   C718    1.488   .     S
C686   C688    1.402   .     A
C687   C689    1.426   .     A
C688   C690    1.414   .     A
C689   C721    1.489   .     S
C689   C691    1.405   .     A
C690   C692    1.410   .     A
C690   C724    1.490   .     S
C691   C693    1.409   .     A
C691   C727    1.495   .     S
C692   C730    1.489   .     S
C692   C694    1.413   .     A
C694   C471    1.458   1_565 S
H695   C755    1.086   .     S
H696   C830    1.088   1_455 S
N703   Zn714   2.012   .     S
N704   Zn713   2.012   .     S
O705   Zn713   1.996   .     S
O706   Zn714   1.996   .     S
O707   Zn714   1.996   .     S
O708   Zn713   1.996   .     S
O709   Zn713   1.972   .     S
O710   Zn714   1.972   .     S
O711   Zn714   1.982   .     S
O712   Zn713   1.982   .     S
C715   H716    1.083   .     S
C715   O717    1.221   .     D
C718   O720    1.222   .     D
C718   H719    1.085   .     S
C721   H722    1.085   .     S
C721   O723    1.221   .     D
C724   O726    1.218   .     D
C724   H725    1.084   .     S
C727   O729    1.221   .     D
H728   C505    1.086   1_565 S
C730   O732    1.221   .     D
C730   H509    1.085   1_565 S
C733   O735    1.221   .     D
H734   C289    1.084   1_556 S
C736   O738    1.221   .     D
C736   H293    1.084   1_556 S
C741   C761    1.457   .     S
C741   O779    1.296   .     A
C741   O781    1.288   .     A
C742   C762    1.430   .     S
C742   O782    1.283   .     A
C742   O780    1.285   .     A
C743   C751    1.426   .     A
C743   C745    1.420   .     A
C743   C807    1.485   .     S
C744   C810    1.484   .     S
C744   C746    1.421   .     A
C744   C752    1.425   .     A
C745   N777    1.363   .     A
C745   H773    1.082   .     S
C746   N778    1.365   .     A
C746   H774    1.081   .     S
C747   Cl813   1.753   .     S
C747   N777    1.370   .     A
C747   C749    1.401   .     A
C748   N778    1.373   .     A
C748   C750    1.401   .     A
C748   Cl814   1.753   .     S
C749   C751    1.403   .     A
C749   H775    1.083   .     S
C750   C752    1.401   .     A
C750   H776    1.083   .     S
C752   C307    1.520   1_556 S
C753   C755    1.402   .     S
C753   O783    1.278   .     A
C753   O785    1.282   .     A
C754   C756    1.403   .     S
C754   O784    1.279   .     A
C754   O786    1.281   .     A
C756   C829    1.329   .     S
C756   H844    1.088   .     S
C757   H771    1.084   .     S
C757   C767    1.394   .     A
C757   C759    1.384   .     A
C758   H772    1.085   .     S
C758   C768    1.397   .     A
C758   C760    1.379   .     A
C759   C789    1.489   .     S
C759   C761    1.416   .     A
C760   C792    1.488   .     S
C760   C762    1.402   .     A
C761   C763    1.426   .     A
C762   C764    1.414   .     A
C763   C795    1.489   .     S
C763   C765    1.405   .     A
C764   C766    1.410   .     A
C764   C798    1.490   .     S
C765   C767    1.409   .     A
C765   C801    1.495   .     S
C766   C804    1.489   .     S
C766   C768    1.413   .     A
C768   C545    1.458   1_565 S
H769   C829    1.086   .     S
N777   Zn788   2.012   .     S
N778   Zn787   2.012   .     S
O779   Zn787   1.996   .     S
O780   Zn788   1.996   .     S
O781   Zn788   1.996   .     S
O782   Zn787   1.996   .     S
O783   Zn787   1.972   .     S
O784   Zn788   1.972   .     S
O785   Zn788   1.982   .     S
O786   Zn787   1.982   .     S
C789   H790    1.083   .     S
C789   O791    1.221   .     D
C792   O794    1.222   .     D
C792   H793    1.085   .     S
C795   H796    1.085   .     S
C795   O797    1.221   .     D
C798   O800    1.218   .     D
C798   H799    1.084   .     S
C801   O803    1.221   .     D
H802   C579    1.086   1_565 S
C804   O806    1.221   .     D
C804   H583    1.085   1_565 S
C807   O809    1.221   .     D
H808   C363    1.084   1_556 S
C810   O812    1.221   .     D
C810   H367    1.084   1_556 S
C815   C835    1.457   .     S
C815   O853    1.296   .     A
C815   O855    1.288   .     A
C816   C836    1.430   .     S
C816   O856    1.283   .     A
C816   O854    1.285   .     A
C817   C825    1.426   .     A
C817   C819    1.420   .     A
C817   C881    1.485   .     S
C818   C884    1.484   .     S
C818   C820    1.421   .     A
C818   C826    1.425   .     A
C819   N851    1.363   .     A
C819   H847    1.082   .     S
C820   N852    1.365   .     A
C820   H848    1.081   .     S
C821   Cl887   1.753   .     S
C821   N851    1.370   .     A
C821   C823    1.401   .     A
C822   N852    1.373   .     A
C822   C824    1.401   .     A
C822   Cl888   1.753   .     S
C823   C825    1.403   .     A
C823   H849    1.083   .     S
C824   C826    1.401   .     A
C824   H850    1.083   .     S
C826   C381    1.520   1_556 S
C827   C829    1.402   .     S
C827   O857    1.278   .     A
C827   O859    1.282   .     A
C828   C830    1.403   .     S
C828   O858    1.279   .     A
C828   O860    1.281   .     A
C830   C681    1.329   1_655 S
C830   H696    1.088   1_655 S
C831   H845    1.084   .     S
C831   C841    1.394   .     A
C831   C833    1.384   .     A
C832   H846    1.085   .     S
C832   C842    1.397   .     A
C832   C834    1.379   .     A
C833   C863    1.489   .     S
C833   C835    1.416   .     A
C834   C866    1.488   .     S
C834   C836    1.402   .     A
C835   C837    1.426   .     A
C836   C838    1.414   .     A
C837   C869    1.489   .     S
C837   C839    1.405   .     A
C838   C840    1.410   .     A
C838   C872    1.490   .     S
C839   C841    1.409   .     A
C839   C875    1.495   .     S
C840   C878    1.489   .     S
C840   C842    1.413   .     A
C842   C619    1.458   1_565 S
H843   C681    1.086   1_655 S
N851   Zn862   2.012   .     S
N852   Zn861   2.012   .     S
O853   Zn861   1.996   .     S
O854   Zn862   1.996   .     S
O855   Zn862   1.996   .     S
O856   Zn861   1.996   .     S
O857   Zn861   1.972   .     S
O858   Zn862   1.972   .     S
O859   Zn862   1.982   .     S
O860   Zn861   1.982   .     S
C863   H864    1.083   .     S
C863   O865    1.221   .     D
C866   O868    1.222   .     D
C866   H867    1.085   .     S
C869   H870    1.085   .     S
C869   O871    1.221   .     D
C872   O874    1.218   .     D
C872   H873    1.084   .     S
C875   O877    1.221   .     D
H876   C653    1.086   1_565 S
C878   O880    1.221   .     D
C878   H657    1.085   1_565 S
C881   O883    1.221   .     D
H882   C437    1.084   1_556 S
C884   O886    1.221   .     D
C884   H441    1.084   1_556 S
