data_str_m3_o10_o16_pcu_sym.135
_audit_creation_date              2020-01-03
_audit_creation_method            'Materials Studio'
_symmetry_space_group_name_H-M    'P1'
_symmetry_Int_Tables_number       1
_symmetry_cell_setting            triclinic
loop_
_symmetry_equiv_pos_as_xyz
  x,y,z
_cell_length_a                    23.5370
_cell_length_b                    25.5187
_cell_length_c                    24.1375
_cell_angle_alpha                 92.1962
_cell_angle_beta                  101.0983
_cell_angle_gamma                 93.9884
loop_
_atom_site_label
_atom_site_type_symbol
_atom_site_fract_x
_atom_site_fract_y
_atom_site_fract_z
_atom_site_U_iso_or_equiv
_atom_site_adp_type
_atom_site_occupancy
O1     O     0.29769   0.24629   0.25357   0.00000  Uiso   1.00
O2     O     0.05742   0.23704   0.24424   0.00000  Uiso   1.00
C3     C     0.01242   0.26414   0.24158   0.00000  Uiso   1.00
O4     O     0.31490   0.17358   0.33380   0.00000  Uiso   1.00
O5     O     0.07463   0.16433   0.32446   0.00000  Uiso   1.00
C6     C     0.03550   0.16892   0.35532   0.00000  Uiso   1.00
Zn7    Zn    0.27119   0.17284   0.25623   0.00000  Uiso   1.00
Zn8    Zn    0.06214   0.16049   0.24377   0.00000  Uiso   1.00
O9     O     0.27592   0.09629   0.25576   0.00000  Uiso   1.00
O10    O     0.03565   0.08704   0.24643   0.00000  Uiso   1.00
O11    O     0.25870   0.16901   0.17554   0.00000  Uiso   1.00
O12    O     0.01843   0.15976   0.16620   0.00000  Uiso   1.00
C13    C     0.31668   0.06845   0.24470   0.00000  Uiso   1.00
C14    C     0.29783   0.16408   0.14473   0.00000  Uiso   1.00
C15    C     0.27927   0.11407   0.49520   0.00000  Uiso   1.00
H16    H     0.01602   0.11558   0.06653   0.00000  Uiso   1.00
H17    H     0.29996   0.08694   0.47146   0.00000  Uiso   1.00
C18    C     0.27938   0.16040   0.08391   0.00000  Uiso   1.00
C19    C     0.03293   0.21621   0.44412   0.00000  Uiso   1.00
C20    C     0.06891   0.24563   0.48827   0.00000  Uiso   1.00
C21    C     0.12650   0.23411   0.00516   0.00000  Uiso   1.00
C22    C     0.14534   0.18631   0.48462   0.00000  Uiso   1.00
C23    C     0.10812   0.15598   0.44038   0.00000  Uiso   1.00
C24    C     0.19977   0.16768   0.00594   0.00000  Uiso   1.00
C25    C     0.22235   0.12806   0.47532   0.00000  Uiso   1.00
C26    C     0.18506   0.09868   0.43086   0.00000  Uiso   1.00
C27    C     0.12639   0.10895   0.41832   0.00000  Uiso   1.00
C28    C     0.22761   0.18106   0.06124   0.00000  Uiso   1.00
C29    C     0.30797   0.13061   0.04959   0.00000  Uiso   1.00
C30    C     0.05508   0.17556   0.41623   0.00000  Uiso   1.00
H31    H     0.20558   0.20239   0.08924   0.00000  Uiso   1.00
H32    H     0.32465   0.23048   0.42644   0.00000  Uiso   1.00
H33    H     0.05396   0.28116   0.00465   0.00000  Uiso   1.00
C34    C     0.01478   0.31707   0.22475   0.00000  Uiso   1.00
C35    C     0.30408   0.01364   0.23094   0.00000  Uiso   1.00
N36    N     0.14493   0.15223   0.23543   0.00000  Uiso   1.00
H37    H     0.15649   0.12497   0.20791   0.00000  Uiso   1.00
N38    N     0.18840   0.18110   0.26458   0.00000  Uiso   1.00
N39    N     0.24476   0.32551   0.22557   0.00000  Uiso   1.00
O40    O     0.22045   0.29512   0.18165   0.00000  Uiso   1.00
O41    O     0.21343   0.00696   0.26136   0.00000  Uiso   1.00
Br42   Br    0.17547   0.23281   0.31720   0.00000  Uiso   1.00
Br43   Br    0.21108   0.03947   0.39308   0.00000  Uiso   1.00
Br44   Br    0.17814   0.29202   0.04316   0.00000  Uiso   1.00
Br45   Br    0.07032   0.05433   0.37904   0.00000  Uiso   1.00
Br46   Br    0.08150   0.00649   0.19295   0.00000  Uiso   1.00
O47    O     0.63102   0.24629   0.25357   0.00000  Uiso   1.00
O48    O     0.39075   0.23704   0.24424   0.00000  Uiso   1.00
C49    C     0.34575   0.26414   0.24158   0.00000  Uiso   1.00
O50    O     0.64823   0.17358   0.33380   0.00000  Uiso   1.00
O51    O     0.40796   0.16433   0.32446   0.00000  Uiso   1.00
C52    C     0.36883   0.16892   0.35532   0.00000  Uiso   1.00
Zn53   Zn    0.60453   0.17284   0.25623   0.00000  Uiso   1.00
Zn54   Zn    0.39547   0.16049   0.24377   0.00000  Uiso   1.00
O55    O     0.60925   0.09629   0.25576   0.00000  Uiso   1.00
O56    O     0.36898   0.08704   0.24643   0.00000  Uiso   1.00
O57    O     0.59204   0.16901   0.17554   0.00000  Uiso   1.00
O58    O     0.35177   0.15976   0.16620   0.00000  Uiso   1.00
C59    C     0.65001   0.06845   0.24470   0.00000  Uiso   1.00
C60    C     0.63116   0.16408   0.14473   0.00000  Uiso   1.00
C61    C     0.61261   0.11407   0.49520   0.00000  Uiso   1.00
H62    H     0.34935   0.11558   0.06653   0.00000  Uiso   1.00
H63    H     0.63329   0.08694   0.47146   0.00000  Uiso   1.00
C64    C     0.61271   0.16040   0.08391   0.00000  Uiso   1.00
C65    C     0.36626   0.21621   0.44412   0.00000  Uiso   1.00
C66    C     0.40225   0.24563   0.48827   0.00000  Uiso   1.00
C67    C     0.45984   0.23411   0.00516   0.00000  Uiso   1.00
C68    C     0.47868   0.18631   0.48462   0.00000  Uiso   1.00
C69    C     0.44145   0.15598   0.44038   0.00000  Uiso   1.00
C70    C     0.53311   0.16768   0.00594   0.00000  Uiso   1.00
C71    C     0.55569   0.12806   0.47532   0.00000  Uiso   1.00
C72    C     0.51839   0.09868   0.43086   0.00000  Uiso   1.00
C73    C     0.45972   0.10895   0.41832   0.00000  Uiso   1.00
C74    C     0.56094   0.18106   0.06124   0.00000  Uiso   1.00
C75    C     0.64130   0.13061   0.04959   0.00000  Uiso   1.00
C76    C     0.38842   0.17556   0.41623   0.00000  Uiso   1.00
H77    H     0.53892   0.20239   0.08924   0.00000  Uiso   1.00
H78    H     0.65799   0.23048   0.42644   0.00000  Uiso   1.00
H79    H     0.38729   0.28116   0.00465   0.00000  Uiso   1.00
C80    C     0.34811   0.31707   0.22475   0.00000  Uiso   1.00
C81    C     0.63741   0.01364   0.23094   0.00000  Uiso   1.00
N82    N     0.47827   0.15223   0.23543   0.00000  Uiso   1.00
H83    H     0.48983   0.12497   0.20791   0.00000  Uiso   1.00
N84    N     0.52173   0.18110   0.26458   0.00000  Uiso   1.00
N85    N     0.57810   0.32551   0.22557   0.00000  Uiso   1.00
O86    O     0.55378   0.29512   0.18165   0.00000  Uiso   1.00
O87    O     0.54676   0.00696   0.26136   0.00000  Uiso   1.00
Br88   Br    0.50881   0.23281   0.31720   0.00000  Uiso   1.00
Br89   Br    0.54441   0.03947   0.39308   0.00000  Uiso   1.00
Br90   Br    0.51147   0.29202   0.04316   0.00000  Uiso   1.00
Br91   Br    0.40365   0.05433   0.37904   0.00000  Uiso   1.00
Br92   Br    0.41483   0.00649   0.19295   0.00000  Uiso   1.00
O93    O     0.96435   0.24629   0.25357   0.00000  Uiso   1.00
O94    O     0.72408   0.23704   0.24424   0.00000  Uiso   1.00
C95    C     0.67909   0.26414   0.24158   0.00000  Uiso   1.00
O96    O     0.98157   0.17358   0.33380   0.00000  Uiso   1.00
O97    O     0.74130   0.16433   0.32446   0.00000  Uiso   1.00
C98    C     0.70217   0.16892   0.35532   0.00000  Uiso   1.00
Zn99   Zn    0.93786   0.17284   0.25623   0.00000  Uiso   1.00
Zn100  Zn    0.72881   0.16049   0.24377   0.00000  Uiso   1.00
O101   O     0.94258   0.09629   0.25576   0.00000  Uiso   1.00
O102   O     0.70231   0.08704   0.24643   0.00000  Uiso   1.00
O103   O     0.92537   0.16901   0.17554   0.00000  Uiso   1.00
O104   O     0.68510   0.15976   0.16620   0.00000  Uiso   1.00
C105   C     0.98334   0.06845   0.24470   0.00000  Uiso   1.00
C106   C     0.96449   0.16408   0.14473   0.00000  Uiso   1.00
C107   C     0.94594   0.11407   0.49520   0.00000  Uiso   1.00
H108   H     0.68269   0.11558   0.06653   0.00000  Uiso   1.00
H109   H     0.96662   0.08694   0.47146   0.00000  Uiso   1.00
C110   C     0.94605   0.16040   0.08391   0.00000  Uiso   1.00
C111   C     0.69960   0.21621   0.44412   0.00000  Uiso   1.00
C112   C     0.73558   0.24563   0.48827   0.00000  Uiso   1.00
C113   C     0.79317   0.23411   0.00516   0.00000  Uiso   1.00
C114   C     0.81201   0.18631   0.48462   0.00000  Uiso   1.00
C115   C     0.77478   0.15598   0.44038   0.00000  Uiso   1.00
C116   C     0.86644   0.16768   0.00594   0.00000  Uiso   1.00
C117   C     0.88902   0.12806   0.47532   0.00000  Uiso   1.00
C118   C     0.85173   0.09868   0.43086   0.00000  Uiso   1.00
C119   C     0.79305   0.10895   0.41832   0.00000  Uiso   1.00
C120   C     0.89427   0.18106   0.06124   0.00000  Uiso   1.00
C121   C     0.97464   0.13061   0.04959   0.00000  Uiso   1.00
C122   C     0.72175   0.17556   0.41623   0.00000  Uiso   1.00
H123   H     0.87225   0.20239   0.08924   0.00000  Uiso   1.00
H124   H     0.99132   0.23048   0.42644   0.00000  Uiso   1.00
H125   H     0.72062   0.28116   0.00465   0.00000  Uiso   1.00
C126   C     0.68145   0.31707   0.22475   0.00000  Uiso   1.00
C127   C     0.97075   0.01364   0.23094   0.00000  Uiso   1.00
N128   N     0.81160   0.15223   0.23543   0.00000  Uiso   1.00
H129   H     0.82316   0.12497   0.20791   0.00000  Uiso   1.00
N130   N     0.85507   0.18110   0.26458   0.00000  Uiso   1.00
N131   N     0.91143   0.32551   0.22557   0.00000  Uiso   1.00
O132   O     0.88712   0.29512   0.18165   0.00000  Uiso   1.00
O133   O     0.88009   0.00696   0.26136   0.00000  Uiso   1.00
Br134  Br    0.84214   0.23281   0.31720   0.00000  Uiso   1.00
Br135  Br    0.87774   0.03947   0.39308   0.00000  Uiso   1.00
Br136  Br    0.84481   0.29202   0.04316   0.00000  Uiso   1.00
Br137  Br    0.73698   0.05433   0.37904   0.00000  Uiso   1.00
Br138  Br    0.74816   0.00649   0.19295   0.00000  Uiso   1.00
O139   O     0.29769   0.57963   0.25357   0.00000  Uiso   1.00
O140   O     0.05742   0.57038   0.24424   0.00000  Uiso   1.00
C141   C     0.01242   0.59748   0.24158   0.00000  Uiso   1.00
O142   O     0.31490   0.50691   0.33380   0.00000  Uiso   1.00
O143   O     0.07463   0.49766   0.32446   0.00000  Uiso   1.00
C144   C     0.03550   0.50225   0.35532   0.00000  Uiso   1.00
Zn145  Zn    0.27119   0.50618   0.25623   0.00000  Uiso   1.00
Zn146  Zn    0.06214   0.49382   0.24377   0.00000  Uiso   1.00
O147   O     0.27592   0.42962   0.25576   0.00000  Uiso   1.00
O148   O     0.03565   0.42037   0.24643   0.00000  Uiso   1.00
O149   O     0.25870   0.50234   0.17554   0.00000  Uiso   1.00
O150   O     0.01843   0.49309   0.16620   0.00000  Uiso   1.00
C151   C     0.31668   0.40179   0.24470   0.00000  Uiso   1.00
C152   C     0.29783   0.49741   0.14473   0.00000  Uiso   1.00
C153   C     0.27927   0.44741   0.49520   0.00000  Uiso   1.00
H154   H     0.01602   0.44892   0.06653   0.00000  Uiso   1.00
H155   H     0.29996   0.42027   0.47146   0.00000  Uiso   1.00
C156   C     0.27938   0.49373   0.08391   0.00000  Uiso   1.00
C157   C     0.03293   0.54954   0.44412   0.00000  Uiso   1.00
C158   C     0.06891   0.57896   0.48827   0.00000  Uiso   1.00
C159   C     0.12650   0.56744   0.00516   0.00000  Uiso   1.00
C160   C     0.14534   0.51964   0.48462   0.00000  Uiso   1.00
C161   C     0.10812   0.48931   0.44038   0.00000  Uiso   1.00
C162   C     0.19977   0.50102   0.00594   0.00000  Uiso   1.00
C163   C     0.22235   0.46139   0.47532   0.00000  Uiso   1.00
C164   C     0.18506   0.43201   0.43086   0.00000  Uiso   1.00
C165   C     0.12639   0.44228   0.41832   0.00000  Uiso   1.00
C166   C     0.22761   0.51439   0.06124   0.00000  Uiso   1.00
C167   C     0.30797   0.46395   0.04959   0.00000  Uiso   1.00
C168   C     0.05508   0.50890   0.41623   0.00000  Uiso   1.00
H169   H     0.20558   0.53572   0.08924   0.00000  Uiso   1.00
H170   H     0.32465   0.56381   0.42644   0.00000  Uiso   1.00
H171   H     0.05396   0.61449   0.00465   0.00000  Uiso   1.00
C172   C     0.01478   0.65040   0.22475   0.00000  Uiso   1.00
C173   C     0.30408   0.34697   0.23094   0.00000  Uiso   1.00
N174   N     0.14493   0.48556   0.23543   0.00000  Uiso   1.00
H175   H     0.15649   0.45831   0.20791   0.00000  Uiso   1.00
N176   N     0.18840   0.51444   0.26458   0.00000  Uiso   1.00
N177   N     0.24476   0.65885   0.22557   0.00000  Uiso   1.00
O178   O     0.22045   0.62846   0.18165   0.00000  Uiso   1.00
O179   O     0.21343   0.34029   0.26136   0.00000  Uiso   1.00
Br180  Br    0.17547   0.56615   0.31720   0.00000  Uiso   1.00
Br181  Br    0.21108   0.37280   0.39308   0.00000  Uiso   1.00
Br182  Br    0.17814   0.62535   0.04316   0.00000  Uiso   1.00
Br183  Br    0.07032   0.38766   0.37904   0.00000  Uiso   1.00
Br184  Br    0.08150   0.33983   0.19295   0.00000  Uiso   1.00
O185   O     0.63102   0.57963   0.25357   0.00000  Uiso   1.00
O186   O     0.39075   0.57038   0.24424   0.00000  Uiso   1.00
C187   C     0.34575   0.59748   0.24158   0.00000  Uiso   1.00
O188   O     0.64823   0.50691   0.33380   0.00000  Uiso   1.00
O189   O     0.40796   0.49766   0.32446   0.00000  Uiso   1.00
C190   C     0.36883   0.50225   0.35532   0.00000  Uiso   1.00
Zn191  Zn    0.60453   0.50618   0.25623   0.00000  Uiso   1.00
Zn192  Zn    0.39547   0.49382   0.24377   0.00000  Uiso   1.00
O193   O     0.60925   0.42962   0.25576   0.00000  Uiso   1.00
O194   O     0.36898   0.42037   0.24643   0.00000  Uiso   1.00
O195   O     0.59204   0.50234   0.17554   0.00000  Uiso   1.00
O196   O     0.35177   0.49309   0.16620   0.00000  Uiso   1.00
C197   C     0.65001   0.40179   0.24470   0.00000  Uiso   1.00
C198   C     0.63116   0.49741   0.14473   0.00000  Uiso   1.00
C199   C     0.61261   0.44741   0.49520   0.00000  Uiso   1.00
H200   H     0.34935   0.44892   0.06653   0.00000  Uiso   1.00
H201   H     0.63329   0.42027   0.47146   0.00000  Uiso   1.00
C202   C     0.61271   0.49373   0.08391   0.00000  Uiso   1.00
C203   C     0.36626   0.54954   0.44412   0.00000  Uiso   1.00
C204   C     0.40225   0.57896   0.48827   0.00000  Uiso   1.00
C205   C     0.45984   0.56744   0.00516   0.00000  Uiso   1.00
C206   C     0.47868   0.51964   0.48462   0.00000  Uiso   1.00
C207   C     0.44145   0.48931   0.44038   0.00000  Uiso   1.00
C208   C     0.53311   0.50102   0.00594   0.00000  Uiso   1.00
C209   C     0.55569   0.46139   0.47532   0.00000  Uiso   1.00
C210   C     0.51839   0.43201   0.43086   0.00000  Uiso   1.00
C211   C     0.45972   0.44228   0.41832   0.00000  Uiso   1.00
C212   C     0.56094   0.51439   0.06124   0.00000  Uiso   1.00
C213   C     0.64130   0.46395   0.04959   0.00000  Uiso   1.00
C214   C     0.38842   0.50890   0.41623   0.00000  Uiso   1.00
H215   H     0.53892   0.53572   0.08924   0.00000  Uiso   1.00
H216   H     0.65799   0.56381   0.42644   0.00000  Uiso   1.00
H217   H     0.38729   0.61449   0.00465   0.00000  Uiso   1.00
C218   C     0.34811   0.65040   0.22475   0.00000  Uiso   1.00
C219   C     0.63741   0.34697   0.23094   0.00000  Uiso   1.00
N220   N     0.47827   0.48556   0.23543   0.00000  Uiso   1.00
H221   H     0.48983   0.45831   0.20791   0.00000  Uiso   1.00
N222   N     0.52173   0.51444   0.26458   0.00000  Uiso   1.00
N223   N     0.57810   0.65885   0.22557   0.00000  Uiso   1.00
O224   O     0.55378   0.62846   0.18165   0.00000  Uiso   1.00
O225   O     0.54676   0.34029   0.26136   0.00000  Uiso   1.00
Br226  Br    0.50881   0.56615   0.31720   0.00000  Uiso   1.00
Br227  Br    0.54441   0.37280   0.39308   0.00000  Uiso   1.00
Br228  Br    0.51147   0.62535   0.04316   0.00000  Uiso   1.00
Br229  Br    0.40365   0.38766   0.37904   0.00000  Uiso   1.00
Br230  Br    0.41483   0.33983   0.19295   0.00000  Uiso   1.00
O231   O     0.96435   0.57963   0.25357   0.00000  Uiso   1.00
O232   O     0.72408   0.57038   0.24424   0.00000  Uiso   1.00
C233   C     0.67909   0.59748   0.24158   0.00000  Uiso   1.00
O234   O     0.98157   0.50691   0.33380   0.00000  Uiso   1.00
O235   O     0.74130   0.49766   0.32446   0.00000  Uiso   1.00
C236   C     0.70217   0.50225   0.35532   0.00000  Uiso   1.00
Zn237  Zn    0.93786   0.50618   0.25623   0.00000  Uiso   1.00
Zn238  Zn    0.72881   0.49382   0.24377   0.00000  Uiso   1.00
O239   O     0.94258   0.42962   0.25576   0.00000  Uiso   1.00
O240   O     0.70231   0.42037   0.24643   0.00000  Uiso   1.00
O241   O     0.92537   0.50234   0.17554   0.00000  Uiso   1.00
O242   O     0.68510   0.49309   0.16620   0.00000  Uiso   1.00
C243   C     0.98334   0.40179   0.24470   0.00000  Uiso   1.00
C244   C     0.96449   0.49741   0.14473   0.00000  Uiso   1.00
C245   C     0.94594   0.44741   0.49520   0.00000  Uiso   1.00
H246   H     0.68269   0.44892   0.06653   0.00000  Uiso   1.00
H247   H     0.96662   0.42027   0.47146   0.00000  Uiso   1.00
C248   C     0.94605   0.49373   0.08391   0.00000  Uiso   1.00
C249   C     0.69960   0.54954   0.44412   0.00000  Uiso   1.00
C250   C     0.73558   0.57896   0.48827   0.00000  Uiso   1.00
C251   C     0.79317   0.56744   0.00516   0.00000  Uiso   1.00
C252   C     0.81201   0.51964   0.48462   0.00000  Uiso   1.00
C253   C     0.77478   0.48931   0.44038   0.00000  Uiso   1.00
C254   C     0.86644   0.50102   0.00594   0.00000  Uiso   1.00
C255   C     0.88902   0.46139   0.47532   0.00000  Uiso   1.00
C256   C     0.85173   0.43201   0.43086   0.00000  Uiso   1.00
C257   C     0.79305   0.44228   0.41832   0.00000  Uiso   1.00
C258   C     0.89427   0.51439   0.06124   0.00000  Uiso   1.00
C259   C     0.97464   0.46395   0.04959   0.00000  Uiso   1.00
C260   C     0.72175   0.50890   0.41623   0.00000  Uiso   1.00
H261   H     0.87225   0.53572   0.08924   0.00000  Uiso   1.00
H262   H     0.99132   0.56381   0.42644   0.00000  Uiso   1.00
H263   H     0.72062   0.61449   0.00465   0.00000  Uiso   1.00
C264   C     0.68145   0.65040   0.22475   0.00000  Uiso   1.00
C265   C     0.97075   0.34697   0.23094   0.00000  Uiso   1.00
N266   N     0.81160   0.48556   0.23543   0.00000  Uiso   1.00
H267   H     0.82316   0.45831   0.20791   0.00000  Uiso   1.00
N268   N     0.85507   0.51444   0.26458   0.00000  Uiso   1.00
N269   N     0.91143   0.65885   0.22557   0.00000  Uiso   1.00
O270   O     0.88712   0.62846   0.18165   0.00000  Uiso   1.00
O271   O     0.88009   0.34029   0.26136   0.00000  Uiso   1.00
Br272  Br    0.84214   0.56615   0.31720   0.00000  Uiso   1.00
Br273  Br    0.87774   0.37280   0.39308   0.00000  Uiso   1.00
Br274  Br    0.84481   0.62535   0.04316   0.00000  Uiso   1.00
Br275  Br    0.73698   0.38766   0.37904   0.00000  Uiso   1.00
Br276  Br    0.74816   0.33983   0.19295   0.00000  Uiso   1.00
O277   O     0.29769   0.91296   0.25357   0.00000  Uiso   1.00
O278   O     0.05742   0.90371   0.24424   0.00000  Uiso   1.00
C279   C     0.01242   0.93081   0.24158   0.00000  Uiso   1.00
O280   O     0.31490   0.84024   0.33380   0.00000  Uiso   1.00
O281   O     0.07463   0.83099   0.32446   0.00000  Uiso   1.00
C282   C     0.03550   0.83559   0.35532   0.00000  Uiso   1.00
Zn283  Zn    0.27119   0.83951   0.25623   0.00000  Uiso   1.00
Zn284  Zn    0.06214   0.82716   0.24377   0.00000  Uiso   1.00
O285   O     0.27592   0.76296   0.25576   0.00000  Uiso   1.00
O286   O     0.03565   0.75371   0.24643   0.00000  Uiso   1.00
O287   O     0.25870   0.83567   0.17554   0.00000  Uiso   1.00
O288   O     0.01843   0.82642   0.16620   0.00000  Uiso   1.00
C289   C     0.31668   0.73512   0.24470   0.00000  Uiso   1.00
C290   C     0.29783   0.83075   0.14473   0.00000  Uiso   1.00
C291   C     0.27927   0.78074   0.49520   0.00000  Uiso   1.00
H292   H     0.01602   0.78225   0.06653   0.00000  Uiso   1.00
H293   H     0.29996   0.75361   0.47146   0.00000  Uiso   1.00
C294   C     0.27938   0.82706   0.08391   0.00000  Uiso   1.00
C295   C     0.03293   0.88287   0.44412   0.00000  Uiso   1.00
C296   C     0.06891   0.91229   0.48827   0.00000  Uiso   1.00
C297   C     0.12650   0.90077   0.00516   0.00000  Uiso   1.00
C298   C     0.14534   0.85298   0.48462   0.00000  Uiso   1.00
C299   C     0.10812   0.82265   0.44038   0.00000  Uiso   1.00
C300   C     0.19977   0.83435   0.00594   0.00000  Uiso   1.00
C301   C     0.22235   0.79473   0.47532   0.00000  Uiso   1.00
C302   C     0.18506   0.76535   0.43086   0.00000  Uiso   1.00
C303   C     0.12639   0.77561   0.41832   0.00000  Uiso   1.00
C304   C     0.22761   0.84773   0.06124   0.00000  Uiso   1.00
C305   C     0.30797   0.79728   0.04959   0.00000  Uiso   1.00
C306   C     0.05508   0.84223   0.41623   0.00000  Uiso   1.00
H307   H     0.20558   0.86906   0.08924   0.00000  Uiso   1.00
H308   H     0.32465   0.89715   0.42644   0.00000  Uiso   1.00
H309   H     0.05396   0.94783   0.00465   0.00000  Uiso   1.00
C310   C     0.01478   0.98374   0.22475   0.00000  Uiso   1.00
C311   C     0.30408   0.68031   0.23094   0.00000  Uiso   1.00
N312   N     0.14493   0.81890   0.23543   0.00000  Uiso   1.00
H313   H     0.15649   0.79164   0.20791   0.00000  Uiso   1.00
N314   N     0.18840   0.84777   0.26458   0.00000  Uiso   1.00
N315   N     0.24476   0.99218   0.22557   0.00000  Uiso   1.00
O316   O     0.22045   0.96179   0.18165   0.00000  Uiso   1.00
O317   O     0.21343   0.67362   0.26136   0.00000  Uiso   1.00
Br318  Br    0.17547   0.89948   0.31720   0.00000  Uiso   1.00
Br319  Br    0.21108   0.70613   0.39308   0.00000  Uiso   1.00
Br320  Br    0.17814   0.95869   0.04316   0.00000  Uiso   1.00
Br321  Br    0.07032   0.72100   0.37904   0.00000  Uiso   1.00
Br322  Br    0.08150   0.67316   0.19295   0.00000  Uiso   1.00
O323   O     0.63102   0.91296   0.25357   0.00000  Uiso   1.00
O324   O     0.39075   0.90371   0.24424   0.00000  Uiso   1.00
C325   C     0.34575   0.93081   0.24158   0.00000  Uiso   1.00
O326   O     0.64823   0.84024   0.33380   0.00000  Uiso   1.00
O327   O     0.40796   0.83099   0.32446   0.00000  Uiso   1.00
C328   C     0.36883   0.83559   0.35532   0.00000  Uiso   1.00
Zn329  Zn    0.60453   0.83951   0.25623   0.00000  Uiso   1.00
Zn330  Zn    0.39547   0.82716   0.24377   0.00000  Uiso   1.00
O331   O     0.60925   0.76296   0.25576   0.00000  Uiso   1.00
O332   O     0.36898   0.75371   0.24643   0.00000  Uiso   1.00
O333   O     0.59204   0.83567   0.17554   0.00000  Uiso   1.00
O334   O     0.35177   0.82642   0.16620   0.00000  Uiso   1.00
C335   C     0.65001   0.73512   0.24470   0.00000  Uiso   1.00
C336   C     0.63116   0.83075   0.14473   0.00000  Uiso   1.00
C337   C     0.61261   0.78074   0.49520   0.00000  Uiso   1.00
H338   H     0.34935   0.78225   0.06653   0.00000  Uiso   1.00
H339   H     0.63329   0.75361   0.47146   0.00000  Uiso   1.00
C340   C     0.61271   0.82706   0.08391   0.00000  Uiso   1.00
C341   C     0.36626   0.88287   0.44412   0.00000  Uiso   1.00
C342   C     0.40225   0.91229   0.48827   0.00000  Uiso   1.00
C343   C     0.45984   0.90077   0.00516   0.00000  Uiso   1.00
C344   C     0.47868   0.85298   0.48462   0.00000  Uiso   1.00
C345   C     0.44145   0.82265   0.44038   0.00000  Uiso   1.00
C346   C     0.53311   0.83435   0.00594   0.00000  Uiso   1.00
C347   C     0.55569   0.79473   0.47532   0.00000  Uiso   1.00
C348   C     0.51839   0.76535   0.43086   0.00000  Uiso   1.00
C349   C     0.45972   0.77561   0.41832   0.00000  Uiso   1.00
C350   C     0.56094   0.84773   0.06124   0.00000  Uiso   1.00
C351   C     0.64130   0.79728   0.04959   0.00000  Uiso   1.00
C352   C     0.38842   0.84223   0.41623   0.00000  Uiso   1.00
H353   H     0.53892   0.86906   0.08924   0.00000  Uiso   1.00
H354   H     0.65799   0.89715   0.42644   0.00000  Uiso   1.00
H355   H     0.38729   0.94783   0.00465   0.00000  Uiso   1.00
C356   C     0.34811   0.98374   0.22475   0.00000  Uiso   1.00
C357   C     0.63741   0.68031   0.23094   0.00000  Uiso   1.00
N358   N     0.47827   0.81890   0.23543   0.00000  Uiso   1.00
H359   H     0.48983   0.79164   0.20791   0.00000  Uiso   1.00
N360   N     0.52173   0.84777   0.26458   0.00000  Uiso   1.00
N361   N     0.57810   0.99218   0.22557   0.00000  Uiso   1.00
O362   O     0.55378   0.96179   0.18165   0.00000  Uiso   1.00
O363   O     0.54676   0.67362   0.26136   0.00000  Uiso   1.00
Br364  Br    0.50881   0.89948   0.31720   0.00000  Uiso   1.00
Br365  Br    0.54441   0.70613   0.39308   0.00000  Uiso   1.00
Br366  Br    0.51147   0.95869   0.04316   0.00000  Uiso   1.00
Br367  Br    0.40365   0.72100   0.37904   0.00000  Uiso   1.00
Br368  Br    0.41483   0.67316   0.19295   0.00000  Uiso   1.00
O369   O     0.96435   0.91296   0.25357   0.00000  Uiso   1.00
O370   O     0.72408   0.90371   0.24424   0.00000  Uiso   1.00
C371   C     0.67909   0.93081   0.24158   0.00000  Uiso   1.00
O372   O     0.98157   0.84024   0.33380   0.00000  Uiso   1.00
O373   O     0.74130   0.83099   0.32446   0.00000  Uiso   1.00
C374   C     0.70217   0.83559   0.35532   0.00000  Uiso   1.00
Zn375  Zn    0.93786   0.83951   0.25623   0.00000  Uiso   1.00
Zn376  Zn    0.72881   0.82716   0.24377   0.00000  Uiso   1.00
O377   O     0.94258   0.76296   0.25576   0.00000  Uiso   1.00
O378   O     0.70231   0.75371   0.24643   0.00000  Uiso   1.00
O379   O     0.92537   0.83567   0.17554   0.00000  Uiso   1.00
O380   O     0.68510   0.82642   0.16620   0.00000  Uiso   1.00
C381   C     0.98334   0.73512   0.24470   0.00000  Uiso   1.00
C382   C     0.96449   0.83075   0.14473   0.00000  Uiso   1.00
C383   C     0.94594   0.78074   0.49520   0.00000  Uiso   1.00
H384   H     0.68269   0.78225   0.06653   0.00000  Uiso   1.00
H385   H     0.96662   0.75361   0.47146   0.00000  Uiso   1.00
C386   C     0.94605   0.82706   0.08391   0.00000  Uiso   1.00
C387   C     0.69960   0.88287   0.44412   0.00000  Uiso   1.00
C388   C     0.73558   0.91229   0.48827   0.00000  Uiso   1.00
C389   C     0.79317   0.90077   0.00516   0.00000  Uiso   1.00
C390   C     0.81201   0.85298   0.48462   0.00000  Uiso   1.00
C391   C     0.77478   0.82265   0.44038   0.00000  Uiso   1.00
C392   C     0.86644   0.83435   0.00594   0.00000  Uiso   1.00
C393   C     0.88902   0.79473   0.47532   0.00000  Uiso   1.00
C394   C     0.85173   0.76535   0.43086   0.00000  Uiso   1.00
C395   C     0.79305   0.77561   0.41832   0.00000  Uiso   1.00
C396   C     0.89427   0.84773   0.06124   0.00000  Uiso   1.00
C397   C     0.97464   0.79728   0.04959   0.00000  Uiso   1.00
C398   C     0.72175   0.84223   0.41623   0.00000  Uiso   1.00
H399   H     0.87225   0.86906   0.08924   0.00000  Uiso   1.00
H400   H     0.99132   0.89715   0.42644   0.00000  Uiso   1.00
H401   H     0.72062   0.94783   0.00465   0.00000  Uiso   1.00
C402   C     0.68145   0.98374   0.22475   0.00000  Uiso   1.00
C403   C     0.97075   0.68031   0.23094   0.00000  Uiso   1.00
N404   N     0.81160   0.81890   0.23543   0.00000  Uiso   1.00
H405   H     0.82316   0.79164   0.20791   0.00000  Uiso   1.00
N406   N     0.85507   0.84777   0.26458   0.00000  Uiso   1.00
N407   N     0.91143   0.99218   0.22557   0.00000  Uiso   1.00
O408   O     0.88712   0.96179   0.18165   0.00000  Uiso   1.00
O409   O     0.88009   0.67362   0.26136   0.00000  Uiso   1.00
Br410  Br    0.84214   0.89948   0.31720   0.00000  Uiso   1.00
Br411  Br    0.87774   0.70613   0.39308   0.00000  Uiso   1.00
Br412  Br    0.84481   0.95869   0.04316   0.00000  Uiso   1.00
Br413  Br    0.73698   0.72100   0.37904   0.00000  Uiso   1.00
Br414  Br    0.74816   0.67316   0.19295   0.00000  Uiso   1.00
O415   O     0.29769   0.24629   0.75357   0.00000  Uiso   1.00
O416   O     0.05742   0.23704   0.74424   0.00000  Uiso   1.00
C417   C     0.01242   0.26414   0.74158   0.00000  Uiso   1.00
O418   O     0.31490   0.17358   0.83380   0.00000  Uiso   1.00
O419   O     0.07463   0.16433   0.82446   0.00000  Uiso   1.00
C420   C     0.03550   0.16892   0.85532   0.00000  Uiso   1.00
Zn421  Zn    0.27119   0.17284   0.75623   0.00000  Uiso   1.00
Zn422  Zn    0.06214   0.16049   0.74377   0.00000  Uiso   1.00
O423   O     0.27592   0.09629   0.75576   0.00000  Uiso   1.00
O424   O     0.03565   0.08704   0.74643   0.00000  Uiso   1.00
O425   O     0.25870   0.16901   0.67554   0.00000  Uiso   1.00
O426   O     0.01843   0.15976   0.66620   0.00000  Uiso   1.00
C427   C     0.31668   0.06845   0.74470   0.00000  Uiso   1.00
C428   C     0.29783   0.16408   0.64473   0.00000  Uiso   1.00
C429   C     0.27927   0.11407   0.99520   0.00000  Uiso   1.00
H430   H     0.01602   0.11558   0.56653   0.00000  Uiso   1.00
H431   H     0.29996   0.08694   0.97146   0.00000  Uiso   1.00
C432   C     0.27938   0.16040   0.58391   0.00000  Uiso   1.00
C433   C     0.03293   0.21621   0.94412   0.00000  Uiso   1.00
C434   C     0.06891   0.24563   0.98827   0.00000  Uiso   1.00
C435   C     0.12650   0.23411   0.50516   0.00000  Uiso   1.00
C436   C     0.14534   0.18631   0.98462   0.00000  Uiso   1.00
C437   C     0.10812   0.15598   0.94038   0.00000  Uiso   1.00
C438   C     0.19977   0.16768   0.50594   0.00000  Uiso   1.00
C439   C     0.22235   0.12806   0.97532   0.00000  Uiso   1.00
C440   C     0.18506   0.09868   0.93086   0.00000  Uiso   1.00
C441   C     0.12639   0.10895   0.91832   0.00000  Uiso   1.00
C442   C     0.22761   0.18106   0.56124   0.00000  Uiso   1.00
C443   C     0.30797   0.13061   0.54959   0.00000  Uiso   1.00
C444   C     0.05508   0.17556   0.91623   0.00000  Uiso   1.00
H445   H     0.20558   0.20239   0.58924   0.00000  Uiso   1.00
H446   H     0.32465   0.23048   0.92644   0.00000  Uiso   1.00
H447   H     0.05396   0.28116   0.50465   0.00000  Uiso   1.00
C448   C     0.01478   0.31707   0.72475   0.00000  Uiso   1.00
C449   C     0.30408   0.01364   0.73094   0.00000  Uiso   1.00
N450   N     0.14493   0.15223   0.73543   0.00000  Uiso   1.00
H451   H     0.15649   0.12497   0.70791   0.00000  Uiso   1.00
N452   N     0.18840   0.18110   0.76458   0.00000  Uiso   1.00
N453   N     0.24476   0.32551   0.72557   0.00000  Uiso   1.00
O454   O     0.22045   0.29512   0.68165   0.00000  Uiso   1.00
O455   O     0.21343   0.00696   0.76136   0.00000  Uiso   1.00
Br456  Br    0.17547   0.23281   0.81720   0.00000  Uiso   1.00
Br457  Br    0.21108   0.03947   0.89308   0.00000  Uiso   1.00
Br458  Br    0.17814   0.29202   0.54316   0.00000  Uiso   1.00
Br459  Br    0.07032   0.05433   0.87904   0.00000  Uiso   1.00
Br460  Br    0.08150   0.00649   0.69295   0.00000  Uiso   1.00
O461   O     0.63102   0.24629   0.75357   0.00000  Uiso   1.00
O462   O     0.39075   0.23704   0.74424   0.00000  Uiso   1.00
C463   C     0.34575   0.26414   0.74158   0.00000  Uiso   1.00
O464   O     0.64823   0.17358   0.83380   0.00000  Uiso   1.00
O465   O     0.40796   0.16433   0.82446   0.00000  Uiso   1.00
C466   C     0.36883   0.16892   0.85532   0.00000  Uiso   1.00
Zn467  Zn    0.60453   0.17284   0.75623   0.00000  Uiso   1.00
Zn468  Zn    0.39547   0.16049   0.74377   0.00000  Uiso   1.00
O469   O     0.60925   0.09629   0.75576   0.00000  Uiso   1.00
O470   O     0.36898   0.08704   0.74643   0.00000  Uiso   1.00
O471   O     0.59204   0.16901   0.67554   0.00000  Uiso   1.00
O472   O     0.35177   0.15976   0.66620   0.00000  Uiso   1.00
C473   C     0.65001   0.06845   0.74470   0.00000  Uiso   1.00
C474   C     0.63116   0.16408   0.64473   0.00000  Uiso   1.00
C475   C     0.61261   0.11407   0.99520   0.00000  Uiso   1.00
H476   H     0.34935   0.11558   0.56653   0.00000  Uiso   1.00
H477   H     0.63329   0.08694   0.97146   0.00000  Uiso   1.00
C478   C     0.61271   0.16040   0.58391   0.00000  Uiso   1.00
C479   C     0.36626   0.21621   0.94412   0.00000  Uiso   1.00
C480   C     0.40225   0.24563   0.98827   0.00000  Uiso   1.00
C481   C     0.45984   0.23411   0.50516   0.00000  Uiso   1.00
C482   C     0.47868   0.18631   0.98462   0.00000  Uiso   1.00
C483   C     0.44145   0.15598   0.94038   0.00000  Uiso   1.00
C484   C     0.53311   0.16768   0.50594   0.00000  Uiso   1.00
C485   C     0.55569   0.12806   0.97532   0.00000  Uiso   1.00
C486   C     0.51839   0.09868   0.93086   0.00000  Uiso   1.00
C487   C     0.45972   0.10895   0.91832   0.00000  Uiso   1.00
C488   C     0.56094   0.18106   0.56124   0.00000  Uiso   1.00
C489   C     0.64130   0.13061   0.54959   0.00000  Uiso   1.00
C490   C     0.38842   0.17556   0.91623   0.00000  Uiso   1.00
H491   H     0.53892   0.20239   0.58924   0.00000  Uiso   1.00
H492   H     0.65799   0.23048   0.92644   0.00000  Uiso   1.00
H493   H     0.38729   0.28116   0.50465   0.00000  Uiso   1.00
C494   C     0.34811   0.31707   0.72475   0.00000  Uiso   1.00
C495   C     0.63741   0.01364   0.73094   0.00000  Uiso   1.00
N496   N     0.47827   0.15223   0.73543   0.00000  Uiso   1.00
H497   H     0.48983   0.12497   0.70791   0.00000  Uiso   1.00
N498   N     0.52173   0.18110   0.76458   0.00000  Uiso   1.00
N499   N     0.57810   0.32551   0.72557   0.00000  Uiso   1.00
O500   O     0.55378   0.29512   0.68165   0.00000  Uiso   1.00
O501   O     0.54676   0.00696   0.76136   0.00000  Uiso   1.00
Br502  Br    0.50881   0.23281   0.81720   0.00000  Uiso   1.00
Br503  Br    0.54441   0.03947   0.89308   0.00000  Uiso   1.00
Br504  Br    0.51147   0.29202   0.54316   0.00000  Uiso   1.00
Br505  Br    0.40365   0.05433   0.87904   0.00000  Uiso   1.00
Br506  Br    0.41483   0.00649   0.69295   0.00000  Uiso   1.00
O507   O     0.96435   0.24629   0.75357   0.00000  Uiso   1.00
O508   O     0.72408   0.23704   0.74424   0.00000  Uiso   1.00
C509   C     0.67909   0.26414   0.74158   0.00000  Uiso   1.00
O510   O     0.98157   0.17358   0.83380   0.00000  Uiso   1.00
O511   O     0.74130   0.16433   0.82446   0.00000  Uiso   1.00
C512   C     0.70217   0.16892   0.85532   0.00000  Uiso   1.00
Zn513  Zn    0.93786   0.17284   0.75623   0.00000  Uiso   1.00
Zn514  Zn    0.72881   0.16049   0.74377   0.00000  Uiso   1.00
O515   O     0.94258   0.09629   0.75576   0.00000  Uiso   1.00
O516   O     0.70231   0.08704   0.74643   0.00000  Uiso   1.00
O517   O     0.92537   0.16901   0.67554   0.00000  Uiso   1.00
O518   O     0.68510   0.15976   0.66620   0.00000  Uiso   1.00
C519   C     0.98334   0.06845   0.74470   0.00000  Uiso   1.00
C520   C     0.96449   0.16408   0.64473   0.00000  Uiso   1.00
C521   C     0.94594   0.11407   0.99520   0.00000  Uiso   1.00
H522   H     0.68269   0.11558   0.56653   0.00000  Uiso   1.00
H523   H     0.96662   0.08694   0.97146   0.00000  Uiso   1.00
C524   C     0.94605   0.16040   0.58391   0.00000  Uiso   1.00
C525   C     0.69960   0.21621   0.94412   0.00000  Uiso   1.00
C526   C     0.73558   0.24563   0.98827   0.00000  Uiso   1.00
C527   C     0.79317   0.23411   0.50516   0.00000  Uiso   1.00
C528   C     0.81201   0.18631   0.98462   0.00000  Uiso   1.00
C529   C     0.77478   0.15598   0.94038   0.00000  Uiso   1.00
C530   C     0.86644   0.16768   0.50594   0.00000  Uiso   1.00
C531   C     0.88902   0.12806   0.97532   0.00000  Uiso   1.00
C532   C     0.85173   0.09868   0.93086   0.00000  Uiso   1.00
C533   C     0.79305   0.10895   0.91832   0.00000  Uiso   1.00
C534   C     0.89427   0.18106   0.56124   0.00000  Uiso   1.00
C535   C     0.97464   0.13061   0.54959   0.00000  Uiso   1.00
C536   C     0.72175   0.17556   0.91623   0.00000  Uiso   1.00
H537   H     0.87225   0.20239   0.58924   0.00000  Uiso   1.00
H538   H     0.99132   0.23048   0.92644   0.00000  Uiso   1.00
H539   H     0.72062   0.28116   0.50465   0.00000  Uiso   1.00
C540   C     0.68145   0.31707   0.72475   0.00000  Uiso   1.00
C541   C     0.97075   0.01364   0.73094   0.00000  Uiso   1.00
N542   N     0.81160   0.15223   0.73543   0.00000  Uiso   1.00
H543   H     0.82316   0.12497   0.70791   0.00000  Uiso   1.00
N544   N     0.85507   0.18110   0.76458   0.00000  Uiso   1.00
N545   N     0.91143   0.32551   0.72557   0.00000  Uiso   1.00
O546   O     0.88712   0.29512   0.68165   0.00000  Uiso   1.00
O547   O     0.88009   0.00696   0.76136   0.00000  Uiso   1.00
Br548  Br    0.84214   0.23281   0.81720   0.00000  Uiso   1.00
Br549  Br    0.87774   0.03947   0.89308   0.00000  Uiso   1.00
Br550  Br    0.84481   0.29202   0.54316   0.00000  Uiso   1.00
Br551  Br    0.73698   0.05433   0.87904   0.00000  Uiso   1.00
Br552  Br    0.74816   0.00649   0.69295   0.00000  Uiso   1.00
O553   O     0.29769   0.57963   0.75357   0.00000  Uiso   1.00
O554   O     0.05742   0.57038   0.74424   0.00000  Uiso   1.00
C555   C     0.01242   0.59748   0.74158   0.00000  Uiso   1.00
O556   O     0.31490   0.50691   0.83380   0.00000  Uiso   1.00
O557   O     0.07463   0.49766   0.82446   0.00000  Uiso   1.00
C558   C     0.03550   0.50225   0.85532   0.00000  Uiso   1.00
Zn559  Zn    0.27119   0.50618   0.75623   0.00000  Uiso   1.00
Zn560  Zn    0.06214   0.49382   0.74377   0.00000  Uiso   1.00
O561   O     0.27592   0.42962   0.75576   0.00000  Uiso   1.00
O562   O     0.03565   0.42037   0.74643   0.00000  Uiso   1.00
O563   O     0.25870   0.50234   0.67554   0.00000  Uiso   1.00
O564   O     0.01843   0.49309   0.66620   0.00000  Uiso   1.00
C565   C     0.31668   0.40179   0.74470   0.00000  Uiso   1.00
C566   C     0.29783   0.49741   0.64473   0.00000  Uiso   1.00
C567   C     0.27927   0.44741   0.99520   0.00000  Uiso   1.00
H568   H     0.01602   0.44892   0.56653   0.00000  Uiso   1.00
H569   H     0.29996   0.42027   0.97146   0.00000  Uiso   1.00
C570   C     0.27938   0.49373   0.58391   0.00000  Uiso   1.00
C571   C     0.03293   0.54954   0.94412   0.00000  Uiso   1.00
C572   C     0.06891   0.57896   0.98827   0.00000  Uiso   1.00
C573   C     0.12650   0.56744   0.50516   0.00000  Uiso   1.00
C574   C     0.14534   0.51964   0.98462   0.00000  Uiso   1.00
C575   C     0.10812   0.48931   0.94038   0.00000  Uiso   1.00
C576   C     0.19977   0.50102   0.50594   0.00000  Uiso   1.00
C577   C     0.22235   0.46139   0.97532   0.00000  Uiso   1.00
C578   C     0.18506   0.43201   0.93086   0.00000  Uiso   1.00
C579   C     0.12639   0.44228   0.91832   0.00000  Uiso   1.00
C580   C     0.22761   0.51439   0.56124   0.00000  Uiso   1.00
C581   C     0.30797   0.46395   0.54959   0.00000  Uiso   1.00
C582   C     0.05508   0.50890   0.91623   0.00000  Uiso   1.00
H583   H     0.20558   0.53572   0.58924   0.00000  Uiso   1.00
H584   H     0.32465   0.56381   0.92644   0.00000  Uiso   1.00
H585   H     0.05396   0.61449   0.50465   0.00000  Uiso   1.00
C586   C     0.01478   0.65040   0.72475   0.00000  Uiso   1.00
C587   C     0.30408   0.34697   0.73094   0.00000  Uiso   1.00
N588   N     0.14493   0.48556   0.73543   0.00000  Uiso   1.00
H589   H     0.15649   0.45831   0.70791   0.00000  Uiso   1.00
N590   N     0.18840   0.51444   0.76458   0.00000  Uiso   1.00
N591   N     0.24476   0.65885   0.72557   0.00000  Uiso   1.00
O592   O     0.22045   0.62846   0.68165   0.00000  Uiso   1.00
O593   O     0.21343   0.34029   0.76136   0.00000  Uiso   1.00
Br594  Br    0.17547   0.56615   0.81720   0.00000  Uiso   1.00
Br595  Br    0.21108   0.37280   0.89308   0.00000  Uiso   1.00
Br596  Br    0.17814   0.62535   0.54316   0.00000  Uiso   1.00
Br597  Br    0.07032   0.38766   0.87904   0.00000  Uiso   1.00
Br598  Br    0.08150   0.33983   0.69295   0.00000  Uiso   1.00
O599   O     0.63102   0.57963   0.75357   0.00000  Uiso   1.00
O600   O     0.39075   0.57038   0.74424   0.00000  Uiso   1.00
C601   C     0.34575   0.59748   0.74158   0.00000  Uiso   1.00
O602   O     0.64823   0.50691   0.83380   0.00000  Uiso   1.00
O603   O     0.40796   0.49766   0.82446   0.00000  Uiso   1.00
C604   C     0.36883   0.50225   0.85532   0.00000  Uiso   1.00
Zn605  Zn    0.60453   0.50618   0.75623   0.00000  Uiso   1.00
Zn606  Zn    0.39547   0.49382   0.74377   0.00000  Uiso   1.00
O607   O     0.60925   0.42962   0.75576   0.00000  Uiso   1.00
O608   O     0.36898   0.42037   0.74643   0.00000  Uiso   1.00
O609   O     0.59204   0.50234   0.67554   0.00000  Uiso   1.00
O610   O     0.35177   0.49309   0.66620   0.00000  Uiso   1.00
C611   C     0.65001   0.40179   0.74470   0.00000  Uiso   1.00
C612   C     0.63116   0.49741   0.64473   0.00000  Uiso   1.00
C613   C     0.61261   0.44741   0.99520   0.00000  Uiso   1.00
H614   H     0.34935   0.44892   0.56653   0.00000  Uiso   1.00
H615   H     0.63329   0.42027   0.97146   0.00000  Uiso   1.00
C616   C     0.61271   0.49373   0.58391   0.00000  Uiso   1.00
C617   C     0.36626   0.54954   0.94412   0.00000  Uiso   1.00
C618   C     0.40225   0.57896   0.98827   0.00000  Uiso   1.00
C619   C     0.45984   0.56744   0.50516   0.00000  Uiso   1.00
C620   C     0.47868   0.51964   0.98462   0.00000  Uiso   1.00
C621   C     0.44145   0.48931   0.94038   0.00000  Uiso   1.00
C622   C     0.53311   0.50102   0.50594   0.00000  Uiso   1.00
C623   C     0.55569   0.46139   0.97532   0.00000  Uiso   1.00
C624   C     0.51839   0.43201   0.93086   0.00000  Uiso   1.00
C625   C     0.45972   0.44228   0.91832   0.00000  Uiso   1.00
C626   C     0.56094   0.51439   0.56124   0.00000  Uiso   1.00
C627   C     0.64130   0.46395   0.54959   0.00000  Uiso   1.00
C628   C     0.38842   0.50890   0.91623   0.00000  Uiso   1.00
H629   H     0.53892   0.53572   0.58924   0.00000  Uiso   1.00
H630   H     0.65799   0.56381   0.92644   0.00000  Uiso   1.00
H631   H     0.38729   0.61449   0.50465   0.00000  Uiso   1.00
C632   C     0.34811   0.65040   0.72475   0.00000  Uiso   1.00
C633   C     0.63741   0.34697   0.73094   0.00000  Uiso   1.00
N634   N     0.47827   0.48556   0.73543   0.00000  Uiso   1.00
H635   H     0.48983   0.45831   0.70791   0.00000  Uiso   1.00
N636   N     0.52173   0.51444   0.76458   0.00000  Uiso   1.00
N637   N     0.57810   0.65885   0.72557   0.00000  Uiso   1.00
O638   O     0.55378   0.62846   0.68165   0.00000  Uiso   1.00
O639   O     0.54676   0.34029   0.76136   0.00000  Uiso   1.00
Br640  Br    0.50881   0.56615   0.81720   0.00000  Uiso   1.00
Br641  Br    0.54441   0.37280   0.89308   0.00000  Uiso   1.00
Br642  Br    0.51147   0.62535   0.54316   0.00000  Uiso   1.00
Br643  Br    0.40365   0.38766   0.87904   0.00000  Uiso   1.00
Br644  Br    0.41483   0.33983   0.69295   0.00000  Uiso   1.00
O645   O     0.96435   0.57963   0.75357   0.00000  Uiso   1.00
O646   O     0.72408   0.57038   0.74424   0.00000  Uiso   1.00
C647   C     0.67909   0.59748   0.74158   0.00000  Uiso   1.00
O648   O     0.98157   0.50691   0.83380   0.00000  Uiso   1.00
O649   O     0.74130   0.49766   0.82446   0.00000  Uiso   1.00
C650   C     0.70217   0.50225   0.85532   0.00000  Uiso   1.00
Zn651  Zn    0.93786   0.50618   0.75623   0.00000  Uiso   1.00
Zn652  Zn    0.72881   0.49382   0.74377   0.00000  Uiso   1.00
O653   O     0.94258   0.42962   0.75576   0.00000  Uiso   1.00
O654   O     0.70231   0.42037   0.74643   0.00000  Uiso   1.00
O655   O     0.92537   0.50234   0.67554   0.00000  Uiso   1.00
O656   O     0.68510   0.49309   0.66620   0.00000  Uiso   1.00
C657   C     0.98334   0.40179   0.74470   0.00000  Uiso   1.00
C658   C     0.96449   0.49741   0.64473   0.00000  Uiso   1.00
C659   C     0.94594   0.44741   0.99520   0.00000  Uiso   1.00
H660   H     0.68269   0.44892   0.56653   0.00000  Uiso   1.00
H661   H     0.96662   0.42027   0.97146   0.00000  Uiso   1.00
C662   C     0.94605   0.49373   0.58391   0.00000  Uiso   1.00
C663   C     0.69960   0.54954   0.94412   0.00000  Uiso   1.00
C664   C     0.73558   0.57896   0.98827   0.00000  Uiso   1.00
C665   C     0.79317   0.56744   0.50516   0.00000  Uiso   1.00
C666   C     0.81201   0.51964   0.98462   0.00000  Uiso   1.00
C667   C     0.77478   0.48931   0.94038   0.00000  Uiso   1.00
C668   C     0.86644   0.50102   0.50594   0.00000  Uiso   1.00
C669   C     0.88902   0.46139   0.97532   0.00000  Uiso   1.00
C670   C     0.85173   0.43201   0.93086   0.00000  Uiso   1.00
C671   C     0.79305   0.44228   0.91832   0.00000  Uiso   1.00
C672   C     0.89427   0.51439   0.56124   0.00000  Uiso   1.00
C673   C     0.97464   0.46395   0.54959   0.00000  Uiso   1.00
C674   C     0.72175   0.50890   0.91623   0.00000  Uiso   1.00
H675   H     0.87225   0.53572   0.58924   0.00000  Uiso   1.00
H676   H     0.99132   0.56381   0.92644   0.00000  Uiso   1.00
H677   H     0.72062   0.61449   0.50465   0.00000  Uiso   1.00
C678   C     0.68145   0.65040   0.72475   0.00000  Uiso   1.00
C679   C     0.97075   0.34697   0.73094   0.00000  Uiso   1.00
N680   N     0.81160   0.48556   0.73543   0.00000  Uiso   1.00
H681   H     0.82316   0.45831   0.70791   0.00000  Uiso   1.00
N682   N     0.85507   0.51444   0.76458   0.00000  Uiso   1.00
N683   N     0.91143   0.65885   0.72557   0.00000  Uiso   1.00
O684   O     0.88712   0.62846   0.68165   0.00000  Uiso   1.00
O685   O     0.88009   0.34029   0.76136   0.00000  Uiso   1.00
Br686  Br    0.84214   0.56615   0.81720   0.00000  Uiso   1.00
Br687  Br    0.87774   0.37280   0.89308   0.00000  Uiso   1.00
Br688  Br    0.84481   0.62535   0.54316   0.00000  Uiso   1.00
Br689  Br    0.73698   0.38766   0.87904   0.00000  Uiso   1.00
Br690  Br    0.74816   0.33983   0.69295   0.00000  Uiso   1.00
O691   O     0.29769   0.91296   0.75357   0.00000  Uiso   1.00
O692   O     0.05742   0.90371   0.74424   0.00000  Uiso   1.00
C693   C     0.01242   0.93081   0.74158   0.00000  Uiso   1.00
O694   O     0.31490   0.84024   0.83380   0.00000  Uiso   1.00
O695   O     0.07463   0.83099   0.82446   0.00000  Uiso   1.00
C696   C     0.03550   0.83559   0.85532   0.00000  Uiso   1.00
Zn697  Zn    0.27119   0.83951   0.75623   0.00000  Uiso   1.00
Zn698  Zn    0.06214   0.82716   0.74377   0.00000  Uiso   1.00
O699   O     0.27592   0.76296   0.75576   0.00000  Uiso   1.00
O700   O     0.03565   0.75371   0.74643   0.00000  Uiso   1.00
O701   O     0.25870   0.83567   0.67554   0.00000  Uiso   1.00
O702   O     0.01843   0.82642   0.66620   0.00000  Uiso   1.00
C703   C     0.31668   0.73512   0.74470   0.00000  Uiso   1.00
C704   C     0.29783   0.83075   0.64473   0.00000  Uiso   1.00
C705   C     0.27927   0.78074   0.99520   0.00000  Uiso   1.00
H706   H     0.01602   0.78225   0.56653   0.00000  Uiso   1.00
H707   H     0.29996   0.75361   0.97146   0.00000  Uiso   1.00
C708   C     0.27938   0.82706   0.58391   0.00000  Uiso   1.00
C709   C     0.03293   0.88287   0.94412   0.00000  Uiso   1.00
C710   C     0.06891   0.91229   0.98827   0.00000  Uiso   1.00
C711   C     0.12650   0.90077   0.50516   0.00000  Uiso   1.00
C712   C     0.14534   0.85298   0.98462   0.00000  Uiso   1.00
C713   C     0.10812   0.82265   0.94038   0.00000  Uiso   1.00
C714   C     0.19977   0.83435   0.50594   0.00000  Uiso   1.00
C715   C     0.22235   0.79473   0.97532   0.00000  Uiso   1.00
C716   C     0.18506   0.76535   0.93086   0.00000  Uiso   1.00
C717   C     0.12639   0.77561   0.91832   0.00000  Uiso   1.00
C718   C     0.22761   0.84773   0.56124   0.00000  Uiso   1.00
C719   C     0.30797   0.79728   0.54959   0.00000  Uiso   1.00
C720   C     0.05508   0.84223   0.91623   0.00000  Uiso   1.00
H721   H     0.20558   0.86906   0.58924   0.00000  Uiso   1.00
H722   H     0.32465   0.89715   0.92644   0.00000  Uiso   1.00
H723   H     0.05396   0.94783   0.50465   0.00000  Uiso   1.00
C724   C     0.01478   0.98374   0.72475   0.00000  Uiso   1.00
C725   C     0.30408   0.68031   0.73094   0.00000  Uiso   1.00
N726   N     0.14493   0.81890   0.73543   0.00000  Uiso   1.00
H727   H     0.15649   0.79164   0.70791   0.00000  Uiso   1.00
N728   N     0.18840   0.84777   0.76458   0.00000  Uiso   1.00
N729   N     0.24476   0.99218   0.72557   0.00000  Uiso   1.00
O730   O     0.22045   0.96179   0.68165   0.00000  Uiso   1.00
O731   O     0.21343   0.67362   0.76136   0.00000  Uiso   1.00
Br732  Br    0.17547   0.89948   0.81720   0.00000  Uiso   1.00
Br733  Br    0.21108   0.70613   0.89308   0.00000  Uiso   1.00
Br734  Br    0.17814   0.95869   0.54316   0.00000  Uiso   1.00
Br735  Br    0.07032   0.72100   0.87904   0.00000  Uiso   1.00
Br736  Br    0.08150   0.67316   0.69295   0.00000  Uiso   1.00
O737   O     0.63102   0.91296   0.75357   0.00000  Uiso   1.00
O738   O     0.39075   0.90371   0.74424   0.00000  Uiso   1.00
C739   C     0.34575   0.93081   0.74158   0.00000  Uiso   1.00
O740   O     0.64823   0.84024   0.83380   0.00000  Uiso   1.00
O741   O     0.40796   0.83099   0.82446   0.00000  Uiso   1.00
C742   C     0.36883   0.83559   0.85532   0.00000  Uiso   1.00
Zn743  Zn    0.60453   0.83951   0.75623   0.00000  Uiso   1.00
Zn744  Zn    0.39547   0.82716   0.74377   0.00000  Uiso   1.00
O745   O     0.60925   0.76296   0.75576   0.00000  Uiso   1.00
O746   O     0.36898   0.75371   0.74643   0.00000  Uiso   1.00
O747   O     0.59204   0.83567   0.67554   0.00000  Uiso   1.00
O748   O     0.35177   0.82642   0.66620   0.00000  Uiso   1.00
C749   C     0.65001   0.73512   0.74470   0.00000  Uiso   1.00
C750   C     0.63116   0.83075   0.64473   0.00000  Uiso   1.00
C751   C     0.61261   0.78074   0.99520   0.00000  Uiso   1.00
H752   H     0.34935   0.78225   0.56653   0.00000  Uiso   1.00
H753   H     0.63329   0.75361   0.97146   0.00000  Uiso   1.00
C754   C     0.61271   0.82706   0.58391   0.00000  Uiso   1.00
C755   C     0.36626   0.88287   0.94412   0.00000  Uiso   1.00
C756   C     0.40225   0.91229   0.98827   0.00000  Uiso   1.00
C757   C     0.45984   0.90077   0.50516   0.00000  Uiso   1.00
C758   C     0.47868   0.85298   0.98462   0.00000  Uiso   1.00
C759   C     0.44145   0.82265   0.94038   0.00000  Uiso   1.00
C760   C     0.53311   0.83435   0.50594   0.00000  Uiso   1.00
C761   C     0.55569   0.79473   0.97532   0.00000  Uiso   1.00
C762   C     0.51839   0.76535   0.93086   0.00000  Uiso   1.00
C763   C     0.45972   0.77561   0.91832   0.00000  Uiso   1.00
C764   C     0.56094   0.84773   0.56124   0.00000  Uiso   1.00
C765   C     0.64130   0.79728   0.54959   0.00000  Uiso   1.00
C766   C     0.38842   0.84223   0.91623   0.00000  Uiso   1.00
H767   H     0.53892   0.86906   0.58924   0.00000  Uiso   1.00
H768   H     0.65799   0.89715   0.92644   0.00000  Uiso   1.00
H769   H     0.38729   0.94783   0.50465   0.00000  Uiso   1.00
C770   C     0.34811   0.98374   0.72475   0.00000  Uiso   1.00
C771   C     0.63741   0.68031   0.73094   0.00000  Uiso   1.00
N772   N     0.47827   0.81890   0.73543   0.00000  Uiso   1.00
H773   H     0.48983   0.79164   0.70791   0.00000  Uiso   1.00
N774   N     0.52173   0.84777   0.76458   0.00000  Uiso   1.00
N775   N     0.57810   0.99218   0.72557   0.00000  Uiso   1.00
O776   O     0.55378   0.96179   0.68165   0.00000  Uiso   1.00
O777   O     0.54676   0.67362   0.76136   0.00000  Uiso   1.00
Br778  Br    0.50881   0.89948   0.81720   0.00000  Uiso   1.00
Br779  Br    0.54441   0.70613   0.89308   0.00000  Uiso   1.00
Br780  Br    0.51147   0.95869   0.54316   0.00000  Uiso   1.00
Br781  Br    0.40365   0.72100   0.87904   0.00000  Uiso   1.00
Br782  Br    0.41483   0.67316   0.69295   0.00000  Uiso   1.00
O783   O     0.96435   0.91296   0.75357   0.00000  Uiso   1.00
O784   O     0.72408   0.90371   0.74424   0.00000  Uiso   1.00
C785   C     0.67909   0.93081   0.74158   0.00000  Uiso   1.00
O786   O     0.98157   0.84024   0.83380   0.00000  Uiso   1.00
O787   O     0.74130   0.83099   0.82446   0.00000  Uiso   1.00
C788   C     0.70217   0.83559   0.85532   0.00000  Uiso   1.00
Zn789  Zn    0.93786   0.83951   0.75623   0.00000  Uiso   1.00
Zn790  Zn    0.72881   0.82716   0.74377   0.00000  Uiso   1.00
O791   O     0.94258   0.76296   0.75576   0.00000  Uiso   1.00
O792   O     0.70231   0.75371   0.74643   0.00000  Uiso   1.00
O793   O     0.92537   0.83567   0.67554   0.00000  Uiso   1.00
O794   O     0.68510   0.82642   0.66620   0.00000  Uiso   1.00
C795   C     0.98334   0.73512   0.74470   0.00000  Uiso   1.00
C796   C     0.96449   0.83075   0.64473   0.00000  Uiso   1.00
C797   C     0.94594   0.78074   0.99520   0.00000  Uiso   1.00
H798   H     0.68269   0.78225   0.56653   0.00000  Uiso   1.00
H799   H     0.96662   0.75361   0.97146   0.00000  Uiso   1.00
C800   C     0.94605   0.82706   0.58391   0.00000  Uiso   1.00
C801   C     0.69960   0.88287   0.94412   0.00000  Uiso   1.00
C802   C     0.73558   0.91229   0.98827   0.00000  Uiso   1.00
C803   C     0.79317   0.90077   0.50516   0.00000  Uiso   1.00
C804   C     0.81201   0.85298   0.98462   0.00000  Uiso   1.00
C805   C     0.77478   0.82265   0.94038   0.00000  Uiso   1.00
C806   C     0.86644   0.83435   0.50594   0.00000  Uiso   1.00
C807   C     0.88902   0.79473   0.97532   0.00000  Uiso   1.00
C808   C     0.85173   0.76535   0.93086   0.00000  Uiso   1.00
C809   C     0.79305   0.77561   0.91832   0.00000  Uiso   1.00
C810   C     0.89427   0.84773   0.56124   0.00000  Uiso   1.00
C811   C     0.97464   0.79728   0.54959   0.00000  Uiso   1.00
C812   C     0.72175   0.84223   0.91623   0.00000  Uiso   1.00
H813   H     0.87225   0.86906   0.58924   0.00000  Uiso   1.00
H814   H     0.99132   0.89715   0.92644   0.00000  Uiso   1.00
H815   H     0.72062   0.94783   0.50465   0.00000  Uiso   1.00
C816   C     0.68145   0.98374   0.72475   0.00000  Uiso   1.00
C817   C     0.97075   0.68031   0.73094   0.00000  Uiso   1.00
N818   N     0.81160   0.81890   0.73543   0.00000  Uiso   1.00
H819   H     0.82316   0.79164   0.70791   0.00000  Uiso   1.00
N820   N     0.85507   0.84777   0.76458   0.00000  Uiso   1.00
N821   N     0.91143   0.99218   0.72557   0.00000  Uiso   1.00
O822   O     0.88712   0.96179   0.68165   0.00000  Uiso   1.00
O823   O     0.88009   0.67362   0.76136   0.00000  Uiso   1.00
Br824  Br    0.84214   0.89948   0.81720   0.00000  Uiso   1.00
Br825  Br    0.87774   0.70613   0.89308   0.00000  Uiso   1.00
Br826  Br    0.84481   0.95869   0.54316   0.00000  Uiso   1.00
Br827  Br    0.73698   0.72100   0.87904   0.00000  Uiso   1.00
Br828  Br    0.74816   0.67316   0.69295   0.00000  Uiso   1.00
loop_
_geom_bond_atom_site_label_1
_geom_bond_atom_site_label_2
_geom_bond_distance
_geom_bond_site_symmetry_2
_ccdc_geom_bond_type
O1     Zn7     1.941   .     S
O1     C49     1.279   .     S
O2     C3      1.297   .     A
O2     Zn8     1.964   .     S
C3     C34     1.426   .     S
C3     O93     1.279   1_455 S
O4     Zn7     1.954   .     S
O4     C52     1.291   .     S
O5     Zn8     1.911   .     S
O5     C6      1.300   .     A
C6     C30     1.453   .     S
C6     O96     1.291   1_455 S
Zn7    O11     1.911   .     S
Zn7    N38     2.022   .     S
Zn7    O9      1.964   .     S
Zn8    O12     1.954   .     S
Zn8    O10     1.941   .     S
Zn8    N36     2.022   .     S
O9     C13     1.294   .     A
O10    C105    1.281   1_455 S
O11    C14     1.300   .     A
O12    C106    1.290   1_455 S
C13    C35     1.423   .     S
C13    O56     1.281   .     S
C14    C18     1.446   .     S
C14    O58     1.290   .     S
C15    C25     1.409   .     A
C15    H17     1.081   .     S
C15    C443    1.391   .     S
H16    C121    1.083   1_455 S
C18    C29     1.398   .     A
C18    C28     1.385   .     A
C19    C20     1.385   .     A
C19    C30     1.399   .     A
C19    H124    1.084   1_455 S
C20    C435    1.394   .     S
C20    H447    1.083   .     S
C21    Br44    1.929   .     S
C21    C434    1.394   1_554 S
C21    C436    1.430   1_554 S
C22    C23     1.411   .     A
C22    C435    1.430   .     S
C22    C438    1.408   .     S
C23    C27     1.421   .     A
C23    C30     1.406   .     A
C24    C28     1.387   .     A
C24    C436    1.408   1_554 S
C24    C439    1.421   1_554 S
C25    C26     1.403   .     A
C25    C438    1.421   .     S
C26    C27     1.401   .     A
C26    Br43    1.931   .     S
C27    Br45    1.935   .     S
C28    H31     1.081   .     S
C29    C429    1.391   1_554 S
C29    H62     1.083   .     S
H32    C65     1.084   .     S
H33    C434    1.083   1_554 S
C34    C265    1.356   1_455 S
C34    Br184   1.940   .     S
C35    C356    1.356   1_545 S
C35    N315    1.444   1_545 S
N36    N38     1.290   .     D
N36    H37     1.029   .     S
N38    Br42    1.877   .     S
N39    O40     1.302   .     A
N39    C173    1.444   .     S
N39    O179    1.300   .     S
O41    N315    1.300   1_545 S
Br46   C310    1.940   1_545 S
O47    Zn53    1.941   .     S
O47    C95     1.279   .     S
O48    C49     1.297   .     A
O48    Zn54    1.964   .     S
C49    C80     1.426   .     S
O50    Zn53    1.954   .     S
O50    C98     1.291   .     S
O51    Zn54    1.911   .     S
O51    C52     1.300   .     A
C52    C76     1.453   .     S
Zn53   O57     1.911   .     S
Zn53   N84     2.022   .     S
Zn53   O55     1.964   .     S
Zn54   O58     1.954   .     S
Zn54   O56     1.941   .     S
Zn54   N82     2.022   .     S
O55    C59     1.294   .     A
O57    C60     1.300   .     A
C59    C81     1.423   .     S
C59    O102    1.281   .     S
C60    C64     1.446   .     S
C60    O104    1.290   .     S
C61    C71     1.409   .     A
C61    H63     1.081   .     S
C61    C489    1.391   .     S
C64    C75     1.398   .     A
C64    C74     1.385   .     A
C65    C66     1.385   .     A
C65    C76     1.399   .     A
C66    C481    1.394   .     S
C66    H493    1.083   .     S
C67    Br90    1.929   .     S
C67    C480    1.394   1_554 S
C67    C482    1.430   1_554 S
C68    C69     1.411   .     A
C68    C481    1.430   .     S
C68    C484    1.408   .     S
C69    C73     1.421   .     A
C69    C76     1.406   .     A
C70    C74     1.387   .     A
C70    C482    1.408   1_554 S
C70    C485    1.421   1_554 S
C71    C72     1.403   .     A
C71    C484    1.421   .     S
C72    C73     1.401   .     A
C72    Br89    1.931   .     S
C73    Br91    1.935   .     S
C74    H77     1.081   .     S
C75    C475    1.391   1_554 S
C75    H108    1.083   .     S
H78    C111    1.084   .     S
H79    C480    1.083   1_554 S
C80    C173    1.356   .     S
C80    Br230   1.940   .     S
C81    C402    1.356   1_545 S
C81    N361    1.444   1_545 S
N82    N84     1.290   .     D
N82    H83     1.029   .     S
N84    Br88    1.877   .     S
N85    O86     1.302   .     A
N85    C219    1.444   .     S
N85    O225    1.300   .     S
O87    N361    1.300   1_545 S
Br92   C356    1.940   1_545 S
O93    Zn99    1.941   .     S
O93    C3      1.279   1_655 S
O94    C95     1.297   .     A
O94    Zn100   1.964   .     S
C95    C126    1.426   .     S
O96    Zn99    1.954   .     S
O96    C6      1.291   1_655 S
O97    Zn100   1.911   .     S
O97    C98     1.300   .     A
C98    C122    1.453   .     S
Zn99   O103    1.911   .     S
Zn99   N130    2.022   .     S
Zn99   O101    1.964   .     S
Zn100  O104    1.954   .     S
Zn100  O102    1.941   .     S
Zn100  N128    2.022   .     S
O101   C105    1.294   .     A
O103   C106    1.300   .     A
C105   C127    1.423   .     S
C105   O10     1.281   1_655 S
C106   C110    1.446   .     S
C106   O12     1.290   1_655 S
C107   C117    1.409   .     A
C107   H109    1.081   .     S
C107   C535    1.391   .     S
C110   C121    1.398   .     A
C110   C120    1.385   .     A
C111   C112    1.385   .     A
C111   C122    1.399   .     A
C112   C527    1.394   .     S
C112   H539    1.083   .     S
C113   Br136   1.929   .     S
C113   C526    1.394   1_554 S
C113   C528    1.430   1_554 S
C114   C115    1.411   .     A
C114   C527    1.430   .     S
C114   C530    1.408   .     S
C115   C119    1.421   .     A
C115   C122    1.406   .     A
C116   C120    1.387   .     A
C116   C528    1.408   1_554 S
C116   C531    1.421   1_554 S
C117   C118    1.403   .     A
C117   C530    1.421   .     S
C118   C119    1.401   .     A
C118   Br135   1.931   .     S
C119   Br137   1.935   .     S
C120   H123    1.081   .     S
C121   C521    1.391   1_554 S
C121   H16     1.083   1_655 S
H124   C19     1.084   1_655 S
H125   C526    1.083   1_554 S
C126   C219    1.356   .     S
C126   Br276   1.940   .     S
C127   C310    1.356   1_645 S
C127   N407    1.444   1_545 S
N128   N130    1.290   .     D
N128   H129    1.029   .     S
N130   Br134   1.877   .     S
N131   O132    1.302   .     A
N131   C265    1.444   .     S
N131   O271    1.300   .     S
O133   N407    1.300   1_545 S
Br138  C402    1.940   1_545 S
O139   Zn145   1.941   .     S
O139   C187    1.279   .     S
O140   C141    1.297   .     A
O140   Zn146   1.964   .     S
C141   C172    1.426   .     S
C141   O231    1.279   1_455 S
O142   Zn145   1.954   .     S
O142   C190    1.291   .     S
O143   Zn146   1.911   .     S
O143   C144    1.300   .     A
C144   C168    1.453   .     S
C144   O234    1.291   1_455 S
Zn145  O149    1.911   .     S
Zn145  N176    2.022   .     S
Zn145  O147    1.964   .     S
Zn146  O150    1.954   .     S
Zn146  O148    1.941   .     S
Zn146  N174    2.022   .     S
O147   C151    1.294   .     A
O148   C243    1.281   1_455 S
O149   C152    1.300   .     A
O150   C244    1.290   1_455 S
C151   C173    1.423   .     S
C151   O194    1.281   .     S
C152   C156    1.446   .     S
C152   O196    1.290   .     S
C153   C163    1.409   .     A
C153   H155    1.081   .     S
C153   C581    1.391   .     S
H154   C259    1.083   1_455 S
C156   C167    1.398   .     A
C156   C166    1.385   .     A
C157   C158    1.385   .     A
C157   C168    1.399   .     A
C157   H262    1.084   1_455 S
C158   C573    1.394   .     S
C158   H585    1.083   .     S
C159   Br182   1.929   .     S
C159   C572    1.394   1_554 S
C159   C574    1.430   1_554 S
C160   C161    1.411   .     A
C160   C573    1.430   .     S
C160   C576    1.408   .     S
C161   C165    1.421   .     A
C161   C168    1.406   .     A
C162   C166    1.387   .     A
C162   C574    1.408   1_554 S
C162   C577    1.421   1_554 S
C163   C164    1.403   .     A
C163   C576    1.421   .     S
C164   C165    1.401   .     A
C164   Br181   1.931   .     S
C165   Br183   1.935   .     S
C166   H169    1.081   .     S
C167   C567    1.391   1_554 S
C167   H200    1.083   .     S
H170   C203    1.084   .     S
H171   C572    1.083   1_554 S
C172   C403    1.356   1_455 S
C172   Br322   1.940   .     S
N174   N176    1.290   .     D
N174   H175    1.029   .     S
N176   Br180   1.877   .     S
N177   O178    1.302   .     A
N177   C311    1.444   .     S
N177   O317    1.300   .     S
O185   Zn191   1.941   .     S
O185   C233    1.279   .     S
O186   C187    1.297   .     A
O186   Zn192   1.964   .     S
C187   C218    1.426   .     S
O188   Zn191   1.954   .     S
O188   C236    1.291   .     S
O189   Zn192   1.911   .     S
O189   C190    1.300   .     A
C190   C214    1.453   .     S
Zn191  O195    1.911   .     S
Zn191  N222    2.022   .     S
Zn191  O193    1.964   .     S
Zn192  O196    1.954   .     S
Zn192  O194    1.941   .     S
Zn192  N220    2.022   .     S
O193   C197    1.294   .     A
O195   C198    1.300   .     A
C197   C219    1.423   .     S
C197   O240    1.281   .     S
C198   C202    1.446   .     S
C198   O242    1.290   .     S
C199   C209    1.409   .     A
C199   H201    1.081   .     S
C199   C627    1.391   .     S
C202   C213    1.398   .     A
C202   C212    1.385   .     A
C203   C204    1.385   .     A
C203   C214    1.399   .     A
C204   C619    1.394   .     S
C204   H631    1.083   .     S
C205   Br228   1.929   .     S
C205   C618    1.394   1_554 S
C205   C620    1.430   1_554 S
C206   C207    1.411   .     A
C206   C619    1.430   .     S
C206   C622    1.408   .     S
C207   C211    1.421   .     A
C207   C214    1.406   .     A
C208   C212    1.387   .     A
C208   C620    1.408   1_554 S
C208   C623    1.421   1_554 S
C209   C210    1.403   .     A
C209   C622    1.421   .     S
C210   C211    1.401   .     A
C210   Br227   1.931   .     S
C211   Br229   1.935   .     S
C212   H215    1.081   .     S
C213   C613    1.391   1_554 S
C213   H246    1.083   .     S
H216   C249    1.084   .     S
H217   C618    1.083   1_554 S
C218   C311    1.356   .     S
C218   Br368   1.940   .     S
N220   N222    1.290   .     D
N220   H221    1.029   .     S
N222   Br226   1.877   .     S
N223   O224    1.302   .     A
N223   C357    1.444   .     S
N223   O363    1.300   .     S
O231   Zn237   1.941   .     S
O231   C141    1.279   1_655 S
O232   C233    1.297   .     A
O232   Zn238   1.964   .     S
C233   C264    1.426   .     S
O234   Zn237   1.954   .     S
O234   C144    1.291   1_655 S
O235   Zn238   1.911   .     S
O235   C236    1.300   .     A
C236   C260    1.453   .     S
Zn237  O241    1.911   .     S
Zn237  N268    2.022   .     S
Zn237  O239    1.964   .     S
Zn238  O242    1.954   .     S
Zn238  O240    1.941   .     S
Zn238  N266    2.022   .     S
O239   C243    1.294   .     A
O241   C244    1.300   .     A
C243   C265    1.423   .     S
C243   O148    1.281   1_655 S
C244   C248    1.446   .     S
C244   O150    1.290   1_655 S
C245   C255    1.409   .     A
C245   H247    1.081   .     S
C245   C673    1.391   .     S
C248   C259    1.398   .     A
C248   C258    1.385   .     A
C249   C250    1.385   .     A
C249   C260    1.399   .     A
C250   C665    1.394   .     S
C250   H677    1.083   .     S
C251   Br274   1.929   .     S
C251   C664    1.394   1_554 S
C251   C666    1.430   1_554 S
C252   C253    1.411   .     A
C252   C665    1.430   .     S
C252   C668    1.408   .     S
C253   C257    1.421   .     A
C253   C260    1.406   .     A
C254   C258    1.387   .     A
C254   C666    1.408   1_554 S
C254   C669    1.421   1_554 S
C255   C256    1.403   .     A
C255   C668    1.421   .     S
C256   C257    1.401   .     A
C256   Br273   1.931   .     S
C257   Br275   1.935   .     S
C258   H261    1.081   .     S
C259   C659    1.391   1_554 S
C259   H154    1.083   1_655 S
H262   C157    1.084   1_655 S
H263   C664    1.083   1_554 S
C264   C357    1.356   .     S
C264   Br414   1.940   .     S
C265   C34     1.356   1_655 S
N266   N268    1.290   .     D
N266   H267    1.029   .     S
N268   Br272   1.877   .     S
N269   O270    1.302   .     A
N269   C403    1.444   .     S
N269   O409    1.300   .     S
O277   Zn283   1.941   .     S
O277   C325    1.279   .     S
O278   C279    1.297   .     A
O278   Zn284   1.964   .     S
C279   C310    1.426   .     S
C279   O369    1.279   1_455 S
O280   Zn283   1.954   .     S
O280   C328    1.291   .     S
O281   Zn284   1.911   .     S
O281   C282    1.300   .     A
C282   C306    1.453   .     S
C282   O372    1.291   1_455 S
Zn283  O287    1.911   .     S
Zn283  N314    2.022   .     S
Zn283  O285    1.964   .     S
Zn284  O288    1.954   .     S
Zn284  O286    1.941   .     S
Zn284  N312    2.022   .     S
O285   C289    1.294   .     A
O286   C381    1.281   1_455 S
O287   C290    1.300   .     A
O288   C382    1.290   1_455 S
C289   C311    1.423   .     S
C289   O332    1.281   .     S
C290   C294    1.446   .     S
C290   O334    1.290   .     S
C291   C301    1.409   .     A
C291   H293    1.081   .     S
C291   C719    1.391   .     S
H292   C397    1.083   1_455 S
C294   C305    1.398   .     A
C294   C304    1.385   .     A
C295   C296    1.385   .     A
C295   C306    1.399   .     A
C295   H400    1.084   1_455 S
C296   C711    1.394   .     S
C296   H723    1.083   .     S
C297   Br320   1.929   .     S
C297   C710    1.394   1_554 S
C297   C712    1.430   1_554 S
C298   C299    1.411   .     A
C298   C711    1.430   .     S
C298   C714    1.408   .     S
C299   C303    1.421   .     A
C299   C306    1.406   .     A
C300   C304    1.387   .     A
C300   C712    1.408   1_554 S
C300   C715    1.421   1_554 S
C301   C302    1.403   .     A
C301   C714    1.421   .     S
C302   C303    1.401   .     A
C302   Br319   1.931   .     S
C303   Br321   1.935   .     S
C304   H307    1.081   .     S
C305   C705    1.391   1_554 S
C305   H338    1.083   .     S
H308   C341    1.084   .     S
H309   C710    1.083   1_554 S
C310   C127    1.356   1_465 S
C310   Br46    1.940   1_565 S
N312   N314    1.290   .     D
N312   H313    1.029   .     S
N314   Br318   1.877   .     S
N315   O316    1.302   .     A
N315   C35     1.444   1_565 S
N315   O41     1.300   1_565 S
O323   Zn329   1.941   .     S
O323   C371    1.279   .     S
O324   C325    1.297   .     A
O324   Zn330   1.964   .     S
C325   C356    1.426   .     S
O326   Zn329   1.954   .     S
O326   C374    1.291   .     S
O327   Zn330   1.911   .     S
O327   C328    1.300   .     A
C328   C352    1.453   .     S
Zn329  O333    1.911   .     S
Zn329  N360    2.022   .     S
Zn329  O331    1.964   .     S
Zn330  O334    1.954   .     S
Zn330  O332    1.941   .     S
Zn330  N358    2.022   .     S
O331   C335    1.294   .     A
O333   C336    1.300   .     A
C335   C357    1.423   .     S
C335   O378    1.281   .     S
C336   C340    1.446   .     S
C336   O380    1.290   .     S
C337   C347    1.409   .     A
C337   H339    1.081   .     S
C337   C765    1.391   .     S
C340   C351    1.398   .     A
C340   C350    1.385   .     A
C341   C342    1.385   .     A
C341   C352    1.399   .     A
C342   C757    1.394   .     S
C342   H769    1.083   .     S
C343   Br366   1.929   .     S
C343   C756    1.394   1_554 S
C343   C758    1.430   1_554 S
C344   C345    1.411   .     A
C344   C757    1.430   .     S
C344   C760    1.408   .     S
C345   C349    1.421   .     A
C345   C352    1.406   .     A
C346   C350    1.387   .     A
C346   C758    1.408   1_554 S
C346   C761    1.421   1_554 S
C347   C348    1.403   .     A
C347   C760    1.421   .     S
C348   C349    1.401   .     A
C348   Br365   1.931   .     S
C349   Br367   1.935   .     S
C350   H353    1.081   .     S
C351   C751    1.391   1_554 S
C351   H384    1.083   .     S
H354   C387    1.084   .     S
H355   C756    1.083   1_554 S
C356   C35     1.356   1_565 S
C356   Br92    1.940   1_565 S
N358   N360    1.290   .     D
N358   H359    1.029   .     S
N360   Br364   1.877   .     S
N361   O362    1.302   .     A
N361   C81     1.444   1_565 S
N361   O87     1.300   1_565 S
O369   Zn375   1.941   .     S
O369   C279    1.279   1_655 S
O370   C371    1.297   .     A
O370   Zn376   1.964   .     S
C371   C402    1.426   .     S
O372   Zn375   1.954   .     S
O372   C282    1.291   1_655 S
O373   Zn376   1.911   .     S
O373   C374    1.300   .     A
C374   C398    1.453   .     S
Zn375  O379    1.911   .     S
Zn375  N406    2.022   .     S
Zn375  O377    1.964   .     S
Zn376  O380    1.954   .     S
Zn376  O378    1.941   .     S
Zn376  N404    2.022   .     S
O377   C381    1.294   .     A
O379   C382    1.300   .     A
C381   C403    1.423   .     S
C381   O286    1.281   1_655 S
C382   C386    1.446   .     S
C382   O288    1.290   1_655 S
C383   C393    1.409   .     A
C383   H385    1.081   .     S
C383   C811    1.391   .     S
C386   C397    1.398   .     A
C386   C396    1.385   .     A
C387   C388    1.385   .     A
C387   C398    1.399   .     A
C388   C803    1.394   .     S
C388   H815    1.083   .     S
C389   Br412   1.929   .     S
C389   C802    1.394   1_554 S
C389   C804    1.430   1_554 S
C390   C391    1.411   .     A
C390   C803    1.430   .     S
C390   C806    1.408   .     S
C391   C395    1.421   .     A
C391   C398    1.406   .     A
C392   C396    1.387   .     A
C392   C804    1.408   1_554 S
C392   C807    1.421   1_554 S
C393   C394    1.403   .     A
C393   C806    1.421   .     S
C394   C395    1.401   .     A
C394   Br411   1.931   .     S
C395   Br413   1.935   .     S
C396   H399    1.081   .     S
C397   C797    1.391   1_554 S
C397   H292    1.083   1_655 S
H400   C295    1.084   1_655 S
H401   C802    1.083   1_554 S
C402   C81     1.356   1_565 S
C402   Br138   1.940   1_565 S
C403   C172    1.356   1_655 S
N404   N406    1.290   .     D
N404   H405    1.029   .     S
N406   Br410   1.877   .     S
N407   O408    1.302   .     A
N407   C127    1.444   1_565 S
N407   O133    1.300   1_565 S
O415   Zn421   1.941   .     S
O415   C463    1.279   .     S
O416   C417    1.297   .     A
O416   Zn422   1.964   .     S
C417   C448    1.426   .     S
C417   O507    1.279   1_455 S
O418   Zn421   1.954   .     S
O418   C466    1.291   .     S
O419   Zn422   1.911   .     S
O419   C420    1.300   .     A
C420   C444    1.453   .     S
C420   O510    1.291   1_455 S
Zn421  O425    1.911   .     S
Zn421  N452    2.022   .     S
Zn421  O423    1.964   .     S
Zn422  O426    1.954   .     S
Zn422  O424    1.941   .     S
Zn422  N450    2.022   .     S
O423   C427    1.294   .     A
O424   C519    1.281   1_455 S
O425   C428    1.300   .     A
O426   C520    1.290   1_455 S
C427   C449    1.423   .     S
C427   O470    1.281   .     S
C428   C432    1.446   .     S
C428   O472    1.290   .     S
C429   C439    1.409   .     A
C429   H431    1.081   .     S
C429   C29     1.391   1_556 S
H430   C535    1.083   1_455 S
C432   C443    1.398   .     A
C432   C442    1.385   .     A
C433   C434    1.385   .     A
C433   C444    1.399   .     A
C433   H538    1.084   1_455 S
C434   C21     1.394   1_556 S
C434   H33     1.083   1_556 S
C435   Br458   1.929   .     S
C436   C437    1.411   .     A
C436   C21     1.430   1_556 S
C436   C24     1.408   1_556 S
C437   C441    1.421   .     A
C437   C444    1.406   .     A
C438   C442    1.387   .     A
C439   C440    1.403   .     A
C439   C24     1.421   1_556 S
C440   C441    1.401   .     A
C440   Br457   1.931   .     S
C441   Br459   1.935   .     S
C442   H445    1.081   .     S
C443   H476    1.083   .     S
H446   C479    1.084   .     S
C448   C679    1.356   1_455 S
C448   Br598   1.940   .     S
C449   C770    1.356   1_545 S
C449   N729    1.444   1_545 S
N450   N452    1.290   .     D
N450   H451    1.029   .     S
N452   Br456   1.877   .     S
N453   O454    1.302   .     A
N453   C587    1.444   .     S
N453   O593    1.300   .     S
O455   N729    1.300   1_545 S
Br460  C724    1.940   1_545 S
O461   Zn467   1.941   .     S
O461   C509    1.279   .     S
O462   C463    1.297   .     A
O462   Zn468   1.964   .     S
C463   C494    1.426   .     S
O464   Zn467   1.954   .     S
O464   C512    1.291   .     S
O465   Zn468   1.911   .     S
O465   C466    1.300   .     A
C466   C490    1.453   .     S
Zn467  O471    1.911   .     S
Zn467  N498    2.022   .     S
Zn467  O469    1.964   .     S
Zn468  O472    1.954   .     S
Zn468  O470    1.941   .     S
Zn468  N496    2.022   .     S
O469   C473    1.294   .     A
O471   C474    1.300   .     A
C473   C495    1.423   .     S
C473   O516    1.281   .     S
C474   C478    1.446   .     S
C474   O518    1.290   .     S
C475   C485    1.409   .     A
C475   H477    1.081   .     S
C475   C75     1.391   1_556 S
C478   C489    1.398   .     A
C478   C488    1.385   .     A
C479   C480    1.385   .     A
C479   C490    1.399   .     A
C480   C67     1.394   1_556 S
C480   H79     1.083   1_556 S
C481   Br504   1.929   .     S
C482   C483    1.411   .     A
C482   C67     1.430   1_556 S
C482   C70     1.408   1_556 S
C483   C487    1.421   .     A
C483   C490    1.406   .     A
C484   C488    1.387   .     A
C485   C486    1.403   .     A
C485   C70     1.421   1_556 S
C486   C487    1.401   .     A
C486   Br503   1.931   .     S
C487   Br505   1.935   .     S
C488   H491    1.081   .     S
C489   H522    1.083   .     S
H492   C525    1.084   .     S
C494   C587    1.356   .     S
C494   Br644   1.940   .     S
C495   C816    1.356   1_545 S
C495   N775    1.444   1_545 S
N496   N498    1.290   .     D
N496   H497    1.029   .     S
N498   Br502   1.877   .     S
N499   O500    1.302   .     A
N499   C633    1.444   .     S
N499   O639    1.300   .     S
O501   N775    1.300   1_545 S
Br506  C770    1.940   1_545 S
O507   Zn513   1.941   .     S
O507   C417    1.279   1_655 S
O508   C509    1.297   .     A
O508   Zn514   1.964   .     S
C509   C540    1.426   .     S
O510   Zn513   1.954   .     S
O510   C420    1.291   1_655 S
O511   Zn514   1.911   .     S
O511   C512    1.300   .     A
C512   C536    1.453   .     S
Zn513  O517    1.911   .     S
Zn513  N544    2.022   .     S
Zn513  O515    1.964   .     S
Zn514  O518    1.954   .     S
Zn514  O516    1.941   .     S
Zn514  N542    2.022   .     S
O515   C519    1.294   .     A
O517   C520    1.300   .     A
C519   C541    1.423   .     S
C519   O424    1.281   1_655 S
C520   C524    1.446   .     S
C520   O426    1.290   1_655 S
C521   C531    1.409   .     A
C521   H523    1.081   .     S
C521   C121    1.391   1_556 S
C524   C535    1.398   .     A
C524   C534    1.385   .     A
C525   C526    1.385   .     A
C525   C536    1.399   .     A
C526   C113    1.394   1_556 S
C526   H125    1.083   1_556 S
C527   Br550   1.929   .     S
C528   C529    1.411   .     A
C528   C113    1.430   1_556 S
C528   C116    1.408   1_556 S
C529   C533    1.421   .     A
C529   C536    1.406   .     A
C530   C534    1.387   .     A
C531   C532    1.403   .     A
C531   C116    1.421   1_556 S
C532   C533    1.401   .     A
C532   Br549   1.931   .     S
C533   Br551   1.935   .     S
C534   H537    1.081   .     S
C535   H430    1.083   1_655 S
H538   C433    1.084   1_655 S
C540   C633    1.356   .     S
C540   Br690   1.940   .     S
C541   C724    1.356   1_645 S
C541   N821    1.444   1_545 S
N542   N544    1.290   .     D
N542   H543    1.029   .     S
N544   Br548   1.877   .     S
N545   O546    1.302   .     A
N545   C679    1.444   .     S
N545   O685    1.300   .     S
O547   N821    1.300   1_545 S
Br552  C816    1.940   1_545 S
O553   Zn559   1.941   .     S
O553   C601    1.279   .     S
O554   C555    1.297   .     A
O554   Zn560   1.964   .     S
C555   C586    1.426   .     S
C555   O645    1.279   1_455 S
O556   Zn559   1.954   .     S
O556   C604    1.291   .     S
O557   Zn560   1.911   .     S
O557   C558    1.300   .     A
C558   C582    1.453   .     S
C558   O648    1.291   1_455 S
Zn559  O563    1.911   .     S
Zn559  N590    2.022   .     S
Zn559  O561    1.964   .     S
Zn560  O564    1.954   .     S
Zn560  O562    1.941   .     S
Zn560  N588    2.022   .     S
O561   C565    1.294   .     A
O562   C657    1.281   1_455 S
O563   C566    1.300   .     A
O564   C658    1.290   1_455 S
C565   C587    1.423   .     S
C565   O608    1.281   .     S
C566   C570    1.446   .     S
C566   O610    1.290   .     S
C567   C577    1.409   .     A
C567   H569    1.081   .     S
C567   C167    1.391   1_556 S
H568   C673    1.083   1_455 S
C570   C581    1.398   .     A
C570   C580    1.385   .     A
C571   C572    1.385   .     A
C571   C582    1.399   .     A
C571   H676    1.084   1_455 S
C572   C159    1.394   1_556 S
C572   H171    1.083   1_556 S
C573   Br596   1.929   .     S
C574   C575    1.411   .     A
C574   C159    1.430   1_556 S
C574   C162    1.408   1_556 S
C575   C579    1.421   .     A
C575   C582    1.406   .     A
C576   C580    1.387   .     A
C577   C578    1.403   .     A
C577   C162    1.421   1_556 S
C578   C579    1.401   .     A
C578   Br595   1.931   .     S
C579   Br597   1.935   .     S
C580   H583    1.081   .     S
C581   H614    1.083   .     S
H584   C617    1.084   .     S
C586   C817    1.356   1_455 S
C586   Br736   1.940   .     S
N588   N590    1.290   .     D
N588   H589    1.029   .     S
N590   Br594   1.877   .     S
N591   O592    1.302   .     A
N591   C725    1.444   .     S
N591   O731    1.300   .     S
O599   Zn605   1.941   .     S
O599   C647    1.279   .     S
O600   C601    1.297   .     A
O600   Zn606   1.964   .     S
C601   C632    1.426   .     S
O602   Zn605   1.954   .     S
O602   C650    1.291   .     S
O603   Zn606   1.911   .     S
O603   C604    1.300   .     A
C604   C628    1.453   .     S
Zn605  O609    1.911   .     S
Zn605  N636    2.022   .     S
Zn605  O607    1.964   .     S
Zn606  O610    1.954   .     S
Zn606  O608    1.941   .     S
Zn606  N634    2.022   .     S
O607   C611    1.294   .     A
O609   C612    1.300   .     A
C611   C633    1.423   .     S
C611   O654    1.281   .     S
C612   C616    1.446   .     S
C612   O656    1.290   .     S
C613   C623    1.409   .     A
C613   H615    1.081   .     S
C613   C213    1.391   1_556 S
C616   C627    1.398   .     A
C616   C626    1.385   .     A
C617   C618    1.385   .     A
C617   C628    1.399   .     A
C618   C205    1.394   1_556 S
C618   H217    1.083   1_556 S
C619   Br642   1.929   .     S
C620   C621    1.411   .     A
C620   C205    1.430   1_556 S
C620   C208    1.408   1_556 S
C621   C625    1.421   .     A
C621   C628    1.406   .     A
C622   C626    1.387   .     A
C623   C624    1.403   .     A
C623   C208    1.421   1_556 S
C624   C625    1.401   .     A
C624   Br641   1.931   .     S
C625   Br643   1.935   .     S
C626   H629    1.081   .     S
C627   H660    1.083   .     S
H630   C663    1.084   .     S
C632   C725    1.356   .     S
C632   Br782   1.940   .     S
N634   N636    1.290   .     D
N634   H635    1.029   .     S
N636   Br640   1.877   .     S
N637   O638    1.302   .     A
N637   C771    1.444   .     S
N637   O777    1.300   .     S
O645   Zn651   1.941   .     S
O645   C555    1.279   1_655 S
O646   C647    1.297   .     A
O646   Zn652   1.964   .     S
C647   C678    1.426   .     S
O648   Zn651   1.954   .     S
O648   C558    1.291   1_655 S
O649   Zn652   1.911   .     S
O649   C650    1.300   .     A
C650   C674    1.453   .     S
Zn651  O655    1.911   .     S
Zn651  N682    2.022   .     S
Zn651  O653    1.964   .     S
Zn652  O656    1.954   .     S
Zn652  O654    1.941   .     S
Zn652  N680    2.022   .     S
O653   C657    1.294   .     A
O655   C658    1.300   .     A
C657   C679    1.423   .     S
C657   O562    1.281   1_655 S
C658   C662    1.446   .     S
C658   O564    1.290   1_655 S
C659   C669    1.409   .     A
C659   H661    1.081   .     S
C659   C259    1.391   1_556 S
C662   C673    1.398   .     A
C662   C672    1.385   .     A
C663   C664    1.385   .     A
C663   C674    1.399   .     A
C664   C251    1.394   1_556 S
C664   H263    1.083   1_556 S
C665   Br688   1.929   .     S
C666   C667    1.411   .     A
C666   C251    1.430   1_556 S
C666   C254    1.408   1_556 S
C667   C671    1.421   .     A
C667   C674    1.406   .     A
C668   C672    1.387   .     A
C669   C670    1.403   .     A
C669   C254    1.421   1_556 S
C670   C671    1.401   .     A
C670   Br687   1.931   .     S
C671   Br689   1.935   .     S
C672   H675    1.081   .     S
C673   H568    1.083   1_655 S
H676   C571    1.084   1_655 S
C678   C771    1.356   .     S
C678   Br828   1.940   .     S
C679   C448    1.356   1_655 S
N680   N682    1.290   .     D
N680   H681    1.029   .     S
N682   Br686   1.877   .     S
N683   O684    1.302   .     A
N683   C817    1.444   .     S
N683   O823    1.300   .     S
O691   Zn697   1.941   .     S
O691   C739    1.279   .     S
O692   C693    1.297   .     A
O692   Zn698   1.964   .     S
C693   C724    1.426   .     S
C693   O783    1.279   1_455 S
O694   Zn697   1.954   .     S
O694   C742    1.291   .     S
O695   Zn698   1.911   .     S
O695   C696    1.300   .     A
C696   C720    1.453   .     S
C696   O786    1.291   1_455 S
Zn697  O701    1.911   .     S
Zn697  N728    2.022   .     S
Zn697  O699    1.964   .     S
Zn698  O702    1.954   .     S
Zn698  O700    1.941   .     S
Zn698  N726    2.022   .     S
O699   C703    1.294   .     A
O700   C795    1.281   1_455 S
O701   C704    1.300   .     A
O702   C796    1.290   1_455 S
C703   C725    1.423   .     S
C703   O746    1.281   .     S
C704   C708    1.446   .     S
C704   O748    1.290   .     S
C705   C715    1.409   .     A
C705   H707    1.081   .     S
C705   C305    1.391   1_556 S
H706   C811    1.083   1_455 S
C708   C719    1.398   .     A
C708   C718    1.385   .     A
C709   C710    1.385   .     A
C709   C720    1.399   .     A
C709   H814    1.084   1_455 S
C710   C297    1.394   1_556 S
C710   H309    1.083   1_556 S
C711   Br734   1.929   .     S
C712   C713    1.411   .     A
C712   C297    1.430   1_556 S
C712   C300    1.408   1_556 S
C713   C717    1.421   .     A
C713   C720    1.406   .     A
C714   C718    1.387   .     A
C715   C716    1.403   .     A
C715   C300    1.421   1_556 S
C716   C717    1.401   .     A
C716   Br733   1.931   .     S
C717   Br735   1.935   .     S
C718   H721    1.081   .     S
C719   H752    1.083   .     S
H722   C755    1.084   .     S
C724   C541    1.356   1_465 S
C724   Br460   1.940   1_565 S
N726   N728    1.290   .     D
N726   H727    1.029   .     S
N728   Br732   1.877   .     S
N729   O730    1.302   .     A
N729   C449    1.444   1_565 S
N729   O455    1.300   1_565 S
O737   Zn743   1.941   .     S
O737   C785    1.279   .     S
O738   C739    1.297   .     A
O738   Zn744   1.964   .     S
C739   C770    1.426   .     S
O740   Zn743   1.954   .     S
O740   C788    1.291   .     S
O741   Zn744   1.911   .     S
O741   C742    1.300   .     A
C742   C766    1.453   .     S
Zn743  O747    1.911   .     S
Zn743  N774    2.022   .     S
Zn743  O745    1.964   .     S
Zn744  O748    1.954   .     S
Zn744  O746    1.941   .     S
Zn744  N772    2.022   .     S
O745   C749    1.294   .     A
O747   C750    1.300   .     A
C749   C771    1.423   .     S
C749   O792    1.281   .     S
C750   C754    1.446   .     S
C750   O794    1.290   .     S
C751   C761    1.409   .     A
C751   H753    1.081   .     S
C751   C351    1.391   1_556 S
C754   C765    1.398   .     A
C754   C764    1.385   .     A
C755   C756    1.385   .     A
C755   C766    1.399   .     A
C756   C343    1.394   1_556 S
C756   H355    1.083   1_556 S
C757   Br780   1.929   .     S
C758   C759    1.411   .     A
C758   C343    1.430   1_556 S
C758   C346    1.408   1_556 S
C759   C763    1.421   .     A
C759   C766    1.406   .     A
C760   C764    1.387   .     A
C761   C762    1.403   .     A
C761   C346    1.421   1_556 S
C762   C763    1.401   .     A
C762   Br779   1.931   .     S
C763   Br781   1.935   .     S
C764   H767    1.081   .     S
C765   H798    1.083   .     S
H768   C801    1.084   .     S
C770   C449    1.356   1_565 S
C770   Br506   1.940   1_565 S
N772   N774    1.290   .     D
N772   H773    1.029   .     S
N774   Br778   1.877   .     S
N775   O776    1.302   .     A
N775   C495    1.444   1_565 S
N775   O501    1.300   1_565 S
O783   Zn789   1.941   .     S
O783   C693    1.279   1_655 S
O784   C785    1.297   .     A
O784   Zn790   1.964   .     S
C785   C816    1.426   .     S
O786   Zn789   1.954   .     S
O786   C696    1.291   1_655 S
O787   Zn790   1.911   .     S
O787   C788    1.300   .     A
C788   C812    1.453   .     S
Zn789  O793    1.911   .     S
Zn789  N820    2.022   .     S
Zn789  O791    1.964   .     S
Zn790  O794    1.954   .     S
Zn790  O792    1.941   .     S
Zn790  N818    2.022   .     S
O791   C795    1.294   .     A
O793   C796    1.300   .     A
C795   C817    1.423   .     S
C795   O700    1.281   1_655 S
C796   C800    1.446   .     S
C796   O702    1.290   1_655 S
C797   C807    1.409   .     A
C797   H799    1.081   .     S
C797   C397    1.391   1_556 S
C800   C811    1.398   .     A
C800   C810    1.385   .     A
C801   C802    1.385   .     A
C801   C812    1.399   .     A
C802   C389    1.394   1_556 S
C802   H401    1.083   1_556 S
C803   Br826   1.929   .     S
C804   C805    1.411   .     A
C804   C389    1.430   1_556 S
C804   C392    1.408   1_556 S
C805   C809    1.421   .     A
C805   C812    1.406   .     A
C806   C810    1.387   .     A
C807   C808    1.403   .     A
C807   C392    1.421   1_556 S
C808   C809    1.401   .     A
C808   Br825   1.931   .     S
C809   Br827   1.935   .     S
C810   H813    1.081   .     S
C811   H706    1.083   1_655 S
H814   C709    1.084   1_655 S
C816   C495    1.356   1_565 S
C816   Br552   1.940   1_565 S
C817   C586    1.356   1_655 S
N818   N820    1.290   .     D
N818   H819    1.029   .     S
N820   Br824   1.877   .     S
N821   O822    1.302   .     A
N821   C541    1.444   1_565 S
N821   O547    1.300   1_565 S
