data_str_m3_o1_o10_pcu_sym.16
_audit_creation_date              2020-01-03
_audit_creation_method            'Materials Studio'
_symmetry_space_group_name_H-M    'P1'
_symmetry_Int_Tables_number       1
_symmetry_cell_setting            triclinic
loop_
_symmetry_equiv_pos_as_xyz
  x,y,z
_cell_length_a                    25.8555
_cell_length_b                    31.9558
_cell_length_c                    29.5628
_cell_angle_alpha                 90.4270
_cell_angle_beta                  98.8455
_cell_angle_gamma                 90.3811
loop_
_atom_site_label
_atom_site_type_symbol
_atom_site_fract_x
_atom_site_fract_y
_atom_site_fract_z
_atom_site_U_iso_or_equiv
_atom_site_adp_type
_atom_site_occupancy
C1     C     0.16757   0.08672   0.16664   0.00000  Uiso   1.00
C2     C     0.13421   0.02218   0.19147   0.00000  Uiso   1.00
C3     C     0.16518   0.29068   0.16647   0.00000  Uiso   1.00
C4     C     0.16847   0.04254   0.16662   0.00000  Uiso   1.00
C5     C     0.19527   0.19559   0.02820   0.00000  Uiso   1.00
C6     C     0.13975   0.13681   0.30541   0.00000  Uiso   1.00
C7     C     0.19509   0.19593   0.31342   0.00000  Uiso   1.00
C8     C     0.13884   0.13706   0.02001   0.00000  Uiso   1.00
C9     C     0.32136   0.15506   0.09710   0.00000  Uiso   1.00
C10    C     0.00929   0.13135   0.22695   0.00000  Uiso   1.00
C11    C     0.26568   0.02133   0.08603   0.00000  Uiso   1.00
C12    C     0.16590   0.24657   0.16669   0.00000  Uiso   1.00
C13    C     0.04782   0.27727   0.18517   0.00000  Uiso   1.00
C14    C     0.21304   0.26858   0.29932   0.00000  Uiso   1.00
C15    C     0.05644   0.10072   0.02180   0.00000  Uiso   1.00
C16    C     0.06727   0.16271   0.15451   0.00000  Uiso   1.00
C17    C     0.26607   0.16281   0.17826   0.00000  Uiso   1.00
C18    C     0.01241   0.15465   0.14643   0.00000  Uiso   1.00
C19    C     0.31974   0.15068   0.18285   0.00000  Uiso   1.00
C20    C     0.20178   0.02088   0.14135   0.00000  Uiso   1.00
C21    C     0.13155   0.31250   0.19097   0.00000  Uiso   1.00
C22    C     0.19949   0.31091   0.14161   0.00000  Uiso   1.00
H23    H     0.22519   0.29248   0.12384   0.00000  Uiso   1.00
H24    H     0.23763   0.00378   0.06043   0.00000  Uiso   1.00
H25    H     0.08649   0.30739   0.24285   0.00000  Uiso   1.00
H26    H     0.02485   0.30454   0.17046   0.00000  Uiso   1.00
H27    H     0.02340   0.25866   0.20557   0.00000  Uiso   1.00
H28    H     0.05754   0.25708   0.15697   0.00000  Uiso   1.00
H29    H     0.26612   0.22003   0.30366   0.00000  Uiso   1.00
H30    H     0.22400   0.27886   0.00217   0.00000  Uiso   1.00
H31    H     0.17040   0.27312   0.28854   0.00000  Uiso   1.00
H32    H     0.23447   0.28834   0.27751   0.00000  Uiso   1.00
H33    H     0.13076   0.07713   0.04232   0.00000  Uiso   1.00
H34    H     0.10841   0.03981   0.21001   0.00000  Uiso   1.00
H35    H     0.03717   0.13175   0.01852   0.00000  Uiso   1.00
H36    H     0.03715   0.08122   0.04535   0.00000  Uiso   1.00
H37    H     0.05144   0.08487   0.32118   0.00000  Uiso   1.00
H38    H     0.21856   0.21824   0.05002   0.00000  Uiso   1.00
H39    H     0.11968   0.11238   0.28412   0.00000  Uiso   1.00
H40    H     0.33171   0.17948   0.07471   0.00000  Uiso   1.00
H41    H     0.33136   0.14212   0.25893   0.00000  Uiso   1.00
H42    H     0.25947   0.06620   0.13716   0.00000  Uiso   1.00
H43    H     0.29496   0.33313   0.10459   0.00000  Uiso   1.00
H44    H     0.28661   0.04430   0.06734   0.00000  Uiso   1.00
N45    N     0.16665   0.16666   0.28573   0.00000  Uiso   1.00
N46    N     0.16668   0.16668   0.04760   0.00000  Uiso   1.00
N47    N     0.23798   0.04315   0.11800   0.00000  Uiso   1.00
N48    N     0.09485   0.29145   0.21440   0.00000  Uiso   1.00
N49    N     0.22665   0.22518   0.29397   0.00000  Uiso   1.00
N50    N     0.11138   0.10532   0.04008   0.00000  Uiso   1.00
O51    O     0.16666   0.10558   0.20487   0.00000  Uiso   1.00
O52    O     0.03829   0.10133   0.22727   0.00000  Uiso   1.00
O53    O     0.16667   0.22775   0.12846   0.00000  Uiso   1.00
O54    O     0.16666   0.10559   0.12843   0.00000  Uiso   1.00
O55    O     0.16667   0.22774   0.20490   0.00000  Uiso   1.00
O56    O     0.09058   0.16666   0.19595   0.00000  Uiso   1.00
O57    O     0.24275   0.16667   0.13739   0.00000  Uiso   1.00
O58    O     0.09058   0.16667   0.11950   0.00000  Uiso   1.00
O59    O     0.24275   0.16666   0.21383   0.00000  Uiso   1.00
O60    O     0.29197   0.12688   0.08088   0.00000  Uiso   1.00
Zn61   Zn    0.16667   0.16666   0.21771   0.00000  Uiso   1.00
Zn62   Zn    0.16667   0.16667   0.11563   0.00000  Uiso   1.00
C63    C     0.50090   0.08672   0.16664   0.00000  Uiso   1.00
C64    C     0.46755   0.02218   0.19147   0.00000  Uiso   1.00
C65    C     0.49851   0.29068   0.16647   0.00000  Uiso   1.00
C66    C     0.50180   0.04254   0.16662   0.00000  Uiso   1.00
C67    C     0.52860   0.19559   0.02820   0.00000  Uiso   1.00
C68    C     0.47308   0.13681   0.30541   0.00000  Uiso   1.00
C69    C     0.52843   0.19593   0.31342   0.00000  Uiso   1.00
C70    C     0.47218   0.13706   0.02001   0.00000  Uiso   1.00
C71    C     0.65469   0.15506   0.09710   0.00000  Uiso   1.00
C72    C     0.34262   0.13135   0.22695   0.00000  Uiso   1.00
C73    C     0.59901   0.02133   0.08603   0.00000  Uiso   1.00
C74    C     0.49923   0.24657   0.16669   0.00000  Uiso   1.00
C75    C     0.38115   0.27727   0.18517   0.00000  Uiso   1.00
C76    C     0.54637   0.26858   0.29932   0.00000  Uiso   1.00
C77    C     0.38978   0.10072   0.02180   0.00000  Uiso   1.00
C78    C     0.40060   0.16271   0.15451   0.00000  Uiso   1.00
C79    C     0.59940   0.16281   0.17826   0.00000  Uiso   1.00
C80    C     0.34574   0.15465   0.14643   0.00000  Uiso   1.00
C81    C     0.65307   0.15068   0.18285   0.00000  Uiso   1.00
C82    C     0.53512   0.02088   0.14135   0.00000  Uiso   1.00
C83    C     0.46488   0.31250   0.19097   0.00000  Uiso   1.00
C84    C     0.53282   0.31091   0.14161   0.00000  Uiso   1.00
H85    H     0.55852   0.29248   0.12384   0.00000  Uiso   1.00
H86    H     0.57096   0.00378   0.06043   0.00000  Uiso   1.00
H87    H     0.41982   0.30739   0.24285   0.00000  Uiso   1.00
H88    H     0.35819   0.30454   0.17046   0.00000  Uiso   1.00
H89    H     0.35673   0.25866   0.20557   0.00000  Uiso   1.00
H90    H     0.39087   0.25708   0.15697   0.00000  Uiso   1.00
H91    H     0.59945   0.22003   0.30366   0.00000  Uiso   1.00
H92    H     0.55733   0.27886   0.00217   0.00000  Uiso   1.00
H93    H     0.50374   0.27312   0.28854   0.00000  Uiso   1.00
H94    H     0.56780   0.28834   0.27751   0.00000  Uiso   1.00
H95    H     0.46410   0.07713   0.04232   0.00000  Uiso   1.00
H96    H     0.44174   0.03981   0.21001   0.00000  Uiso   1.00
H97    H     0.37050   0.13175   0.01852   0.00000  Uiso   1.00
H98    H     0.37048   0.08122   0.04535   0.00000  Uiso   1.00
H99    H     0.38477   0.08487   0.32118   0.00000  Uiso   1.00
H100   H     0.55189   0.21824   0.05002   0.00000  Uiso   1.00
H101   H     0.45302   0.11238   0.28412   0.00000  Uiso   1.00
H102   H     0.66505   0.17948   0.07471   0.00000  Uiso   1.00
H103   H     0.66469   0.14212   0.25893   0.00000  Uiso   1.00
H104   H     0.59280   0.06620   0.13716   0.00000  Uiso   1.00
H105   H     0.62829   0.33313   0.10459   0.00000  Uiso   1.00
H106   H     0.61995   0.04430   0.06734   0.00000  Uiso   1.00
N107   N     0.49999   0.16666   0.28573   0.00000  Uiso   1.00
N108   N     0.50001   0.16668   0.04760   0.00000  Uiso   1.00
N109   N     0.57132   0.04315   0.11800   0.00000  Uiso   1.00
N110   N     0.42818   0.29145   0.21440   0.00000  Uiso   1.00
N111   N     0.55999   0.22518   0.29397   0.00000  Uiso   1.00
N112   N     0.44472   0.10532   0.04008   0.00000  Uiso   1.00
O113   O     0.50000   0.10558   0.20487   0.00000  Uiso   1.00
O114   O     0.37162   0.10133   0.22727   0.00000  Uiso   1.00
O115   O     0.50000   0.22775   0.12846   0.00000  Uiso   1.00
O116   O     0.50000   0.10559   0.12843   0.00000  Uiso   1.00
O117   O     0.50000   0.22774   0.20490   0.00000  Uiso   1.00
O118   O     0.42392   0.16666   0.19595   0.00000  Uiso   1.00
O119   O     0.57608   0.16667   0.13739   0.00000  Uiso   1.00
O120   O     0.42392   0.16667   0.11950   0.00000  Uiso   1.00
O121   O     0.57608   0.16666   0.21383   0.00000  Uiso   1.00
O122   O     0.62530   0.12688   0.08088   0.00000  Uiso   1.00
Zn123  Zn    0.50000   0.16666   0.21771   0.00000  Uiso   1.00
Zn124  Zn    0.50000   0.16667   0.11563   0.00000  Uiso   1.00
C125   C     0.83424   0.08672   0.16664   0.00000  Uiso   1.00
C126   C     0.80088   0.02218   0.19147   0.00000  Uiso   1.00
C127   C     0.83184   0.29068   0.16647   0.00000  Uiso   1.00
C128   C     0.83513   0.04254   0.16662   0.00000  Uiso   1.00
C129   C     0.86194   0.19559   0.02820   0.00000  Uiso   1.00
C130   C     0.80641   0.13681   0.30541   0.00000  Uiso   1.00
C131   C     0.86176   0.19593   0.31342   0.00000  Uiso   1.00
C132   C     0.80551   0.13706   0.02001   0.00000  Uiso   1.00
C133   C     0.98802   0.15506   0.09710   0.00000  Uiso   1.00
C134   C     0.67596   0.13135   0.22695   0.00000  Uiso   1.00
C135   C     0.93234   0.02133   0.08603   0.00000  Uiso   1.00
C136   C     0.83257   0.24657   0.16669   0.00000  Uiso   1.00
C137   C     0.71448   0.27727   0.18517   0.00000  Uiso   1.00
C138   C     0.87970   0.26858   0.29932   0.00000  Uiso   1.00
C139   C     0.72311   0.10072   0.02180   0.00000  Uiso   1.00
C140   C     0.73394   0.16271   0.15451   0.00000  Uiso   1.00
C141   C     0.93274   0.16281   0.17826   0.00000  Uiso   1.00
C142   C     0.67908   0.15465   0.14643   0.00000  Uiso   1.00
C143   C     0.98641   0.15068   0.18285   0.00000  Uiso   1.00
C144   C     0.86845   0.02088   0.14135   0.00000  Uiso   1.00
C145   C     0.79821   0.31250   0.19097   0.00000  Uiso   1.00
C146   C     0.86615   0.31091   0.14161   0.00000  Uiso   1.00
H147   H     0.89186   0.29248   0.12384   0.00000  Uiso   1.00
H148   H     0.90429   0.00378   0.06043   0.00000  Uiso   1.00
H149   H     0.75316   0.30739   0.24285   0.00000  Uiso   1.00
H150   H     0.69152   0.30454   0.17046   0.00000  Uiso   1.00
H151   H     0.69006   0.25866   0.20557   0.00000  Uiso   1.00
H152   H     0.72420   0.25708   0.15697   0.00000  Uiso   1.00
H153   H     0.93279   0.22003   0.30366   0.00000  Uiso   1.00
H154   H     0.89067   0.27886   0.00217   0.00000  Uiso   1.00
H155   H     0.83707   0.27312   0.28854   0.00000  Uiso   1.00
H156   H     0.90113   0.28834   0.27751   0.00000  Uiso   1.00
H157   H     0.79743   0.07713   0.04232   0.00000  Uiso   1.00
H158   H     0.77507   0.03981   0.21001   0.00000  Uiso   1.00
H159   H     0.70384   0.13175   0.01852   0.00000  Uiso   1.00
H160   H     0.70382   0.08122   0.04535   0.00000  Uiso   1.00
H161   H     0.71810   0.08487   0.32118   0.00000  Uiso   1.00
H162   H     0.88522   0.21824   0.05002   0.00000  Uiso   1.00
H163   H     0.78635   0.11238   0.28412   0.00000  Uiso   1.00
H164   H     0.99838   0.17948   0.07471   0.00000  Uiso   1.00
H165   H     0.99803   0.14212   0.25893   0.00000  Uiso   1.00
H166   H     0.92614   0.06620   0.13716   0.00000  Uiso   1.00
H167   H     0.96163   0.33313   0.10459   0.00000  Uiso   1.00
H168   H     0.95328   0.04430   0.06734   0.00000  Uiso   1.00
N169   N     0.83332   0.16666   0.28573   0.00000  Uiso   1.00
N170   N     0.83335   0.16668   0.04760   0.00000  Uiso   1.00
N171   N     0.90465   0.04315   0.11800   0.00000  Uiso   1.00
N172   N     0.76151   0.29145   0.21440   0.00000  Uiso   1.00
N173   N     0.89332   0.22518   0.29397   0.00000  Uiso   1.00
N174   N     0.77805   0.10532   0.04008   0.00000  Uiso   1.00
O175   O     0.83333   0.10558   0.20487   0.00000  Uiso   1.00
O176   O     0.70495   0.10133   0.22727   0.00000  Uiso   1.00
O177   O     0.83334   0.22775   0.12846   0.00000  Uiso   1.00
O178   O     0.83333   0.10559   0.12843   0.00000  Uiso   1.00
O179   O     0.83334   0.22774   0.20490   0.00000  Uiso   1.00
O180   O     0.75725   0.16666   0.19595   0.00000  Uiso   1.00
O181   O     0.90942   0.16667   0.13739   0.00000  Uiso   1.00
O182   O     0.75725   0.16667   0.11950   0.00000  Uiso   1.00
O183   O     0.90942   0.16666   0.21383   0.00000  Uiso   1.00
O184   O     0.95863   0.12688   0.08088   0.00000  Uiso   1.00
Zn185  Zn    0.83333   0.16666   0.21771   0.00000  Uiso   1.00
Zn186  Zn    0.83333   0.16667   0.11563   0.00000  Uiso   1.00
C187   C     0.16757   0.42006   0.16664   0.00000  Uiso   1.00
C188   C     0.13421   0.35551   0.19147   0.00000  Uiso   1.00
C189   C     0.16518   0.62401   0.16647   0.00000  Uiso   1.00
C190   C     0.16847   0.37588   0.16662   0.00000  Uiso   1.00
C191   C     0.19527   0.52892   0.02820   0.00000  Uiso   1.00
C192   C     0.13975   0.47015   0.30541   0.00000  Uiso   1.00
C193   C     0.19509   0.52926   0.31342   0.00000  Uiso   1.00
C194   C     0.13884   0.47039   0.02001   0.00000  Uiso   1.00
C195   C     0.32136   0.48839   0.09710   0.00000  Uiso   1.00
C196   C     0.00929   0.46468   0.22695   0.00000  Uiso   1.00
C197   C     0.26568   0.35466   0.08603   0.00000  Uiso   1.00
C198   C     0.16590   0.57990   0.16669   0.00000  Uiso   1.00
C199   C     0.04782   0.61060   0.18517   0.00000  Uiso   1.00
C200   C     0.21304   0.60192   0.29932   0.00000  Uiso   1.00
C201   C     0.05644   0.43405   0.02180   0.00000  Uiso   1.00
C202   C     0.06727   0.49605   0.15451   0.00000  Uiso   1.00
C203   C     0.26607   0.49615   0.17826   0.00000  Uiso   1.00
C204   C     0.01241   0.48798   0.14643   0.00000  Uiso   1.00
C205   C     0.31974   0.48401   0.18285   0.00000  Uiso   1.00
C206   C     0.20178   0.35421   0.14135   0.00000  Uiso   1.00
C207   C     0.13155   0.64583   0.19097   0.00000  Uiso   1.00
C208   C     0.19949   0.64424   0.14161   0.00000  Uiso   1.00
H209   H     0.22519   0.62581   0.12384   0.00000  Uiso   1.00
H210   H     0.23763   0.33711   0.06043   0.00000  Uiso   1.00
H211   H     0.08649   0.64073   0.24285   0.00000  Uiso   1.00
H212   H     0.02485   0.63788   0.17046   0.00000  Uiso   1.00
H213   H     0.02340   0.59199   0.20557   0.00000  Uiso   1.00
H214   H     0.05754   0.59041   0.15697   0.00000  Uiso   1.00
H215   H     0.26612   0.55336   0.30366   0.00000  Uiso   1.00
H216   H     0.22400   0.61220   0.00217   0.00000  Uiso   1.00
H217   H     0.17040   0.60645   0.28854   0.00000  Uiso   1.00
H218   H     0.23447   0.62168   0.27751   0.00000  Uiso   1.00
H219   H     0.13076   0.41047   0.04232   0.00000  Uiso   1.00
H220   H     0.10841   0.37314   0.21001   0.00000  Uiso   1.00
H221   H     0.03717   0.46508   0.01852   0.00000  Uiso   1.00
H222   H     0.03715   0.41455   0.04535   0.00000  Uiso   1.00
H223   H     0.05144   0.41820   0.32118   0.00000  Uiso   1.00
H224   H     0.21856   0.55157   0.05002   0.00000  Uiso   1.00
H225   H     0.11968   0.44571   0.28412   0.00000  Uiso   1.00
H226   H     0.33171   0.51282   0.07471   0.00000  Uiso   1.00
H227   H     0.33136   0.47545   0.25893   0.00000  Uiso   1.00
H228   H     0.25947   0.39953   0.13716   0.00000  Uiso   1.00
H229   H     0.29496   0.66647   0.10459   0.00000  Uiso   1.00
H230   H     0.28661   0.37764   0.06734   0.00000  Uiso   1.00
N231   N     0.16665   0.49999   0.28573   0.00000  Uiso   1.00
N232   N     0.16668   0.50001   0.04760   0.00000  Uiso   1.00
N233   N     0.23798   0.37648   0.11800   0.00000  Uiso   1.00
N234   N     0.09485   0.62478   0.21440   0.00000  Uiso   1.00
N235   N     0.22665   0.55851   0.29397   0.00000  Uiso   1.00
N236   N     0.11138   0.43865   0.04008   0.00000  Uiso   1.00
O237   O     0.16666   0.43892   0.20487   0.00000  Uiso   1.00
O238   O     0.03829   0.43466   0.22727   0.00000  Uiso   1.00
O239   O     0.16667   0.56108   0.12846   0.00000  Uiso   1.00
O240   O     0.16666   0.43893   0.12843   0.00000  Uiso   1.00
O241   O     0.16667   0.56107   0.20490   0.00000  Uiso   1.00
O242   O     0.09058   0.50000   0.19595   0.00000  Uiso   1.00
O243   O     0.24275   0.50000   0.13739   0.00000  Uiso   1.00
O244   O     0.09058   0.50000   0.11950   0.00000  Uiso   1.00
O245   O     0.24275   0.50000   0.21383   0.00000  Uiso   1.00
O246   O     0.29197   0.46022   0.08088   0.00000  Uiso   1.00
Zn247  Zn    0.16667   0.49999   0.21771   0.00000  Uiso   1.00
Zn248  Zn    0.16667   0.50001   0.11563   0.00000  Uiso   1.00
C249   C     0.50090   0.42006   0.16664   0.00000  Uiso   1.00
C250   C     0.46755   0.35551   0.19147   0.00000  Uiso   1.00
C251   C     0.49851   0.62401   0.16647   0.00000  Uiso   1.00
C252   C     0.50180   0.37588   0.16662   0.00000  Uiso   1.00
C253   C     0.52860   0.52892   0.02820   0.00000  Uiso   1.00
C254   C     0.47308   0.47015   0.30541   0.00000  Uiso   1.00
C255   C     0.52843   0.52926   0.31342   0.00000  Uiso   1.00
C256   C     0.47218   0.47039   0.02001   0.00000  Uiso   1.00
C257   C     0.65469   0.48839   0.09710   0.00000  Uiso   1.00
C258   C     0.34262   0.46468   0.22695   0.00000  Uiso   1.00
C259   C     0.59901   0.35466   0.08603   0.00000  Uiso   1.00
C260   C     0.49923   0.57990   0.16669   0.00000  Uiso   1.00
C261   C     0.38115   0.61060   0.18517   0.00000  Uiso   1.00
C262   C     0.54637   0.60192   0.29932   0.00000  Uiso   1.00
C263   C     0.38978   0.43405   0.02180   0.00000  Uiso   1.00
C264   C     0.40060   0.49605   0.15451   0.00000  Uiso   1.00
C265   C     0.59940   0.49615   0.17826   0.00000  Uiso   1.00
C266   C     0.34574   0.48798   0.14643   0.00000  Uiso   1.00
C267   C     0.65307   0.48401   0.18285   0.00000  Uiso   1.00
C268   C     0.53512   0.35421   0.14135   0.00000  Uiso   1.00
C269   C     0.46488   0.64583   0.19097   0.00000  Uiso   1.00
C270   C     0.53282   0.64424   0.14161   0.00000  Uiso   1.00
H271   H     0.55852   0.62581   0.12384   0.00000  Uiso   1.00
H272   H     0.57096   0.33711   0.06043   0.00000  Uiso   1.00
H273   H     0.41982   0.64073   0.24285   0.00000  Uiso   1.00
H274   H     0.35819   0.63788   0.17046   0.00000  Uiso   1.00
H275   H     0.35673   0.59199   0.20557   0.00000  Uiso   1.00
H276   H     0.39087   0.59041   0.15697   0.00000  Uiso   1.00
H277   H     0.59945   0.55336   0.30366   0.00000  Uiso   1.00
H278   H     0.55733   0.61220   0.00217   0.00000  Uiso   1.00
H279   H     0.50374   0.60645   0.28854   0.00000  Uiso   1.00
H280   H     0.56780   0.62168   0.27751   0.00000  Uiso   1.00
H281   H     0.46410   0.41047   0.04232   0.00000  Uiso   1.00
H282   H     0.44174   0.37314   0.21001   0.00000  Uiso   1.00
H283   H     0.37050   0.46508   0.01852   0.00000  Uiso   1.00
H284   H     0.37048   0.41455   0.04535   0.00000  Uiso   1.00
H285   H     0.38477   0.41820   0.32118   0.00000  Uiso   1.00
H286   H     0.55189   0.55157   0.05002   0.00000  Uiso   1.00
H287   H     0.45302   0.44571   0.28412   0.00000  Uiso   1.00
H288   H     0.66505   0.51282   0.07471   0.00000  Uiso   1.00
H289   H     0.66469   0.47545   0.25893   0.00000  Uiso   1.00
H290   H     0.59280   0.39953   0.13716   0.00000  Uiso   1.00
H291   H     0.62829   0.66647   0.10459   0.00000  Uiso   1.00
H292   H     0.61995   0.37764   0.06734   0.00000  Uiso   1.00
N293   N     0.49999   0.49999   0.28573   0.00000  Uiso   1.00
N294   N     0.50001   0.50001   0.04760   0.00000  Uiso   1.00
N295   N     0.57132   0.37648   0.11800   0.00000  Uiso   1.00
N296   N     0.42818   0.62478   0.21440   0.00000  Uiso   1.00
N297   N     0.55999   0.55851   0.29397   0.00000  Uiso   1.00
N298   N     0.44472   0.43865   0.04008   0.00000  Uiso   1.00
O299   O     0.50000   0.43892   0.20487   0.00000  Uiso   1.00
O300   O     0.37162   0.43466   0.22727   0.00000  Uiso   1.00
O301   O     0.50000   0.56108   0.12846   0.00000  Uiso   1.00
O302   O     0.50000   0.43893   0.12843   0.00000  Uiso   1.00
O303   O     0.50000   0.56107   0.20490   0.00000  Uiso   1.00
O304   O     0.42392   0.50000   0.19595   0.00000  Uiso   1.00
O305   O     0.57608   0.50000   0.13739   0.00000  Uiso   1.00
O306   O     0.42392   0.50000   0.11950   0.00000  Uiso   1.00
O307   O     0.57608   0.50000   0.21383   0.00000  Uiso   1.00
O308   O     0.62530   0.46022   0.08088   0.00000  Uiso   1.00
Zn309  Zn    0.50000   0.49999   0.21771   0.00000  Uiso   1.00
Zn310  Zn    0.50000   0.50001   0.11563   0.00000  Uiso   1.00
C311   C     0.83424   0.42006   0.16664   0.00000  Uiso   1.00
C312   C     0.80088   0.35551   0.19147   0.00000  Uiso   1.00
C313   C     0.83184   0.62401   0.16647   0.00000  Uiso   1.00
C314   C     0.83513   0.37588   0.16662   0.00000  Uiso   1.00
C315   C     0.86194   0.52892   0.02820   0.00000  Uiso   1.00
C316   C     0.80641   0.47015   0.30541   0.00000  Uiso   1.00
C317   C     0.86176   0.52926   0.31342   0.00000  Uiso   1.00
C318   C     0.80551   0.47039   0.02001   0.00000  Uiso   1.00
C319   C     0.98802   0.48839   0.09710   0.00000  Uiso   1.00
C320   C     0.67596   0.46468   0.22695   0.00000  Uiso   1.00
C321   C     0.93234   0.35466   0.08603   0.00000  Uiso   1.00
C322   C     0.83257   0.57990   0.16669   0.00000  Uiso   1.00
C323   C     0.71448   0.61060   0.18517   0.00000  Uiso   1.00
C324   C     0.87970   0.60192   0.29932   0.00000  Uiso   1.00
C325   C     0.72311   0.43405   0.02180   0.00000  Uiso   1.00
C326   C     0.73394   0.49605   0.15451   0.00000  Uiso   1.00
C327   C     0.93274   0.49615   0.17826   0.00000  Uiso   1.00
C328   C     0.67908   0.48798   0.14643   0.00000  Uiso   1.00
C329   C     0.98641   0.48401   0.18285   0.00000  Uiso   1.00
C330   C     0.86845   0.35421   0.14135   0.00000  Uiso   1.00
C331   C     0.79821   0.64583   0.19097   0.00000  Uiso   1.00
C332   C     0.86615   0.64424   0.14161   0.00000  Uiso   1.00
H333   H     0.89186   0.62581   0.12384   0.00000  Uiso   1.00
H334   H     0.90429   0.33711   0.06043   0.00000  Uiso   1.00
H335   H     0.75316   0.64073   0.24285   0.00000  Uiso   1.00
H336   H     0.69152   0.63788   0.17046   0.00000  Uiso   1.00
H337   H     0.69006   0.59199   0.20557   0.00000  Uiso   1.00
H338   H     0.72420   0.59041   0.15697   0.00000  Uiso   1.00
H339   H     0.93279   0.55336   0.30366   0.00000  Uiso   1.00
H340   H     0.89067   0.61220   0.00217   0.00000  Uiso   1.00
H341   H     0.83707   0.60645   0.28854   0.00000  Uiso   1.00
H342   H     0.90113   0.62168   0.27751   0.00000  Uiso   1.00
H343   H     0.79743   0.41047   0.04232   0.00000  Uiso   1.00
H344   H     0.77507   0.37314   0.21001   0.00000  Uiso   1.00
H345   H     0.70384   0.46508   0.01852   0.00000  Uiso   1.00
H346   H     0.70382   0.41455   0.04535   0.00000  Uiso   1.00
H347   H     0.71810   0.41820   0.32118   0.00000  Uiso   1.00
H348   H     0.88522   0.55157   0.05002   0.00000  Uiso   1.00
H349   H     0.78635   0.44571   0.28412   0.00000  Uiso   1.00
H350   H     0.99838   0.51282   0.07471   0.00000  Uiso   1.00
H351   H     0.99803   0.47545   0.25893   0.00000  Uiso   1.00
H352   H     0.92614   0.39953   0.13716   0.00000  Uiso   1.00
H353   H     0.96163   0.66647   0.10459   0.00000  Uiso   1.00
H354   H     0.95328   0.37764   0.06734   0.00000  Uiso   1.00
N355   N     0.83332   0.49999   0.28573   0.00000  Uiso   1.00
N356   N     0.83335   0.50001   0.04760   0.00000  Uiso   1.00
N357   N     0.90465   0.37648   0.11800   0.00000  Uiso   1.00
N358   N     0.76151   0.62478   0.21440   0.00000  Uiso   1.00
N359   N     0.89332   0.55851   0.29397   0.00000  Uiso   1.00
N360   N     0.77805   0.43865   0.04008   0.00000  Uiso   1.00
O361   O     0.83333   0.43892   0.20487   0.00000  Uiso   1.00
O362   O     0.70495   0.43466   0.22727   0.00000  Uiso   1.00
O363   O     0.83334   0.56108   0.12846   0.00000  Uiso   1.00
O364   O     0.83333   0.43893   0.12843   0.00000  Uiso   1.00
O365   O     0.83334   0.56107   0.20490   0.00000  Uiso   1.00
O366   O     0.75725   0.50000   0.19595   0.00000  Uiso   1.00
O367   O     0.90942   0.50000   0.13739   0.00000  Uiso   1.00
O368   O     0.75725   0.50000   0.11950   0.00000  Uiso   1.00
O369   O     0.90942   0.50000   0.21383   0.00000  Uiso   1.00
O370   O     0.95863   0.46022   0.08088   0.00000  Uiso   1.00
Zn371  Zn    0.83333   0.49999   0.21771   0.00000  Uiso   1.00
Zn372  Zn    0.83333   0.50001   0.11563   0.00000  Uiso   1.00
C373   C     0.16757   0.75339   0.16664   0.00000  Uiso   1.00
C374   C     0.13421   0.68885   0.19147   0.00000  Uiso   1.00
C375   C     0.16518   0.95734   0.16647   0.00000  Uiso   1.00
C376   C     0.16847   0.70921   0.16662   0.00000  Uiso   1.00
C377   C     0.19527   0.86226   0.02820   0.00000  Uiso   1.00
C378   C     0.13975   0.80348   0.30541   0.00000  Uiso   1.00
C379   C     0.19509   0.86260   0.31342   0.00000  Uiso   1.00
C380   C     0.13884   0.80372   0.02001   0.00000  Uiso   1.00
C381   C     0.32136   0.82172   0.09710   0.00000  Uiso   1.00
C382   C     0.00929   0.79801   0.22695   0.00000  Uiso   1.00
C383   C     0.26568   0.68800   0.08603   0.00000  Uiso   1.00
C384   C     0.16590   0.91323   0.16669   0.00000  Uiso   1.00
C385   C     0.04782   0.94393   0.18517   0.00000  Uiso   1.00
C386   C     0.21304   0.93525   0.29932   0.00000  Uiso   1.00
C387   C     0.05644   0.76738   0.02180   0.00000  Uiso   1.00
C388   C     0.06727   0.82938   0.15451   0.00000  Uiso   1.00
C389   C     0.26607   0.82948   0.17826   0.00000  Uiso   1.00
C390   C     0.01241   0.82132   0.14643   0.00000  Uiso   1.00
C391   C     0.31974   0.81734   0.18285   0.00000  Uiso   1.00
C392   C     0.20178   0.68754   0.14135   0.00000  Uiso   1.00
C393   C     0.13155   0.97916   0.19097   0.00000  Uiso   1.00
C394   C     0.19949   0.97758   0.14161   0.00000  Uiso   1.00
H395   H     0.22519   0.95915   0.12384   0.00000  Uiso   1.00
H396   H     0.23763   0.67044   0.06043   0.00000  Uiso   1.00
H397   H     0.08649   0.97406   0.24285   0.00000  Uiso   1.00
H398   H     0.02485   0.97121   0.17046   0.00000  Uiso   1.00
H399   H     0.02340   0.92532   0.20557   0.00000  Uiso   1.00
H400   H     0.05754   0.92374   0.15697   0.00000  Uiso   1.00
H401   H     0.26612   0.88669   0.30366   0.00000  Uiso   1.00
H402   H     0.22400   0.94553   0.00217   0.00000  Uiso   1.00
H403   H     0.17040   0.93978   0.28854   0.00000  Uiso   1.00
H404   H     0.23447   0.95501   0.27751   0.00000  Uiso   1.00
H405   H     0.13076   0.74380   0.04232   0.00000  Uiso   1.00
H406   H     0.10841   0.70648   0.21001   0.00000  Uiso   1.00
H407   H     0.03717   0.79841   0.01852   0.00000  Uiso   1.00
H408   H     0.03715   0.74788   0.04535   0.00000  Uiso   1.00
H409   H     0.05144   0.75153   0.32118   0.00000  Uiso   1.00
H410   H     0.21856   0.88491   0.05002   0.00000  Uiso   1.00
H411   H     0.11968   0.77905   0.28412   0.00000  Uiso   1.00
H412   H     0.33171   0.84615   0.07471   0.00000  Uiso   1.00
H413   H     0.33136   0.80878   0.25893   0.00000  Uiso   1.00
H414   H     0.25947   0.73287   0.13716   0.00000  Uiso   1.00
H415   H     0.29496   0.99980   0.10459   0.00000  Uiso   1.00
H416   H     0.28661   0.71097   0.06734   0.00000  Uiso   1.00
N417   N     0.16665   0.83332   0.28573   0.00000  Uiso   1.00
N418   N     0.16668   0.83334   0.04760   0.00000  Uiso   1.00
N419   N     0.23798   0.70982   0.11800   0.00000  Uiso   1.00
N420   N     0.09485   0.95811   0.21440   0.00000  Uiso   1.00
N421   N     0.22665   0.89185   0.29397   0.00000  Uiso   1.00
N422   N     0.11138   0.77199   0.04008   0.00000  Uiso   1.00
O423   O     0.16666   0.77225   0.20487   0.00000  Uiso   1.00
O424   O     0.03829   0.76800   0.22727   0.00000  Uiso   1.00
O425   O     0.16667   0.89442   0.12846   0.00000  Uiso   1.00
O426   O     0.16666   0.77226   0.12843   0.00000  Uiso   1.00
O427   O     0.16667   0.89441   0.20490   0.00000  Uiso   1.00
O428   O     0.09058   0.83333   0.19595   0.00000  Uiso   1.00
O429   O     0.24275   0.83334   0.13739   0.00000  Uiso   1.00
O430   O     0.09058   0.83334   0.11950   0.00000  Uiso   1.00
O431   O     0.24275   0.83333   0.21383   0.00000  Uiso   1.00
O432   O     0.29197   0.79355   0.08088   0.00000  Uiso   1.00
Zn433  Zn    0.16667   0.83333   0.21771   0.00000  Uiso   1.00
Zn434  Zn    0.16667   0.83334   0.11563   0.00000  Uiso   1.00
C435   C     0.50090   0.75339   0.16664   0.00000  Uiso   1.00
C436   C     0.46755   0.68885   0.19147   0.00000  Uiso   1.00
C437   C     0.49851   0.95734   0.16647   0.00000  Uiso   1.00
C438   C     0.50180   0.70921   0.16662   0.00000  Uiso   1.00
C439   C     0.52860   0.86226   0.02820   0.00000  Uiso   1.00
C440   C     0.47308   0.80348   0.30541   0.00000  Uiso   1.00
C441   C     0.52843   0.86260   0.31342   0.00000  Uiso   1.00
C442   C     0.47218   0.80372   0.02001   0.00000  Uiso   1.00
C443   C     0.65469   0.82172   0.09710   0.00000  Uiso   1.00
C444   C     0.34262   0.79801   0.22695   0.00000  Uiso   1.00
C445   C     0.59901   0.68800   0.08603   0.00000  Uiso   1.00
C446   C     0.49923   0.91323   0.16669   0.00000  Uiso   1.00
C447   C     0.38115   0.94393   0.18517   0.00000  Uiso   1.00
C448   C     0.54637   0.93525   0.29932   0.00000  Uiso   1.00
C449   C     0.38978   0.76738   0.02180   0.00000  Uiso   1.00
C450   C     0.40060   0.82938   0.15451   0.00000  Uiso   1.00
C451   C     0.59940   0.82948   0.17826   0.00000  Uiso   1.00
C452   C     0.34574   0.82132   0.14643   0.00000  Uiso   1.00
C453   C     0.65307   0.81734   0.18285   0.00000  Uiso   1.00
C454   C     0.53512   0.68754   0.14135   0.00000  Uiso   1.00
C455   C     0.46488   0.97916   0.19097   0.00000  Uiso   1.00
C456   C     0.53282   0.97758   0.14161   0.00000  Uiso   1.00
H457   H     0.55852   0.95915   0.12384   0.00000  Uiso   1.00
H458   H     0.57096   0.67044   0.06043   0.00000  Uiso   1.00
H459   H     0.41982   0.97406   0.24285   0.00000  Uiso   1.00
H460   H     0.35819   0.97121   0.17046   0.00000  Uiso   1.00
H461   H     0.35673   0.92532   0.20557   0.00000  Uiso   1.00
H462   H     0.39087   0.92374   0.15697   0.00000  Uiso   1.00
H463   H     0.59945   0.88669   0.30366   0.00000  Uiso   1.00
H464   H     0.55733   0.94553   0.00217   0.00000  Uiso   1.00
H465   H     0.50374   0.93978   0.28854   0.00000  Uiso   1.00
H466   H     0.56780   0.95501   0.27751   0.00000  Uiso   1.00
H467   H     0.46410   0.74380   0.04232   0.00000  Uiso   1.00
H468   H     0.44174   0.70648   0.21001   0.00000  Uiso   1.00
H469   H     0.37050   0.79841   0.01852   0.00000  Uiso   1.00
H470   H     0.37048   0.74788   0.04535   0.00000  Uiso   1.00
H471   H     0.38477   0.75153   0.32118   0.00000  Uiso   1.00
H472   H     0.55189   0.88491   0.05002   0.00000  Uiso   1.00
H473   H     0.45302   0.77905   0.28412   0.00000  Uiso   1.00
H474   H     0.66505   0.84615   0.07471   0.00000  Uiso   1.00
H475   H     0.66469   0.80878   0.25893   0.00000  Uiso   1.00
H476   H     0.59280   0.73287   0.13716   0.00000  Uiso   1.00
H477   H     0.62829   0.99980   0.10459   0.00000  Uiso   1.00
H478   H     0.61995   0.71097   0.06734   0.00000  Uiso   1.00
N479   N     0.49999   0.83332   0.28573   0.00000  Uiso   1.00
N480   N     0.50001   0.83334   0.04760   0.00000  Uiso   1.00
N481   N     0.57132   0.70982   0.11800   0.00000  Uiso   1.00
N482   N     0.42818   0.95811   0.21440   0.00000  Uiso   1.00
N483   N     0.55999   0.89185   0.29397   0.00000  Uiso   1.00
N484   N     0.44472   0.77199   0.04008   0.00000  Uiso   1.00
O485   O     0.50000   0.77225   0.20487   0.00000  Uiso   1.00
O486   O     0.37162   0.76800   0.22727   0.00000  Uiso   1.00
O487   O     0.50000   0.89442   0.12846   0.00000  Uiso   1.00
O488   O     0.50000   0.77226   0.12843   0.00000  Uiso   1.00
O489   O     0.50000   0.89441   0.20490   0.00000  Uiso   1.00
O490   O     0.42392   0.83333   0.19595   0.00000  Uiso   1.00
O491   O     0.57608   0.83334   0.13739   0.00000  Uiso   1.00
O492   O     0.42392   0.83334   0.11950   0.00000  Uiso   1.00
O493   O     0.57608   0.83333   0.21383   0.00000  Uiso   1.00
O494   O     0.62530   0.79355   0.08088   0.00000  Uiso   1.00
Zn495  Zn    0.50000   0.83333   0.21771   0.00000  Uiso   1.00
Zn496  Zn    0.50000   0.83334   0.11563   0.00000  Uiso   1.00
C497   C     0.83424   0.75339   0.16664   0.00000  Uiso   1.00
C498   C     0.80088   0.68885   0.19147   0.00000  Uiso   1.00
C499   C     0.83184   0.95734   0.16647   0.00000  Uiso   1.00
C500   C     0.83513   0.70921   0.16662   0.00000  Uiso   1.00
C501   C     0.86194   0.86226   0.02820   0.00000  Uiso   1.00
C502   C     0.80641   0.80348   0.30541   0.00000  Uiso   1.00
C503   C     0.86176   0.86260   0.31342   0.00000  Uiso   1.00
C504   C     0.80551   0.80372   0.02001   0.00000  Uiso   1.00
C505   C     0.98802   0.82172   0.09710   0.00000  Uiso   1.00
C506   C     0.67596   0.79801   0.22695   0.00000  Uiso   1.00
C507   C     0.93234   0.68800   0.08603   0.00000  Uiso   1.00
C508   C     0.83257   0.91323   0.16669   0.00000  Uiso   1.00
C509   C     0.71448   0.94393   0.18517   0.00000  Uiso   1.00
C510   C     0.87970   0.93525   0.29932   0.00000  Uiso   1.00
C511   C     0.72311   0.76738   0.02180   0.00000  Uiso   1.00
C512   C     0.73394   0.82938   0.15451   0.00000  Uiso   1.00
C513   C     0.93274   0.82948   0.17826   0.00000  Uiso   1.00
C514   C     0.67908   0.82132   0.14643   0.00000  Uiso   1.00
C515   C     0.98641   0.81734   0.18285   0.00000  Uiso   1.00
C516   C     0.86845   0.68754   0.14135   0.00000  Uiso   1.00
C517   C     0.79821   0.97916   0.19097   0.00000  Uiso   1.00
C518   C     0.86615   0.97758   0.14161   0.00000  Uiso   1.00
H519   H     0.89186   0.95915   0.12384   0.00000  Uiso   1.00
H520   H     0.90429   0.67044   0.06043   0.00000  Uiso   1.00
H521   H     0.75316   0.97406   0.24285   0.00000  Uiso   1.00
H522   H     0.69152   0.97121   0.17046   0.00000  Uiso   1.00
H523   H     0.69006   0.92532   0.20557   0.00000  Uiso   1.00
H524   H     0.72420   0.92374   0.15697   0.00000  Uiso   1.00
H525   H     0.93279   0.88669   0.30366   0.00000  Uiso   1.00
H526   H     0.89067   0.94553   0.00217   0.00000  Uiso   1.00
H527   H     0.83707   0.93978   0.28854   0.00000  Uiso   1.00
H528   H     0.90113   0.95501   0.27751   0.00000  Uiso   1.00
H529   H     0.79743   0.74380   0.04232   0.00000  Uiso   1.00
H530   H     0.77507   0.70648   0.21001   0.00000  Uiso   1.00
H531   H     0.70384   0.79841   0.01852   0.00000  Uiso   1.00
H532   H     0.70382   0.74788   0.04535   0.00000  Uiso   1.00
H533   H     0.71810   0.75153   0.32118   0.00000  Uiso   1.00
H534   H     0.88522   0.88491   0.05002   0.00000  Uiso   1.00
H535   H     0.78635   0.77905   0.28412   0.00000  Uiso   1.00
H536   H     0.99838   0.84615   0.07471   0.00000  Uiso   1.00
H537   H     0.99803   0.80878   0.25893   0.00000  Uiso   1.00
H538   H     0.92614   0.73287   0.13716   0.00000  Uiso   1.00
H539   H     0.96163   0.99980   0.10459   0.00000  Uiso   1.00
H540   H     0.95328   0.71097   0.06734   0.00000  Uiso   1.00
N541   N     0.83332   0.83332   0.28573   0.00000  Uiso   1.00
N542   N     0.83335   0.83334   0.04760   0.00000  Uiso   1.00
N543   N     0.90465   0.70982   0.11800   0.00000  Uiso   1.00
N544   N     0.76151   0.95811   0.21440   0.00000  Uiso   1.00
N545   N     0.89332   0.89185   0.29397   0.00000  Uiso   1.00
N546   N     0.77805   0.77199   0.04008   0.00000  Uiso   1.00
O547   O     0.83333   0.77225   0.20487   0.00000  Uiso   1.00
O548   O     0.70495   0.76800   0.22727   0.00000  Uiso   1.00
O549   O     0.83334   0.89442   0.12846   0.00000  Uiso   1.00
O550   O     0.83333   0.77226   0.12843   0.00000  Uiso   1.00
O551   O     0.83334   0.89441   0.20490   0.00000  Uiso   1.00
O552   O     0.75725   0.83333   0.19595   0.00000  Uiso   1.00
O553   O     0.90942   0.83334   0.13739   0.00000  Uiso   1.00
O554   O     0.75725   0.83334   0.11950   0.00000  Uiso   1.00
O555   O     0.90942   0.83333   0.21383   0.00000  Uiso   1.00
O556   O     0.95863   0.79355   0.08088   0.00000  Uiso   1.00
Zn557  Zn    0.83333   0.83333   0.21771   0.00000  Uiso   1.00
Zn558  Zn    0.83333   0.83334   0.11563   0.00000  Uiso   1.00
C559   C     0.16757   0.08672   0.49997   0.00000  Uiso   1.00
C560   C     0.13421   0.02218   0.52481   0.00000  Uiso   1.00
C561   C     0.16518   0.29068   0.49980   0.00000  Uiso   1.00
C562   C     0.16847   0.04254   0.49995   0.00000  Uiso   1.00
C563   C     0.19527   0.19559   0.36153   0.00000  Uiso   1.00
C564   C     0.13975   0.13681   0.63874   0.00000  Uiso   1.00
C565   C     0.19509   0.19593   0.64675   0.00000  Uiso   1.00
C566   C     0.13884   0.13706   0.35335   0.00000  Uiso   1.00
C567   C     0.32136   0.15506   0.43044   0.00000  Uiso   1.00
C568   C     0.00929   0.13135   0.56029   0.00000  Uiso   1.00
C569   C     0.26568   0.02133   0.41936   0.00000  Uiso   1.00
C570   C     0.16590   0.24657   0.50002   0.00000  Uiso   1.00
C571   C     0.04782   0.27727   0.51850   0.00000  Uiso   1.00
C572   C     0.21304   0.26858   0.63265   0.00000  Uiso   1.00
C573   C     0.05644   0.10072   0.35513   0.00000  Uiso   1.00
C574   C     0.06727   0.16271   0.48785   0.00000  Uiso   1.00
C575   C     0.26607   0.16281   0.51159   0.00000  Uiso   1.00
C576   C     0.01241   0.15465   0.47976   0.00000  Uiso   1.00
C577   C     0.31974   0.15068   0.51618   0.00000  Uiso   1.00
C578   C     0.20178   0.02088   0.47468   0.00000  Uiso   1.00
C579   C     0.13155   0.31250   0.52431   0.00000  Uiso   1.00
C580   C     0.19949   0.31091   0.47495   0.00000  Uiso   1.00
H581   H     0.22519   0.29248   0.45717   0.00000  Uiso   1.00
H582   H     0.23763   0.00378   0.39376   0.00000  Uiso   1.00
H583   H     0.08649   0.30739   0.57619   0.00000  Uiso   1.00
H584   H     0.02485   0.30454   0.50379   0.00000  Uiso   1.00
H585   H     0.02340   0.25866   0.53890   0.00000  Uiso   1.00
H586   H     0.05754   0.25708   0.49031   0.00000  Uiso   1.00
H587   H     0.26612   0.22003   0.63699   0.00000  Uiso   1.00
H588   H     0.22400   0.27886   0.33550   0.00000  Uiso   1.00
H589   H     0.17040   0.27312   0.62187   0.00000  Uiso   1.00
H590   H     0.23447   0.28834   0.61084   0.00000  Uiso   1.00
H591   H     0.13076   0.07713   0.37565   0.00000  Uiso   1.00
H592   H     0.10841   0.03981   0.54335   0.00000  Uiso   1.00
H593   H     0.03717   0.13175   0.35185   0.00000  Uiso   1.00
H594   H     0.03715   0.08122   0.37869   0.00000  Uiso   1.00
H595   H     0.05144   0.08487   0.65452   0.00000  Uiso   1.00
H596   H     0.21856   0.21824   0.38336   0.00000  Uiso   1.00
H597   H     0.11968   0.11238   0.61745   0.00000  Uiso   1.00
H598   H     0.33171   0.17948   0.40804   0.00000  Uiso   1.00
H599   H     0.33136   0.14212   0.59226   0.00000  Uiso   1.00
H600   H     0.25947   0.06620   0.47050   0.00000  Uiso   1.00
H601   H     0.29496   0.33313   0.43792   0.00000  Uiso   1.00
H602   H     0.28661   0.04430   0.40067   0.00000  Uiso   1.00
N603   N     0.16665   0.16666   0.61907   0.00000  Uiso   1.00
N604   N     0.16668   0.16668   0.38093   0.00000  Uiso   1.00
N605   N     0.23798   0.04315   0.45133   0.00000  Uiso   1.00
N606   N     0.09485   0.29145   0.54773   0.00000  Uiso   1.00
N607   N     0.22665   0.22518   0.62731   0.00000  Uiso   1.00
N608   N     0.11138   0.10532   0.37341   0.00000  Uiso   1.00
O609   O     0.16666   0.10558   0.53821   0.00000  Uiso   1.00
O610   O     0.03829   0.10133   0.56060   0.00000  Uiso   1.00
O611   O     0.16667   0.22775   0.46179   0.00000  Uiso   1.00
O612   O     0.16666   0.10559   0.46176   0.00000  Uiso   1.00
O613   O     0.16667   0.22774   0.53824   0.00000  Uiso   1.00
O614   O     0.09058   0.16666   0.52928   0.00000  Uiso   1.00
O615   O     0.24275   0.16667   0.47072   0.00000  Uiso   1.00
O616   O     0.09058   0.16667   0.45284   0.00000  Uiso   1.00
O617   O     0.24275   0.16666   0.54716   0.00000  Uiso   1.00
O618   O     0.29197   0.12688   0.41421   0.00000  Uiso   1.00
Zn619  Zn    0.16667   0.16666   0.55104   0.00000  Uiso   1.00
Zn620  Zn    0.16667   0.16667   0.44896   0.00000  Uiso   1.00
C621   C     0.50090   0.08672   0.49997   0.00000  Uiso   1.00
C622   C     0.46755   0.02218   0.52481   0.00000  Uiso   1.00
C623   C     0.49851   0.29068   0.49980   0.00000  Uiso   1.00
C624   C     0.50180   0.04254   0.49995   0.00000  Uiso   1.00
C625   C     0.52860   0.19559   0.36153   0.00000  Uiso   1.00
C626   C     0.47308   0.13681   0.63874   0.00000  Uiso   1.00
C627   C     0.52843   0.19593   0.64675   0.00000  Uiso   1.00
C628   C     0.47218   0.13706   0.35335   0.00000  Uiso   1.00
C629   C     0.65469   0.15506   0.43044   0.00000  Uiso   1.00
C630   C     0.34262   0.13135   0.56029   0.00000  Uiso   1.00
C631   C     0.59901   0.02133   0.41936   0.00000  Uiso   1.00
C632   C     0.49923   0.24657   0.50002   0.00000  Uiso   1.00
C633   C     0.38115   0.27727   0.51850   0.00000  Uiso   1.00
C634   C     0.54637   0.26858   0.63265   0.00000  Uiso   1.00
C635   C     0.38978   0.10072   0.35513   0.00000  Uiso   1.00
C636   C     0.40060   0.16271   0.48785   0.00000  Uiso   1.00
C637   C     0.59940   0.16281   0.51159   0.00000  Uiso   1.00
C638   C     0.34574   0.15465   0.47976   0.00000  Uiso   1.00
C639   C     0.65307   0.15068   0.51618   0.00000  Uiso   1.00
C640   C     0.53512   0.02088   0.47468   0.00000  Uiso   1.00
C641   C     0.46488   0.31250   0.52431   0.00000  Uiso   1.00
C642   C     0.53282   0.31091   0.47495   0.00000  Uiso   1.00
H643   H     0.55852   0.29248   0.45717   0.00000  Uiso   1.00
H644   H     0.57096   0.00378   0.39376   0.00000  Uiso   1.00
H645   H     0.41982   0.30739   0.57619   0.00000  Uiso   1.00
H646   H     0.35819   0.30454   0.50379   0.00000  Uiso   1.00
H647   H     0.35673   0.25866   0.53890   0.00000  Uiso   1.00
H648   H     0.39087   0.25708   0.49031   0.00000  Uiso   1.00
H649   H     0.59945   0.22003   0.63699   0.00000  Uiso   1.00
H650   H     0.55733   0.27886   0.33550   0.00000  Uiso   1.00
H651   H     0.50374   0.27312   0.62187   0.00000  Uiso   1.00
H652   H     0.56780   0.28834   0.61084   0.00000  Uiso   1.00
H653   H     0.46410   0.07713   0.37565   0.00000  Uiso   1.00
H654   H     0.44174   0.03981   0.54335   0.00000  Uiso   1.00
H655   H     0.37050   0.13175   0.35185   0.00000  Uiso   1.00
H656   H     0.37048   0.08122   0.37869   0.00000  Uiso   1.00
H657   H     0.38477   0.08487   0.65452   0.00000  Uiso   1.00
H658   H     0.55189   0.21824   0.38336   0.00000  Uiso   1.00
H659   H     0.45302   0.11238   0.61745   0.00000  Uiso   1.00
H660   H     0.66505   0.17948   0.40804   0.00000  Uiso   1.00
H661   H     0.66469   0.14212   0.59226   0.00000  Uiso   1.00
H662   H     0.59280   0.06620   0.47050   0.00000  Uiso   1.00
H663   H     0.62829   0.33313   0.43792   0.00000  Uiso   1.00
H664   H     0.61995   0.04430   0.40067   0.00000  Uiso   1.00
N665   N     0.49999   0.16666   0.61907   0.00000  Uiso   1.00
N666   N     0.50001   0.16668   0.38093   0.00000  Uiso   1.00
N667   N     0.57132   0.04315   0.45133   0.00000  Uiso   1.00
N668   N     0.42818   0.29145   0.54773   0.00000  Uiso   1.00
N669   N     0.55999   0.22518   0.62731   0.00000  Uiso   1.00
N670   N     0.44472   0.10532   0.37341   0.00000  Uiso   1.00
O671   O     0.50000   0.10558   0.53821   0.00000  Uiso   1.00
O672   O     0.37162   0.10133   0.56060   0.00000  Uiso   1.00
O673   O     0.50000   0.22775   0.46179   0.00000  Uiso   1.00
O674   O     0.50000   0.10559   0.46176   0.00000  Uiso   1.00
O675   O     0.50000   0.22774   0.53824   0.00000  Uiso   1.00
O676   O     0.42392   0.16666   0.52928   0.00000  Uiso   1.00
O677   O     0.57608   0.16667   0.47072   0.00000  Uiso   1.00
O678   O     0.42392   0.16667   0.45284   0.00000  Uiso   1.00
O679   O     0.57608   0.16666   0.54716   0.00000  Uiso   1.00
O680   O     0.62530   0.12688   0.41421   0.00000  Uiso   1.00
Zn681  Zn    0.50000   0.16666   0.55104   0.00000  Uiso   1.00
Zn682  Zn    0.50000   0.16667   0.44896   0.00000  Uiso   1.00
C683   C     0.83424   0.08672   0.49997   0.00000  Uiso   1.00
C684   C     0.80088   0.02218   0.52481   0.00000  Uiso   1.00
C685   C     0.83184   0.29068   0.49980   0.00000  Uiso   1.00
C686   C     0.83513   0.04254   0.49995   0.00000  Uiso   1.00
C687   C     0.86194   0.19559   0.36153   0.00000  Uiso   1.00
C688   C     0.80641   0.13681   0.63874   0.00000  Uiso   1.00
C689   C     0.86176   0.19593   0.64675   0.00000  Uiso   1.00
C690   C     0.80551   0.13706   0.35335   0.00000  Uiso   1.00
C691   C     0.98802   0.15506   0.43044   0.00000  Uiso   1.00
C692   C     0.67596   0.13135   0.56029   0.00000  Uiso   1.00
C693   C     0.93234   0.02133   0.41936   0.00000  Uiso   1.00
C694   C     0.83257   0.24657   0.50002   0.00000  Uiso   1.00
C695   C     0.71448   0.27727   0.51850   0.00000  Uiso   1.00
C696   C     0.87970   0.26858   0.63265   0.00000  Uiso   1.00
C697   C     0.72311   0.10072   0.35513   0.00000  Uiso   1.00
C698   C     0.73394   0.16271   0.48785   0.00000  Uiso   1.00
C699   C     0.93274   0.16281   0.51159   0.00000  Uiso   1.00
C700   C     0.67908   0.15465   0.47976   0.00000  Uiso   1.00
C701   C     0.98641   0.15068   0.51618   0.00000  Uiso   1.00
C702   C     0.86845   0.02088   0.47468   0.00000  Uiso   1.00
C703   C     0.79821   0.31250   0.52431   0.00000  Uiso   1.00
C704   C     0.86615   0.31091   0.47495   0.00000  Uiso   1.00
H705   H     0.89186   0.29248   0.45717   0.00000  Uiso   1.00
H706   H     0.90429   0.00378   0.39376   0.00000  Uiso   1.00
H707   H     0.75316   0.30739   0.57619   0.00000  Uiso   1.00
H708   H     0.69152   0.30454   0.50379   0.00000  Uiso   1.00
H709   H     0.69006   0.25866   0.53890   0.00000  Uiso   1.00
H710   H     0.72420   0.25708   0.49031   0.00000  Uiso   1.00
H711   H     0.93279   0.22003   0.63699   0.00000  Uiso   1.00
H712   H     0.89067   0.27886   0.33550   0.00000  Uiso   1.00
H713   H     0.83707   0.27312   0.62187   0.00000  Uiso   1.00
H714   H     0.90113   0.28834   0.61084   0.00000  Uiso   1.00
H715   H     0.79743   0.07713   0.37565   0.00000  Uiso   1.00
H716   H     0.77507   0.03981   0.54335   0.00000  Uiso   1.00
H717   H     0.70384   0.13175   0.35185   0.00000  Uiso   1.00
H718   H     0.70382   0.08122   0.37869   0.00000  Uiso   1.00
H719   H     0.71810   0.08487   0.65452   0.00000  Uiso   1.00
H720   H     0.88522   0.21824   0.38336   0.00000  Uiso   1.00
H721   H     0.78635   0.11238   0.61745   0.00000  Uiso   1.00
H722   H     0.99838   0.17948   0.40804   0.00000  Uiso   1.00
H723   H     0.99803   0.14212   0.59226   0.00000  Uiso   1.00
H724   H     0.92614   0.06620   0.47050   0.00000  Uiso   1.00
H725   H     0.96163   0.33313   0.43792   0.00000  Uiso   1.00
H726   H     0.95328   0.04430   0.40067   0.00000  Uiso   1.00
N727   N     0.83332   0.16666   0.61907   0.00000  Uiso   1.00
N728   N     0.83335   0.16668   0.38093   0.00000  Uiso   1.00
N729   N     0.90465   0.04315   0.45133   0.00000  Uiso   1.00
N730   N     0.76151   0.29145   0.54773   0.00000  Uiso   1.00
N731   N     0.89332   0.22518   0.62731   0.00000  Uiso   1.00
N732   N     0.77805   0.10532   0.37341   0.00000  Uiso   1.00
O733   O     0.83333   0.10558   0.53821   0.00000  Uiso   1.00
O734   O     0.70495   0.10133   0.56060   0.00000  Uiso   1.00
O735   O     0.83334   0.22775   0.46179   0.00000  Uiso   1.00
O736   O     0.83333   0.10559   0.46176   0.00000  Uiso   1.00
O737   O     0.83334   0.22774   0.53824   0.00000  Uiso   1.00
O738   O     0.75725   0.16666   0.52928   0.00000  Uiso   1.00
O739   O     0.90942   0.16667   0.47072   0.00000  Uiso   1.00
O740   O     0.75725   0.16667   0.45284   0.00000  Uiso   1.00
O741   O     0.90942   0.16666   0.54716   0.00000  Uiso   1.00
O742   O     0.95863   0.12688   0.41421   0.00000  Uiso   1.00
Zn743  Zn    0.83333   0.16666   0.55104   0.00000  Uiso   1.00
Zn744  Zn    0.83333   0.16667   0.44896   0.00000  Uiso   1.00
C745   C     0.16757   0.42006   0.49997   0.00000  Uiso   1.00
C746   C     0.13421   0.35551   0.52481   0.00000  Uiso   1.00
C747   C     0.16518   0.62401   0.49980   0.00000  Uiso   1.00
C748   C     0.16847   0.37588   0.49995   0.00000  Uiso   1.00
C749   C     0.19527   0.52892   0.36153   0.00000  Uiso   1.00
C750   C     0.13975   0.47015   0.63874   0.00000  Uiso   1.00
C751   C     0.19509   0.52926   0.64675   0.00000  Uiso   1.00
C752   C     0.13884   0.47039   0.35335   0.00000  Uiso   1.00
C753   C     0.32136   0.48839   0.43044   0.00000  Uiso   1.00
C754   C     0.00929   0.46468   0.56029   0.00000  Uiso   1.00
C755   C     0.26568   0.35466   0.41936   0.00000  Uiso   1.00
C756   C     0.16590   0.57990   0.50002   0.00000  Uiso   1.00
C757   C     0.04782   0.61060   0.51850   0.00000  Uiso   1.00
C758   C     0.21304   0.60192   0.63265   0.00000  Uiso   1.00
C759   C     0.05644   0.43405   0.35513   0.00000  Uiso   1.00
C760   C     0.06727   0.49605   0.48785   0.00000  Uiso   1.00
C761   C     0.26607   0.49615   0.51159   0.00000  Uiso   1.00
C762   C     0.01241   0.48798   0.47976   0.00000  Uiso   1.00
C763   C     0.31974   0.48401   0.51618   0.00000  Uiso   1.00
C764   C     0.20178   0.35421   0.47468   0.00000  Uiso   1.00
C765   C     0.13155   0.64583   0.52431   0.00000  Uiso   1.00
C766   C     0.19949   0.64424   0.47495   0.00000  Uiso   1.00
H767   H     0.22519   0.62581   0.45717   0.00000  Uiso   1.00
H768   H     0.23763   0.33711   0.39376   0.00000  Uiso   1.00
H769   H     0.08649   0.64073   0.57619   0.00000  Uiso   1.00
H770   H     0.02485   0.63788   0.50379   0.00000  Uiso   1.00
H771   H     0.02340   0.59199   0.53890   0.00000  Uiso   1.00
H772   H     0.05754   0.59041   0.49031   0.00000  Uiso   1.00
H773   H     0.26612   0.55336   0.63699   0.00000  Uiso   1.00
H774   H     0.22400   0.61220   0.33550   0.00000  Uiso   1.00
H775   H     0.17040   0.60645   0.62187   0.00000  Uiso   1.00
H776   H     0.23447   0.62168   0.61084   0.00000  Uiso   1.00
H777   H     0.13076   0.41047   0.37565   0.00000  Uiso   1.00
H778   H     0.10841   0.37314   0.54335   0.00000  Uiso   1.00
H779   H     0.03717   0.46508   0.35185   0.00000  Uiso   1.00
H780   H     0.03715   0.41455   0.37869   0.00000  Uiso   1.00
H781   H     0.05144   0.41820   0.65452   0.00000  Uiso   1.00
H782   H     0.21856   0.55157   0.38336   0.00000  Uiso   1.00
H783   H     0.11968   0.44571   0.61745   0.00000  Uiso   1.00
H784   H     0.33171   0.51282   0.40804   0.00000  Uiso   1.00
H785   H     0.33136   0.47545   0.59226   0.00000  Uiso   1.00
H786   H     0.25947   0.39953   0.47050   0.00000  Uiso   1.00
H787   H     0.29496   0.66647   0.43792   0.00000  Uiso   1.00
H788   H     0.28661   0.37764   0.40067   0.00000  Uiso   1.00
N789   N     0.16665   0.49999   0.61907   0.00000  Uiso   1.00
N790   N     0.16668   0.50001   0.38093   0.00000  Uiso   1.00
N791   N     0.23798   0.37648   0.45133   0.00000  Uiso   1.00
N792   N     0.09485   0.62478   0.54773   0.00000  Uiso   1.00
N793   N     0.22665   0.55851   0.62731   0.00000  Uiso   1.00
N794   N     0.11138   0.43865   0.37341   0.00000  Uiso   1.00
O795   O     0.16666   0.43892   0.53821   0.00000  Uiso   1.00
O796   O     0.03829   0.43466   0.56060   0.00000  Uiso   1.00
O797   O     0.16667   0.56108   0.46179   0.00000  Uiso   1.00
O798   O     0.16666   0.43893   0.46176   0.00000  Uiso   1.00
O799   O     0.16667   0.56107   0.53824   0.00000  Uiso   1.00
O800   O     0.09058   0.50000   0.52928   0.00000  Uiso   1.00
O801   O     0.24275   0.50000   0.47072   0.00000  Uiso   1.00
O802   O     0.09058   0.50000   0.45284   0.00000  Uiso   1.00
O803   O     0.24275   0.50000   0.54716   0.00000  Uiso   1.00
O804   O     0.29197   0.46022   0.41421   0.00000  Uiso   1.00
Zn805  Zn    0.16667   0.49999   0.55104   0.00000  Uiso   1.00
Zn806  Zn    0.16667   0.50001   0.44896   0.00000  Uiso   1.00
C807   C     0.50090   0.42006   0.49997   0.00000  Uiso   1.00
C808   C     0.46755   0.35551   0.52481   0.00000  Uiso   1.00
C809   C     0.49851   0.62401   0.49980   0.00000  Uiso   1.00
C810   C     0.50180   0.37588   0.49995   0.00000  Uiso   1.00
C811   C     0.52860   0.52892   0.36153   0.00000  Uiso   1.00
C812   C     0.47308   0.47015   0.63874   0.00000  Uiso   1.00
C813   C     0.52843   0.52926   0.64675   0.00000  Uiso   1.00
C814   C     0.47218   0.47039   0.35335   0.00000  Uiso   1.00
C815   C     0.65469   0.48839   0.43044   0.00000  Uiso   1.00
C816   C     0.34262   0.46468   0.56029   0.00000  Uiso   1.00
C817   C     0.59901   0.35466   0.41936   0.00000  Uiso   1.00
C818   C     0.49923   0.57990   0.50002   0.00000  Uiso   1.00
C819   C     0.38115   0.61060   0.51850   0.00000  Uiso   1.00
C820   C     0.54637   0.60192   0.63265   0.00000  Uiso   1.00
C821   C     0.38978   0.43405   0.35513   0.00000  Uiso   1.00
C822   C     0.40060   0.49605   0.48785   0.00000  Uiso   1.00
C823   C     0.59940   0.49615   0.51159   0.00000  Uiso   1.00
C824   C     0.34574   0.48798   0.47976   0.00000  Uiso   1.00
C825   C     0.65307   0.48401   0.51618   0.00000  Uiso   1.00
C826   C     0.53512   0.35421   0.47468   0.00000  Uiso   1.00
C827   C     0.46488   0.64583   0.52431   0.00000  Uiso   1.00
C828   C     0.53282   0.64424   0.47495   0.00000  Uiso   1.00
H829   H     0.55852   0.62581   0.45717   0.00000  Uiso   1.00
H830   H     0.57096   0.33711   0.39376   0.00000  Uiso   1.00
H831   H     0.41982   0.64073   0.57619   0.00000  Uiso   1.00
H832   H     0.35819   0.63788   0.50379   0.00000  Uiso   1.00
H833   H     0.35673   0.59199   0.53890   0.00000  Uiso   1.00
H834   H     0.39087   0.59041   0.49031   0.00000  Uiso   1.00
H835   H     0.59945   0.55336   0.63699   0.00000  Uiso   1.00
H836   H     0.55733   0.61220   0.33550   0.00000  Uiso   1.00
H837   H     0.50374   0.60645   0.62187   0.00000  Uiso   1.00
H838   H     0.56780   0.62168   0.61084   0.00000  Uiso   1.00
H839   H     0.46410   0.41047   0.37565   0.00000  Uiso   1.00
H840   H     0.44174   0.37314   0.54335   0.00000  Uiso   1.00
H841   H     0.37050   0.46508   0.35185   0.00000  Uiso   1.00
H842   H     0.37048   0.41455   0.37869   0.00000  Uiso   1.00
H843   H     0.38477   0.41820   0.65452   0.00000  Uiso   1.00
H844   H     0.55189   0.55157   0.38336   0.00000  Uiso   1.00
H845   H     0.45302   0.44571   0.61745   0.00000  Uiso   1.00
H846   H     0.66505   0.51282   0.40804   0.00000  Uiso   1.00
H847   H     0.66469   0.47545   0.59226   0.00000  Uiso   1.00
H848   H     0.59280   0.39953   0.47050   0.00000  Uiso   1.00
H849   H     0.62829   0.66647   0.43792   0.00000  Uiso   1.00
H850   H     0.61995   0.37764   0.40067   0.00000  Uiso   1.00
N851   N     0.49999   0.49999   0.61907   0.00000  Uiso   1.00
N852   N     0.50001   0.50001   0.38093   0.00000  Uiso   1.00
N853   N     0.57132   0.37648   0.45133   0.00000  Uiso   1.00
N854   N     0.42818   0.62478   0.54773   0.00000  Uiso   1.00
N855   N     0.55999   0.55851   0.62731   0.00000  Uiso   1.00
N856   N     0.44472   0.43865   0.37341   0.00000  Uiso   1.00
O857   O     0.50000   0.43892   0.53821   0.00000  Uiso   1.00
O858   O     0.37162   0.43466   0.56060   0.00000  Uiso   1.00
O859   O     0.50000   0.56108   0.46179   0.00000  Uiso   1.00
O860   O     0.50000   0.43893   0.46176   0.00000  Uiso   1.00
O861   O     0.50000   0.56107   0.53824   0.00000  Uiso   1.00
O862   O     0.42392   0.50000   0.52928   0.00000  Uiso   1.00
O863   O     0.57608   0.50000   0.47072   0.00000  Uiso   1.00
O864   O     0.42392   0.50000   0.45284   0.00000  Uiso   1.00
O865   O     0.57608   0.50000   0.54716   0.00000  Uiso   1.00
O866   O     0.62530   0.46022   0.41421   0.00000  Uiso   1.00
Zn867  Zn    0.50000   0.49999   0.55104   0.00000  Uiso   1.00
Zn868  Zn    0.50000   0.50001   0.44896   0.00000  Uiso   1.00
C869   C     0.83424   0.42006   0.49997   0.00000  Uiso   1.00
C870   C     0.80088   0.35551   0.52481   0.00000  Uiso   1.00
C871   C     0.83184   0.62401   0.49980   0.00000  Uiso   1.00
C872   C     0.83513   0.37588   0.49995   0.00000  Uiso   1.00
C873   C     0.86194   0.52892   0.36153   0.00000  Uiso   1.00
C874   C     0.80641   0.47015   0.63874   0.00000  Uiso   1.00
C875   C     0.86176   0.52926   0.64675   0.00000  Uiso   1.00
C876   C     0.80551   0.47039   0.35335   0.00000  Uiso   1.00
C877   C     0.98802   0.48839   0.43044   0.00000  Uiso   1.00
C878   C     0.67596   0.46468   0.56029   0.00000  Uiso   1.00
C879   C     0.93234   0.35466   0.41936   0.00000  Uiso   1.00
C880   C     0.83257   0.57990   0.50002   0.00000  Uiso   1.00
C881   C     0.71448   0.61060   0.51850   0.00000  Uiso   1.00
C882   C     0.87970   0.60192   0.63265   0.00000  Uiso   1.00
C883   C     0.72311   0.43405   0.35513   0.00000  Uiso   1.00
C884   C     0.73394   0.49605   0.48785   0.00000  Uiso   1.00
C885   C     0.93274   0.49615   0.51159   0.00000  Uiso   1.00
C886   C     0.67908   0.48798   0.47976   0.00000  Uiso   1.00
C887   C     0.98641   0.48401   0.51618   0.00000  Uiso   1.00
C888   C     0.86845   0.35421   0.47468   0.00000  Uiso   1.00
C889   C     0.79821   0.64583   0.52431   0.00000  Uiso   1.00
C890   C     0.86615   0.64424   0.47495   0.00000  Uiso   1.00
H891   H     0.89186   0.62581   0.45717   0.00000  Uiso   1.00
H892   H     0.90429   0.33711   0.39376   0.00000  Uiso   1.00
H893   H     0.75316   0.64073   0.57619   0.00000  Uiso   1.00
H894   H     0.69152   0.63788   0.50379   0.00000  Uiso   1.00
H895   H     0.69006   0.59199   0.53890   0.00000  Uiso   1.00
H896   H     0.72420   0.59041   0.49031   0.00000  Uiso   1.00
H897   H     0.93279   0.55336   0.63699   0.00000  Uiso   1.00
H898   H     0.89067   0.61220   0.33550   0.00000  Uiso   1.00
H899   H     0.83707   0.60645   0.62187   0.00000  Uiso   1.00
H900   H     0.90113   0.62168   0.61084   0.00000  Uiso   1.00
H901   H     0.79743   0.41047   0.37565   0.00000  Uiso   1.00
H902   H     0.77507   0.37314   0.54335   0.00000  Uiso   1.00
H903   H     0.70384   0.46508   0.35185   0.00000  Uiso   1.00
H904   H     0.70382   0.41455   0.37869   0.00000  Uiso   1.00
H905   H     0.71810   0.41820   0.65452   0.00000  Uiso   1.00
H906   H     0.88522   0.55157   0.38336   0.00000  Uiso   1.00
H907   H     0.78635   0.44571   0.61745   0.00000  Uiso   1.00
H908   H     0.99838   0.51282   0.40804   0.00000  Uiso   1.00
H909   H     0.99803   0.47545   0.59226   0.00000  Uiso   1.00
H910   H     0.92614   0.39953   0.47050   0.00000  Uiso   1.00
H911   H     0.96163   0.66647   0.43792   0.00000  Uiso   1.00
H912   H     0.95328   0.37764   0.40067   0.00000  Uiso   1.00
N913   N     0.83332   0.49999   0.61907   0.00000  Uiso   1.00
N914   N     0.83335   0.50001   0.38093   0.00000  Uiso   1.00
N915   N     0.90465   0.37648   0.45133   0.00000  Uiso   1.00
N916   N     0.76151   0.62478   0.54773   0.00000  Uiso   1.00
N917   N     0.89332   0.55851   0.62731   0.00000  Uiso   1.00
N918   N     0.77805   0.43865   0.37341   0.00000  Uiso   1.00
O919   O     0.83333   0.43892   0.53821   0.00000  Uiso   1.00
O920   O     0.70495   0.43466   0.56060   0.00000  Uiso   1.00
O921   O     0.83334   0.56108   0.46179   0.00000  Uiso   1.00
O922   O     0.83333   0.43893   0.46176   0.00000  Uiso   1.00
O923   O     0.83334   0.56107   0.53824   0.00000  Uiso   1.00
O924   O     0.75725   0.50000   0.52928   0.00000  Uiso   1.00
O925   O     0.90942   0.50000   0.47072   0.00000  Uiso   1.00
O926   O     0.75725   0.50000   0.45284   0.00000  Uiso   1.00
O927   O     0.90942   0.50000   0.54716   0.00000  Uiso   1.00
O928   O     0.95863   0.46022   0.41421   0.00000  Uiso   1.00
Zn929  Zn    0.83333   0.49999   0.55104   0.00000  Uiso   1.00
Zn930  Zn    0.83333   0.50001   0.44896   0.00000  Uiso   1.00
C931   C     0.16757   0.75339   0.49997   0.00000  Uiso   1.00
C932   C     0.13421   0.68885   0.52481   0.00000  Uiso   1.00
C933   C     0.16518   0.95734   0.49980   0.00000  Uiso   1.00
C934   C     0.16847   0.70921   0.49995   0.00000  Uiso   1.00
C935   C     0.19527   0.86226   0.36153   0.00000  Uiso   1.00
C936   C     0.13975   0.80348   0.63874   0.00000  Uiso   1.00
C937   C     0.19509   0.86260   0.64675   0.00000  Uiso   1.00
C938   C     0.13884   0.80372   0.35335   0.00000  Uiso   1.00
C939   C     0.32136   0.82172   0.43044   0.00000  Uiso   1.00
C940   C     0.00929   0.79801   0.56029   0.00000  Uiso   1.00
C941   C     0.26568   0.68800   0.41936   0.00000  Uiso   1.00
C942   C     0.16590   0.91323   0.50002   0.00000  Uiso   1.00
C943   C     0.04782   0.94393   0.51850   0.00000  Uiso   1.00
C944   C     0.21304   0.93525   0.63265   0.00000  Uiso   1.00
C945   C     0.05644   0.76738   0.35513   0.00000  Uiso   1.00
C946   C     0.06727   0.82938   0.48785   0.00000  Uiso   1.00
C947   C     0.26607   0.82948   0.51159   0.00000  Uiso   1.00
C948   C     0.01241   0.82132   0.47976   0.00000  Uiso   1.00
C949   C     0.31974   0.81734   0.51618   0.00000  Uiso   1.00
C950   C     0.20178   0.68754   0.47468   0.00000  Uiso   1.00
C951   C     0.13155   0.97916   0.52431   0.00000  Uiso   1.00
C952   C     0.19949   0.97758   0.47495   0.00000  Uiso   1.00
H953   H     0.22519   0.95915   0.45717   0.00000  Uiso   1.00
H954   H     0.23763   0.67044   0.39376   0.00000  Uiso   1.00
H955   H     0.08649   0.97406   0.57619   0.00000  Uiso   1.00
H956   H     0.02485   0.97121   0.50379   0.00000  Uiso   1.00
H957   H     0.02340   0.92532   0.53890   0.00000  Uiso   1.00
H958   H     0.05754   0.92374   0.49031   0.00000  Uiso   1.00
H959   H     0.26612   0.88669   0.63699   0.00000  Uiso   1.00
H960   H     0.22400   0.94553   0.33550   0.00000  Uiso   1.00
H961   H     0.17040   0.93978   0.62187   0.00000  Uiso   1.00
H962   H     0.23447   0.95501   0.61084   0.00000  Uiso   1.00
H963   H     0.13076   0.74380   0.37565   0.00000  Uiso   1.00
H964   H     0.10841   0.70648   0.54335   0.00000  Uiso   1.00
H965   H     0.03717   0.79841   0.35185   0.00000  Uiso   1.00
H966   H     0.03715   0.74788   0.37869   0.00000  Uiso   1.00
H967   H     0.05144   0.75153   0.65452   0.00000  Uiso   1.00
H968   H     0.21856   0.88491   0.38336   0.00000  Uiso   1.00
H969   H     0.11968   0.77905   0.61745   0.00000  Uiso   1.00
H970   H     0.33171   0.84615   0.40804   0.00000  Uiso   1.00
H971   H     0.33136   0.80878   0.59226   0.00000  Uiso   1.00
H972   H     0.25947   0.73287   0.47050   0.00000  Uiso   1.00
H973   H     0.29496   0.99980   0.43792   0.00000  Uiso   1.00
H974   H     0.28661   0.71097   0.40067   0.00000  Uiso   1.00
N975   N     0.16665   0.83332   0.61907   0.00000  Uiso   1.00
N976   N     0.16668   0.83334   0.38093   0.00000  Uiso   1.00
N977   N     0.23798   0.70982   0.45133   0.00000  Uiso   1.00
N978   N     0.09485   0.95811   0.54773   0.00000  Uiso   1.00
N979   N     0.22665   0.89185   0.62731   0.00000  Uiso   1.00
N980   N     0.11138   0.77199   0.37341   0.00000  Uiso   1.00
O981   O     0.16666   0.77225   0.53821   0.00000  Uiso   1.00
O982   O     0.03829   0.76800   0.56060   0.00000  Uiso   1.00
O983   O     0.16667   0.89442   0.46179   0.00000  Uiso   1.00
O984   O     0.16666   0.77226   0.46176   0.00000  Uiso   1.00
O985   O     0.16667   0.89441   0.53824   0.00000  Uiso   1.00
O986   O     0.09058   0.83333   0.52928   0.00000  Uiso   1.00
O987   O     0.24275   0.83334   0.47072   0.00000  Uiso   1.00
O988   O     0.09058   0.83334   0.45284   0.00000  Uiso   1.00
O989   O     0.24275   0.83333   0.54716   0.00000  Uiso   1.00
O990   O     0.29197   0.79355   0.41421   0.00000  Uiso   1.00
Zn991  Zn    0.16667   0.83333   0.55104   0.00000  Uiso   1.00
Zn992  Zn    0.16667   0.83334   0.44896   0.00000  Uiso   1.00
C993   C     0.50090   0.75339   0.49997   0.00000  Uiso   1.00
C994   C     0.46755   0.68885   0.52481   0.00000  Uiso   1.00
C995   C     0.49851   0.95734   0.49980   0.00000  Uiso   1.00
C996   C     0.50180   0.70921   0.49995   0.00000  Uiso   1.00
C997   C     0.52860   0.86226   0.36153   0.00000  Uiso   1.00
C998   C     0.47308   0.80348   0.63874   0.00000  Uiso   1.00
C999   C     0.52843   0.86260   0.64675   0.00000  Uiso   1.00
C1000  C     0.47218   0.80372   0.35335   0.00000  Uiso   1.00
C1001  C     0.65469   0.82172   0.43044   0.00000  Uiso   1.00
C1002  C     0.34262   0.79801   0.56029   0.00000  Uiso   1.00
C1003  C     0.59901   0.68800   0.41936   0.00000  Uiso   1.00
C1004  C     0.49923   0.91323   0.50002   0.00000  Uiso   1.00
C1005  C     0.38115   0.94393   0.51850   0.00000  Uiso   1.00
C1006  C     0.54637   0.93525   0.63265   0.00000  Uiso   1.00
C1007  C     0.38978   0.76738   0.35513   0.00000  Uiso   1.00
C1008  C     0.40060   0.82938   0.48785   0.00000  Uiso   1.00
C1009  C     0.59940   0.82948   0.51159   0.00000  Uiso   1.00
C1010  C     0.34574   0.82132   0.47976   0.00000  Uiso   1.00
C1011  C     0.65307   0.81734   0.51618   0.00000  Uiso   1.00
C1012  C     0.53512   0.68754   0.47468   0.00000  Uiso   1.00
C1013  C     0.46488   0.97916   0.52431   0.00000  Uiso   1.00
C1014  C     0.53282   0.97758   0.47495   0.00000  Uiso   1.00
H1015  H     0.55852   0.95915   0.45717   0.00000  Uiso   1.00
H1016  H     0.57096   0.67044   0.39376   0.00000  Uiso   1.00
H1017  H     0.41982   0.97406   0.57619   0.00000  Uiso   1.00
H1018  H     0.35819   0.97121   0.50379   0.00000  Uiso   1.00
H1019  H     0.35673   0.92532   0.53890   0.00000  Uiso   1.00
H1020  H     0.39087   0.92374   0.49031   0.00000  Uiso   1.00
H1021  H     0.59945   0.88669   0.63699   0.00000  Uiso   1.00
H1022  H     0.55733   0.94553   0.33550   0.00000  Uiso   1.00
H1023  H     0.50374   0.93978   0.62187   0.00000  Uiso   1.00
H1024  H     0.56780   0.95501   0.61084   0.00000  Uiso   1.00
H1025  H     0.46410   0.74380   0.37565   0.00000  Uiso   1.00
H1026  H     0.44174   0.70648   0.54335   0.00000  Uiso   1.00
H1027  H     0.37050   0.79841   0.35185   0.00000  Uiso   1.00
H1028  H     0.37048   0.74788   0.37869   0.00000  Uiso   1.00
H1029  H     0.38477   0.75153   0.65452   0.00000  Uiso   1.00
H1030  H     0.55189   0.88491   0.38336   0.00000  Uiso   1.00
H1031  H     0.45302   0.77905   0.61745   0.00000  Uiso   1.00
H1032  H     0.66505   0.84615   0.40804   0.00000  Uiso   1.00
H1033  H     0.66469   0.80878   0.59226   0.00000  Uiso   1.00
H1034  H     0.59280   0.73287   0.47050   0.00000  Uiso   1.00
H1035  H     0.62829   0.99980   0.43792   0.00000  Uiso   1.00
H1036  H     0.61995   0.71097   0.40067   0.00000  Uiso   1.00
N1037  N     0.49999   0.83332   0.61907   0.00000  Uiso   1.00
N1038  N     0.50001   0.83334   0.38093   0.00000  Uiso   1.00
N1039  N     0.57132   0.70982   0.45133   0.00000  Uiso   1.00
N1040  N     0.42818   0.95811   0.54773   0.00000  Uiso   1.00
N1041  N     0.55999   0.89185   0.62731   0.00000  Uiso   1.00
N1042  N     0.44472   0.77199   0.37341   0.00000  Uiso   1.00
O1043  O     0.50000   0.77225   0.53821   0.00000  Uiso   1.00
O1044  O     0.37162   0.76800   0.56060   0.00000  Uiso   1.00
O1045  O     0.50000   0.89442   0.46179   0.00000  Uiso   1.00
O1046  O     0.50000   0.77226   0.46176   0.00000  Uiso   1.00
O1047  O     0.50000   0.89441   0.53824   0.00000  Uiso   1.00
O1048  O     0.42392   0.83333   0.52928   0.00000  Uiso   1.00
O1049  O     0.57608   0.83334   0.47072   0.00000  Uiso   1.00
O1050  O     0.42392   0.83334   0.45284   0.00000  Uiso   1.00
O1051  O     0.57608   0.83333   0.54716   0.00000  Uiso   1.00
O1052  O     0.62530   0.79355   0.41421   0.00000  Uiso   1.00
Zn1053 Zn    0.50000   0.83333   0.55104   0.00000  Uiso   1.00
Zn1054 Zn    0.50000   0.83334   0.44896   0.00000  Uiso   1.00
C1055  C     0.83424   0.75339   0.49997   0.00000  Uiso   1.00
C1056  C     0.80088   0.68885   0.52481   0.00000  Uiso   1.00
C1057  C     0.83184   0.95734   0.49980   0.00000  Uiso   1.00
C1058  C     0.83513   0.70921   0.49995   0.00000  Uiso   1.00
C1059  C     0.86194   0.86226   0.36153   0.00000  Uiso   1.00
C1060  C     0.80641   0.80348   0.63874   0.00000  Uiso   1.00
C1061  C     0.86176   0.86260   0.64675   0.00000  Uiso   1.00
C1062  C     0.80551   0.80372   0.35335   0.00000  Uiso   1.00
C1063  C     0.98802   0.82172   0.43044   0.00000  Uiso   1.00
C1064  C     0.67596   0.79801   0.56029   0.00000  Uiso   1.00
C1065  C     0.93234   0.68800   0.41936   0.00000  Uiso   1.00
C1066  C     0.83257   0.91323   0.50002   0.00000  Uiso   1.00
C1067  C     0.71448   0.94393   0.51850   0.00000  Uiso   1.00
C1068  C     0.87970   0.93525   0.63265   0.00000  Uiso   1.00
C1069  C     0.72311   0.76738   0.35513   0.00000  Uiso   1.00
C1070  C     0.73394   0.82938   0.48785   0.00000  Uiso   1.00
C1071  C     0.93274   0.82948   0.51159   0.00000  Uiso   1.00
C1072  C     0.67908   0.82132   0.47976   0.00000  Uiso   1.00
C1073  C     0.98641   0.81734   0.51618   0.00000  Uiso   1.00
C1074  C     0.86845   0.68754   0.47468   0.00000  Uiso   1.00
C1075  C     0.79821   0.97916   0.52431   0.00000  Uiso   1.00
C1076  C     0.86615   0.97758   0.47495   0.00000  Uiso   1.00
H1077  H     0.89186   0.95915   0.45717   0.00000  Uiso   1.00
H1078  H     0.90429   0.67044   0.39376   0.00000  Uiso   1.00
H1079  H     0.75316   0.97406   0.57619   0.00000  Uiso   1.00
H1080  H     0.69152   0.97121   0.50379   0.00000  Uiso   1.00
H1081  H     0.69006   0.92532   0.53890   0.00000  Uiso   1.00
H1082  H     0.72420   0.92374   0.49031   0.00000  Uiso   1.00
H1083  H     0.93279   0.88669   0.63699   0.00000  Uiso   1.00
H1084  H     0.89067   0.94553   0.33550   0.00000  Uiso   1.00
H1085  H     0.83707   0.93978   0.62187   0.00000  Uiso   1.00
H1086  H     0.90113   0.95501   0.61084   0.00000  Uiso   1.00
H1087  H     0.79743   0.74380   0.37565   0.00000  Uiso   1.00
H1088  H     0.77507   0.70648   0.54335   0.00000  Uiso   1.00
H1089  H     0.70384   0.79841   0.35185   0.00000  Uiso   1.00
H1090  H     0.70382   0.74788   0.37869   0.00000  Uiso   1.00
H1091  H     0.71810   0.75153   0.65452   0.00000  Uiso   1.00
H1092  H     0.88522   0.88491   0.38336   0.00000  Uiso   1.00
H1093  H     0.78635   0.77905   0.61745   0.00000  Uiso   1.00
H1094  H     0.99838   0.84615   0.40804   0.00000  Uiso   1.00
H1095  H     0.99803   0.80878   0.59226   0.00000  Uiso   1.00
H1096  H     0.92614   0.73287   0.47050   0.00000  Uiso   1.00
H1097  H     0.96163   0.99980   0.43792   0.00000  Uiso   1.00
H1098  H     0.95328   0.71097   0.40067   0.00000  Uiso   1.00
N1099  N     0.83332   0.83332   0.61907   0.00000  Uiso   1.00
N1100  N     0.83335   0.83334   0.38093   0.00000  Uiso   1.00
N1101  N     0.90465   0.70982   0.45133   0.00000  Uiso   1.00
N1102  N     0.76151   0.95811   0.54773   0.00000  Uiso   1.00
N1103  N     0.89332   0.89185   0.62731   0.00000  Uiso   1.00
N1104  N     0.77805   0.77199   0.37341   0.00000  Uiso   1.00
O1105  O     0.83333   0.77225   0.53821   0.00000  Uiso   1.00
O1106  O     0.70495   0.76800   0.56060   0.00000  Uiso   1.00
O1107  O     0.83334   0.89442   0.46179   0.00000  Uiso   1.00
O1108  O     0.83333   0.77226   0.46176   0.00000  Uiso   1.00
O1109  O     0.83334   0.89441   0.53824   0.00000  Uiso   1.00
O1110  O     0.75725   0.83333   0.52928   0.00000  Uiso   1.00
O1111  O     0.90942   0.83334   0.47072   0.00000  Uiso   1.00
O1112  O     0.75725   0.83334   0.45284   0.00000  Uiso   1.00
O1113  O     0.90942   0.83333   0.54716   0.00000  Uiso   1.00
O1114  O     0.95863   0.79355   0.41421   0.00000  Uiso   1.00
Zn1115 Zn    0.83333   0.83333   0.55104   0.00000  Uiso   1.00
Zn1116 Zn    0.83333   0.83334   0.44896   0.00000  Uiso   1.00
C1117  C     0.16757   0.08672   0.83331   0.00000  Uiso   1.00
C1118  C     0.13421   0.02218   0.85814   0.00000  Uiso   1.00
C1119  C     0.16518   0.29068   0.83313   0.00000  Uiso   1.00
C1120  C     0.16847   0.04254   0.83328   0.00000  Uiso   1.00
C1121  C     0.19527   0.19559   0.69487   0.00000  Uiso   1.00
C1122  C     0.13975   0.13681   0.97208   0.00000  Uiso   1.00
C1123  C     0.19509   0.19593   0.98008   0.00000  Uiso   1.00
C1124  C     0.13884   0.13706   0.68668   0.00000  Uiso   1.00
C1125  C     0.32136   0.15506   0.76377   0.00000  Uiso   1.00
C1126  C     0.00929   0.13135   0.89362   0.00000  Uiso   1.00
C1127  C     0.26568   0.02133   0.75270   0.00000  Uiso   1.00
C1128  C     0.16590   0.24657   0.83335   0.00000  Uiso   1.00
C1129  C     0.04782   0.27727   0.85184   0.00000  Uiso   1.00
C1130  C     0.21304   0.26858   0.96599   0.00000  Uiso   1.00
C1131  C     0.05644   0.10072   0.68847   0.00000  Uiso   1.00
C1132  C     0.06727   0.16271   0.82118   0.00000  Uiso   1.00
C1133  C     0.26607   0.16281   0.84492   0.00000  Uiso   1.00
C1134  C     0.01241   0.15465   0.81310   0.00000  Uiso   1.00
C1135  C     0.31974   0.15068   0.84952   0.00000  Uiso   1.00
C1136  C     0.20178   0.02088   0.80802   0.00000  Uiso   1.00
C1137  C     0.13155   0.31250   0.85764   0.00000  Uiso   1.00
C1138  C     0.19949   0.31091   0.80828   0.00000  Uiso   1.00
H1139  H     0.22519   0.29248   0.79050   0.00000  Uiso   1.00
H1140  H     0.23763   0.00378   0.72710   0.00000  Uiso   1.00
H1141  H     0.08649   0.30739   0.90952   0.00000  Uiso   1.00
H1142  H     0.02485   0.30454   0.83713   0.00000  Uiso   1.00
H1143  H     0.02340   0.25866   0.87223   0.00000  Uiso   1.00
H1144  H     0.05754   0.25708   0.82364   0.00000  Uiso   1.00
H1145  H     0.26612   0.22003   0.97033   0.00000  Uiso   1.00
H1146  H     0.22400   0.27886   0.66884   0.00000  Uiso   1.00
H1147  H     0.17040   0.27312   0.95520   0.00000  Uiso   1.00
H1148  H     0.23447   0.28834   0.94417   0.00000  Uiso   1.00
H1149  H     0.13076   0.07713   0.70899   0.00000  Uiso   1.00
H1150  H     0.10841   0.03981   0.87668   0.00000  Uiso   1.00
H1151  H     0.03717   0.13175   0.68519   0.00000  Uiso   1.00
H1152  H     0.03715   0.08122   0.71202   0.00000  Uiso   1.00
H1153  H     0.05144   0.08487   0.98785   0.00000  Uiso   1.00
H1154  H     0.21856   0.21824   0.71669   0.00000  Uiso   1.00
H1155  H     0.11968   0.11238   0.95078   0.00000  Uiso   1.00
H1156  H     0.33171   0.17948   0.74137   0.00000  Uiso   1.00
H1157  H     0.33136   0.14212   0.92560   0.00000  Uiso   1.00
H1158  H     0.25947   0.06620   0.80383   0.00000  Uiso   1.00
H1159  H     0.29496   0.33313   0.77125   0.00000  Uiso   1.00
H1160  H     0.28661   0.04430   0.73400   0.00000  Uiso   1.00
N1161  N     0.16665   0.16666   0.95240   0.00000  Uiso   1.00
N1162  N     0.16668   0.16668   0.71427   0.00000  Uiso   1.00
N1163  N     0.23798   0.04315   0.78466   0.00000  Uiso   1.00
N1164  N     0.09485   0.29145   0.88107   0.00000  Uiso   1.00
N1165  N     0.22665   0.22518   0.96064   0.00000  Uiso   1.00
N1166  N     0.11138   0.10532   0.70674   0.00000  Uiso   1.00
O1167  O     0.16666   0.10558   0.87154   0.00000  Uiso   1.00
O1168  O     0.03829   0.10133   0.89393   0.00000  Uiso   1.00
O1169  O     0.16667   0.22775   0.79513   0.00000  Uiso   1.00
O1170  O     0.16666   0.10559   0.79510   0.00000  Uiso   1.00
O1171  O     0.16667   0.22774   0.87157   0.00000  Uiso   1.00
O1172  O     0.09058   0.16666   0.86261   0.00000  Uiso   1.00
O1173  O     0.24275   0.16667   0.80405   0.00000  Uiso   1.00
O1174  O     0.09058   0.16667   0.78617   0.00000  Uiso   1.00
O1175  O     0.24275   0.16666   0.88050   0.00000  Uiso   1.00
O1176  O     0.29197   0.12688   0.74754   0.00000  Uiso   1.00
Zn1177 Zn    0.16667   0.16666   0.88437   0.00000  Uiso   1.00
Zn1178 Zn    0.16667   0.16667   0.78229   0.00000  Uiso   1.00
C1179  C     0.50090   0.08672   0.83331   0.00000  Uiso   1.00
C1180  C     0.46755   0.02218   0.85814   0.00000  Uiso   1.00
C1181  C     0.49851   0.29068   0.83313   0.00000  Uiso   1.00
C1182  C     0.50180   0.04254   0.83328   0.00000  Uiso   1.00
C1183  C     0.52860   0.19559   0.69487   0.00000  Uiso   1.00
C1184  C     0.47308   0.13681   0.97208   0.00000  Uiso   1.00
C1185  C     0.52843   0.19593   0.98008   0.00000  Uiso   1.00
C1186  C     0.47218   0.13706   0.68668   0.00000  Uiso   1.00
C1187  C     0.65469   0.15506   0.76377   0.00000  Uiso   1.00
C1188  C     0.34262   0.13135   0.89362   0.00000  Uiso   1.00
C1189  C     0.59901   0.02133   0.75270   0.00000  Uiso   1.00
C1190  C     0.49923   0.24657   0.83335   0.00000  Uiso   1.00
C1191  C     0.38115   0.27727   0.85184   0.00000  Uiso   1.00
C1192  C     0.54637   0.26858   0.96599   0.00000  Uiso   1.00
C1193  C     0.38978   0.10072   0.68847   0.00000  Uiso   1.00
C1194  C     0.40060   0.16271   0.82118   0.00000  Uiso   1.00
C1195  C     0.59940   0.16281   0.84492   0.00000  Uiso   1.00
C1196  C     0.34574   0.15465   0.81310   0.00000  Uiso   1.00
C1197  C     0.65307   0.15068   0.84952   0.00000  Uiso   1.00
C1198  C     0.53512   0.02088   0.80802   0.00000  Uiso   1.00
C1199  C     0.46488   0.31250   0.85764   0.00000  Uiso   1.00
C1200  C     0.53282   0.31091   0.80828   0.00000  Uiso   1.00
H1201  H     0.55852   0.29248   0.79050   0.00000  Uiso   1.00
H1202  H     0.57096   0.00378   0.72710   0.00000  Uiso   1.00
H1203  H     0.41982   0.30739   0.90952   0.00000  Uiso   1.00
H1204  H     0.35819   0.30454   0.83713   0.00000  Uiso   1.00
H1205  H     0.35673   0.25866   0.87223   0.00000  Uiso   1.00
H1206  H     0.39087   0.25708   0.82364   0.00000  Uiso   1.00
H1207  H     0.59945   0.22003   0.97033   0.00000  Uiso   1.00
H1208  H     0.55733   0.27886   0.66884   0.00000  Uiso   1.00
H1209  H     0.50374   0.27312   0.95520   0.00000  Uiso   1.00
H1210  H     0.56780   0.28834   0.94417   0.00000  Uiso   1.00
H1211  H     0.46410   0.07713   0.70899   0.00000  Uiso   1.00
H1212  H     0.44174   0.03981   0.87668   0.00000  Uiso   1.00
H1213  H     0.37050   0.13175   0.68519   0.00000  Uiso   1.00
H1214  H     0.37048   0.08122   0.71202   0.00000  Uiso   1.00
H1215  H     0.38477   0.08487   0.98785   0.00000  Uiso   1.00
H1216  H     0.55189   0.21824   0.71669   0.00000  Uiso   1.00
H1217  H     0.45302   0.11238   0.95078   0.00000  Uiso   1.00
H1218  H     0.66505   0.17948   0.74137   0.00000  Uiso   1.00
H1219  H     0.66469   0.14212   0.92560   0.00000  Uiso   1.00
H1220  H     0.59280   0.06620   0.80383   0.00000  Uiso   1.00
H1221  H     0.62829   0.33313   0.77125   0.00000  Uiso   1.00
H1222  H     0.61995   0.04430   0.73400   0.00000  Uiso   1.00
N1223  N     0.49999   0.16666   0.95240   0.00000  Uiso   1.00
N1224  N     0.50001   0.16668   0.71427   0.00000  Uiso   1.00
N1225  N     0.57132   0.04315   0.78466   0.00000  Uiso   1.00
N1226  N     0.42818   0.29145   0.88107   0.00000  Uiso   1.00
N1227  N     0.55999   0.22518   0.96064   0.00000  Uiso   1.00
N1228  N     0.44472   0.10532   0.70674   0.00000  Uiso   1.00
O1229  O     0.50000   0.10558   0.87154   0.00000  Uiso   1.00
O1230  O     0.37162   0.10133   0.89393   0.00000  Uiso   1.00
O1231  O     0.50000   0.22775   0.79513   0.00000  Uiso   1.00
O1232  O     0.50000   0.10559   0.79510   0.00000  Uiso   1.00
O1233  O     0.50000   0.22774   0.87157   0.00000  Uiso   1.00
O1234  O     0.42392   0.16666   0.86261   0.00000  Uiso   1.00
O1235  O     0.57608   0.16667   0.80405   0.00000  Uiso   1.00
O1236  O     0.42392   0.16667   0.78617   0.00000  Uiso   1.00
O1237  O     0.57608   0.16666   0.88050   0.00000  Uiso   1.00
O1238  O     0.62530   0.12688   0.74754   0.00000  Uiso   1.00
Zn1239 Zn    0.50000   0.16666   0.88437   0.00000  Uiso   1.00
Zn1240 Zn    0.50000   0.16667   0.78229   0.00000  Uiso   1.00
C1241  C     0.83424   0.08672   0.83331   0.00000  Uiso   1.00
C1242  C     0.80088   0.02218   0.85814   0.00000  Uiso   1.00
C1243  C     0.83184   0.29068   0.83313   0.00000  Uiso   1.00
C1244  C     0.83513   0.04254   0.83328   0.00000  Uiso   1.00
C1245  C     0.86194   0.19559   0.69487   0.00000  Uiso   1.00
C1246  C     0.80641   0.13681   0.97208   0.00000  Uiso   1.00
C1247  C     0.86176   0.19593   0.98008   0.00000  Uiso   1.00
C1248  C     0.80551   0.13706   0.68668   0.00000  Uiso   1.00
C1249  C     0.98802   0.15506   0.76377   0.00000  Uiso   1.00
C1250  C     0.67596   0.13135   0.89362   0.00000  Uiso   1.00
C1251  C     0.93234   0.02133   0.75270   0.00000  Uiso   1.00
C1252  C     0.83257   0.24657   0.83335   0.00000  Uiso   1.00
C1253  C     0.71448   0.27727   0.85184   0.00000  Uiso   1.00
C1254  C     0.87970   0.26858   0.96599   0.00000  Uiso   1.00
C1255  C     0.72311   0.10072   0.68847   0.00000  Uiso   1.00
C1256  C     0.73394   0.16271   0.82118   0.00000  Uiso   1.00
C1257  C     0.93274   0.16281   0.84492   0.00000  Uiso   1.00
C1258  C     0.67908   0.15465   0.81310   0.00000  Uiso   1.00
C1259  C     0.98641   0.15068   0.84952   0.00000  Uiso   1.00
C1260  C     0.86845   0.02088   0.80802   0.00000  Uiso   1.00
C1261  C     0.79821   0.31250   0.85764   0.00000  Uiso   1.00
C1262  C     0.86615   0.31091   0.80828   0.00000  Uiso   1.00
H1263  H     0.89186   0.29248   0.79050   0.00000  Uiso   1.00
H1264  H     0.90429   0.00378   0.72710   0.00000  Uiso   1.00
H1265  H     0.75316   0.30739   0.90952   0.00000  Uiso   1.00
H1266  H     0.69152   0.30454   0.83713   0.00000  Uiso   1.00
H1267  H     0.69006   0.25866   0.87223   0.00000  Uiso   1.00
H1268  H     0.72420   0.25708   0.82364   0.00000  Uiso   1.00
H1269  H     0.93279   0.22003   0.97033   0.00000  Uiso   1.00
H1270  H     0.89067   0.27886   0.66884   0.00000  Uiso   1.00
H1271  H     0.83707   0.27312   0.95520   0.00000  Uiso   1.00
H1272  H     0.90113   0.28834   0.94417   0.00000  Uiso   1.00
H1273  H     0.79743   0.07713   0.70899   0.00000  Uiso   1.00
H1274  H     0.77507   0.03981   0.87668   0.00000  Uiso   1.00
H1275  H     0.70384   0.13175   0.68519   0.00000  Uiso   1.00
H1276  H     0.70382   0.08122   0.71202   0.00000  Uiso   1.00
H1277  H     0.71810   0.08487   0.98785   0.00000  Uiso   1.00
H1278  H     0.88522   0.21824   0.71669   0.00000  Uiso   1.00
H1279  H     0.78635   0.11238   0.95078   0.00000  Uiso   1.00
H1280  H     0.99838   0.17948   0.74137   0.00000  Uiso   1.00
H1281  H     0.99803   0.14212   0.92560   0.00000  Uiso   1.00
H1282  H     0.92614   0.06620   0.80383   0.00000  Uiso   1.00
H1283  H     0.96163   0.33313   0.77125   0.00000  Uiso   1.00
H1284  H     0.95328   0.04430   0.73400   0.00000  Uiso   1.00
N1285  N     0.83332   0.16666   0.95240   0.00000  Uiso   1.00
N1286  N     0.83335   0.16668   0.71427   0.00000  Uiso   1.00
N1287  N     0.90465   0.04315   0.78466   0.00000  Uiso   1.00
N1288  N     0.76151   0.29145   0.88107   0.00000  Uiso   1.00
N1289  N     0.89332   0.22518   0.96064   0.00000  Uiso   1.00
N1290  N     0.77805   0.10532   0.70674   0.00000  Uiso   1.00
O1291  O     0.83333   0.10558   0.87154   0.00000  Uiso   1.00
O1292  O     0.70495   0.10133   0.89393   0.00000  Uiso   1.00
O1293  O     0.83334   0.22775   0.79513   0.00000  Uiso   1.00
O1294  O     0.83333   0.10559   0.79510   0.00000  Uiso   1.00
O1295  O     0.83334   0.22774   0.87157   0.00000  Uiso   1.00
O1296  O     0.75725   0.16666   0.86261   0.00000  Uiso   1.00
O1297  O     0.90942   0.16667   0.80405   0.00000  Uiso   1.00
O1298  O     0.75725   0.16667   0.78617   0.00000  Uiso   1.00
O1299  O     0.90942   0.16666   0.88050   0.00000  Uiso   1.00
O1300  O     0.95863   0.12688   0.74754   0.00000  Uiso   1.00
Zn1301 Zn    0.83333   0.16666   0.88437   0.00000  Uiso   1.00
Zn1302 Zn    0.83333   0.16667   0.78229   0.00000  Uiso   1.00
C1303  C     0.16757   0.42006   0.83331   0.00000  Uiso   1.00
C1304  C     0.13421   0.35551   0.85814   0.00000  Uiso   1.00
C1305  C     0.16518   0.62401   0.83313   0.00000  Uiso   1.00
C1306  C     0.16847   0.37588   0.83328   0.00000  Uiso   1.00
C1307  C     0.19527   0.52892   0.69487   0.00000  Uiso   1.00
C1308  C     0.13975   0.47015   0.97208   0.00000  Uiso   1.00
C1309  C     0.19509   0.52926   0.98008   0.00000  Uiso   1.00
C1310  C     0.13884   0.47039   0.68668   0.00000  Uiso   1.00
C1311  C     0.32136   0.48839   0.76377   0.00000  Uiso   1.00
C1312  C     0.00929   0.46468   0.89362   0.00000  Uiso   1.00
C1313  C     0.26568   0.35466   0.75270   0.00000  Uiso   1.00
C1314  C     0.16590   0.57990   0.83335   0.00000  Uiso   1.00
C1315  C     0.04782   0.61060   0.85184   0.00000  Uiso   1.00
C1316  C     0.21304   0.60192   0.96599   0.00000  Uiso   1.00
C1317  C     0.05644   0.43405   0.68847   0.00000  Uiso   1.00
C1318  C     0.06727   0.49605   0.82118   0.00000  Uiso   1.00
C1319  C     0.26607   0.49615   0.84492   0.00000  Uiso   1.00
C1320  C     0.01241   0.48798   0.81310   0.00000  Uiso   1.00
C1321  C     0.31974   0.48401   0.84952   0.00000  Uiso   1.00
C1322  C     0.20178   0.35421   0.80802   0.00000  Uiso   1.00
C1323  C     0.13155   0.64583   0.85764   0.00000  Uiso   1.00
C1324  C     0.19949   0.64424   0.80828   0.00000  Uiso   1.00
H1325  H     0.22519   0.62581   0.79050   0.00000  Uiso   1.00
H1326  H     0.23763   0.33711   0.72710   0.00000  Uiso   1.00
H1327  H     0.08649   0.64073   0.90952   0.00000  Uiso   1.00
H1328  H     0.02485   0.63788   0.83713   0.00000  Uiso   1.00
H1329  H     0.02340   0.59199   0.87223   0.00000  Uiso   1.00
H1330  H     0.05754   0.59041   0.82364   0.00000  Uiso   1.00
H1331  H     0.26612   0.55336   0.97033   0.00000  Uiso   1.00
H1332  H     0.22400   0.61220   0.66884   0.00000  Uiso   1.00
H1333  H     0.17040   0.60645   0.95520   0.00000  Uiso   1.00
H1334  H     0.23447   0.62168   0.94417   0.00000  Uiso   1.00
H1335  H     0.13076   0.41047   0.70899   0.00000  Uiso   1.00
H1336  H     0.10841   0.37314   0.87668   0.00000  Uiso   1.00
H1337  H     0.03717   0.46508   0.68519   0.00000  Uiso   1.00
H1338  H     0.03715   0.41455   0.71202   0.00000  Uiso   1.00
H1339  H     0.05144   0.41820   0.98785   0.00000  Uiso   1.00
H1340  H     0.21856   0.55157   0.71669   0.00000  Uiso   1.00
H1341  H     0.11968   0.44571   0.95078   0.00000  Uiso   1.00
H1342  H     0.33171   0.51282   0.74137   0.00000  Uiso   1.00
H1343  H     0.33136   0.47545   0.92560   0.00000  Uiso   1.00
H1344  H     0.25947   0.39953   0.80383   0.00000  Uiso   1.00
H1345  H     0.29496   0.66647   0.77125   0.00000  Uiso   1.00
H1346  H     0.28661   0.37764   0.73400   0.00000  Uiso   1.00
N1347  N     0.16665   0.49999   0.95240   0.00000  Uiso   1.00
N1348  N     0.16668   0.50001   0.71427   0.00000  Uiso   1.00
N1349  N     0.23798   0.37648   0.78466   0.00000  Uiso   1.00
N1350  N     0.09485   0.62478   0.88107   0.00000  Uiso   1.00
N1351  N     0.22665   0.55851   0.96064   0.00000  Uiso   1.00
N1352  N     0.11138   0.43865   0.70674   0.00000  Uiso   1.00
O1353  O     0.16666   0.43892   0.87154   0.00000  Uiso   1.00
O1354  O     0.03829   0.43466   0.89393   0.00000  Uiso   1.00
O1355  O     0.16667   0.56108   0.79513   0.00000  Uiso   1.00
O1356  O     0.16666   0.43893   0.79510   0.00000  Uiso   1.00
O1357  O     0.16667   0.56107   0.87157   0.00000  Uiso   1.00
O1358  O     0.09058   0.50000   0.86261   0.00000  Uiso   1.00
O1359  O     0.24275   0.50000   0.80405   0.00000  Uiso   1.00
O1360  O     0.09058   0.50000   0.78617   0.00000  Uiso   1.00
O1361  O     0.24275   0.50000   0.88050   0.00000  Uiso   1.00
O1362  O     0.29197   0.46022   0.74754   0.00000  Uiso   1.00
Zn1363 Zn    0.16667   0.49999   0.88437   0.00000  Uiso   1.00
Zn1364 Zn    0.16667   0.50001   0.78229   0.00000  Uiso   1.00
C1365  C     0.50090   0.42006   0.83331   0.00000  Uiso   1.00
C1366  C     0.46755   0.35551   0.85814   0.00000  Uiso   1.00
C1367  C     0.49851   0.62401   0.83313   0.00000  Uiso   1.00
C1368  C     0.50180   0.37588   0.83328   0.00000  Uiso   1.00
C1369  C     0.52860   0.52892   0.69487   0.00000  Uiso   1.00
C1370  C     0.47308   0.47015   0.97208   0.00000  Uiso   1.00
C1371  C     0.52843   0.52926   0.98008   0.00000  Uiso   1.00
C1372  C     0.47218   0.47039   0.68668   0.00000  Uiso   1.00
C1373  C     0.65469   0.48839   0.76377   0.00000  Uiso   1.00
C1374  C     0.34262   0.46468   0.89362   0.00000  Uiso   1.00
C1375  C     0.59901   0.35466   0.75270   0.00000  Uiso   1.00
C1376  C     0.49923   0.57990   0.83335   0.00000  Uiso   1.00
C1377  C     0.38115   0.61060   0.85184   0.00000  Uiso   1.00
C1378  C     0.54637   0.60192   0.96599   0.00000  Uiso   1.00
C1379  C     0.38978   0.43405   0.68847   0.00000  Uiso   1.00
C1380  C     0.40060   0.49605   0.82118   0.00000  Uiso   1.00
C1381  C     0.59940   0.49615   0.84492   0.00000  Uiso   1.00
C1382  C     0.34574   0.48798   0.81310   0.00000  Uiso   1.00
C1383  C     0.65307   0.48401   0.84952   0.00000  Uiso   1.00
C1384  C     0.53512   0.35421   0.80802   0.00000  Uiso   1.00
C1385  C     0.46488   0.64583   0.85764   0.00000  Uiso   1.00
C1386  C     0.53282   0.64424   0.80828   0.00000  Uiso   1.00
H1387  H     0.55852   0.62581   0.79050   0.00000  Uiso   1.00
H1388  H     0.57096   0.33711   0.72710   0.00000  Uiso   1.00
H1389  H     0.41982   0.64073   0.90952   0.00000  Uiso   1.00
H1390  H     0.35819   0.63788   0.83713   0.00000  Uiso   1.00
H1391  H     0.35673   0.59199   0.87223   0.00000  Uiso   1.00
H1392  H     0.39087   0.59041   0.82364   0.00000  Uiso   1.00
H1393  H     0.59945   0.55336   0.97033   0.00000  Uiso   1.00
H1394  H     0.55733   0.61220   0.66884   0.00000  Uiso   1.00
H1395  H     0.50374   0.60645   0.95520   0.00000  Uiso   1.00
H1396  H     0.56780   0.62168   0.94417   0.00000  Uiso   1.00
H1397  H     0.46410   0.41047   0.70899   0.00000  Uiso   1.00
H1398  H     0.44174   0.37314   0.87668   0.00000  Uiso   1.00
H1399  H     0.37050   0.46508   0.68519   0.00000  Uiso   1.00
H1400  H     0.37048   0.41455   0.71202   0.00000  Uiso   1.00
H1401  H     0.38477   0.41820   0.98785   0.00000  Uiso   1.00
H1402  H     0.55189   0.55157   0.71669   0.00000  Uiso   1.00
H1403  H     0.45302   0.44571   0.95078   0.00000  Uiso   1.00
H1404  H     0.66505   0.51282   0.74137   0.00000  Uiso   1.00
H1405  H     0.66469   0.47545   0.92560   0.00000  Uiso   1.00
H1406  H     0.59280   0.39953   0.80383   0.00000  Uiso   1.00
H1407  H     0.62829   0.66647   0.77125   0.00000  Uiso   1.00
H1408  H     0.61995   0.37764   0.73400   0.00000  Uiso   1.00
N1409  N     0.49999   0.49999   0.95240   0.00000  Uiso   1.00
N1410  N     0.50001   0.50001   0.71427   0.00000  Uiso   1.00
N1411  N     0.57132   0.37648   0.78466   0.00000  Uiso   1.00
N1412  N     0.42818   0.62478   0.88107   0.00000  Uiso   1.00
N1413  N     0.55999   0.55851   0.96064   0.00000  Uiso   1.00
N1414  N     0.44472   0.43865   0.70674   0.00000  Uiso   1.00
O1415  O     0.50000   0.43892   0.87154   0.00000  Uiso   1.00
O1416  O     0.37162   0.43466   0.89393   0.00000  Uiso   1.00
O1417  O     0.50000   0.56108   0.79513   0.00000  Uiso   1.00
O1418  O     0.50000   0.43893   0.79510   0.00000  Uiso   1.00
O1419  O     0.50000   0.56107   0.87157   0.00000  Uiso   1.00
O1420  O     0.42392   0.50000   0.86261   0.00000  Uiso   1.00
O1421  O     0.57608   0.50000   0.80405   0.00000  Uiso   1.00
O1422  O     0.42392   0.50000   0.78617   0.00000  Uiso   1.00
O1423  O     0.57608   0.50000   0.88050   0.00000  Uiso   1.00
O1424  O     0.62530   0.46022   0.74754   0.00000  Uiso   1.00
Zn1425 Zn    0.50000   0.49999   0.88437   0.00000  Uiso   1.00
Zn1426 Zn    0.50000   0.50001   0.78229   0.00000  Uiso   1.00
C1427  C     0.83424   0.42006   0.83331   0.00000  Uiso   1.00
C1428  C     0.80088   0.35551   0.85814   0.00000  Uiso   1.00
C1429  C     0.83184   0.62401   0.83313   0.00000  Uiso   1.00
C1430  C     0.83513   0.37588   0.83328   0.00000  Uiso   1.00
C1431  C     0.86194   0.52892   0.69487   0.00000  Uiso   1.00
C1432  C     0.80641   0.47015   0.97208   0.00000  Uiso   1.00
C1433  C     0.86176   0.52926   0.98008   0.00000  Uiso   1.00
C1434  C     0.80551   0.47039   0.68668   0.00000  Uiso   1.00
C1435  C     0.98802   0.48839   0.76377   0.00000  Uiso   1.00
C1436  C     0.67596   0.46468   0.89362   0.00000  Uiso   1.00
C1437  C     0.93234   0.35466   0.75270   0.00000  Uiso   1.00
C1438  C     0.83257   0.57990   0.83335   0.00000  Uiso   1.00
C1439  C     0.71448   0.61060   0.85184   0.00000  Uiso   1.00
C1440  C     0.87970   0.60192   0.96599   0.00000  Uiso   1.00
C1441  C     0.72311   0.43405   0.68847   0.00000  Uiso   1.00
C1442  C     0.73394   0.49605   0.82118   0.00000  Uiso   1.00
C1443  C     0.93274   0.49615   0.84492   0.00000  Uiso   1.00
C1444  C     0.67908   0.48798   0.81310   0.00000  Uiso   1.00
C1445  C     0.98641   0.48401   0.84952   0.00000  Uiso   1.00
C1446  C     0.86845   0.35421   0.80802   0.00000  Uiso   1.00
C1447  C     0.79821   0.64583   0.85764   0.00000  Uiso   1.00
C1448  C     0.86615   0.64424   0.80828   0.00000  Uiso   1.00
H1449  H     0.89186   0.62581   0.79050   0.00000  Uiso   1.00
H1450  H     0.90429   0.33711   0.72710   0.00000  Uiso   1.00
H1451  H     0.75316   0.64073   0.90952   0.00000  Uiso   1.00
H1452  H     0.69152   0.63788   0.83713   0.00000  Uiso   1.00
H1453  H     0.69006   0.59199   0.87223   0.00000  Uiso   1.00
H1454  H     0.72420   0.59041   0.82364   0.00000  Uiso   1.00
H1455  H     0.93279   0.55336   0.97033   0.00000  Uiso   1.00
H1456  H     0.89067   0.61220   0.66884   0.00000  Uiso   1.00
H1457  H     0.83707   0.60645   0.95520   0.00000  Uiso   1.00
H1458  H     0.90113   0.62168   0.94417   0.00000  Uiso   1.00
H1459  H     0.79743   0.41047   0.70899   0.00000  Uiso   1.00
H1460  H     0.77507   0.37314   0.87668   0.00000  Uiso   1.00
H1461  H     0.70384   0.46508   0.68519   0.00000  Uiso   1.00
H1462  H     0.70382   0.41455   0.71202   0.00000  Uiso   1.00
H1463  H     0.71810   0.41820   0.98785   0.00000  Uiso   1.00
H1464  H     0.88522   0.55157   0.71669   0.00000  Uiso   1.00
H1465  H     0.78635   0.44571   0.95078   0.00000  Uiso   1.00
H1466  H     0.99838   0.51282   0.74137   0.00000  Uiso   1.00
H1467  H     0.99803   0.47545   0.92560   0.00000  Uiso   1.00
H1468  H     0.92614   0.39953   0.80383   0.00000  Uiso   1.00
H1469  H     0.96163   0.66647   0.77125   0.00000  Uiso   1.00
H1470  H     0.95328   0.37764   0.73400   0.00000  Uiso   1.00
N1471  N     0.83332   0.49999   0.95240   0.00000  Uiso   1.00
N1472  N     0.83335   0.50001   0.71427   0.00000  Uiso   1.00
N1473  N     0.90465   0.37648   0.78466   0.00000  Uiso   1.00
N1474  N     0.76151   0.62478   0.88107   0.00000  Uiso   1.00
N1475  N     0.89332   0.55851   0.96064   0.00000  Uiso   1.00
N1476  N     0.77805   0.43865   0.70674   0.00000  Uiso   1.00
O1477  O     0.83333   0.43892   0.87154   0.00000  Uiso   1.00
O1478  O     0.70495   0.43466   0.89393   0.00000  Uiso   1.00
O1479  O     0.83334   0.56108   0.79513   0.00000  Uiso   1.00
O1480  O     0.83333   0.43893   0.79510   0.00000  Uiso   1.00
O1481  O     0.83334   0.56107   0.87157   0.00000  Uiso   1.00
O1482  O     0.75725   0.50000   0.86261   0.00000  Uiso   1.00
O1483  O     0.90942   0.50000   0.80405   0.00000  Uiso   1.00
O1484  O     0.75725   0.50000   0.78617   0.00000  Uiso   1.00
O1485  O     0.90942   0.50000   0.88050   0.00000  Uiso   1.00
O1486  O     0.95863   0.46022   0.74754   0.00000  Uiso   1.00
Zn1487 Zn    0.83333   0.49999   0.88437   0.00000  Uiso   1.00
Zn1488 Zn    0.83333   0.50001   0.78229   0.00000  Uiso   1.00
C1489  C     0.16757   0.75339   0.83331   0.00000  Uiso   1.00
C1490  C     0.13421   0.68885   0.85814   0.00000  Uiso   1.00
C1491  C     0.16518   0.95734   0.83313   0.00000  Uiso   1.00
C1492  C     0.16847   0.70921   0.83328   0.00000  Uiso   1.00
C1493  C     0.19527   0.86226   0.69487   0.00000  Uiso   1.00
C1494  C     0.13975   0.80348   0.97208   0.00000  Uiso   1.00
C1495  C     0.19509   0.86260   0.98008   0.00000  Uiso   1.00
C1496  C     0.13884   0.80372   0.68668   0.00000  Uiso   1.00
C1497  C     0.32136   0.82172   0.76377   0.00000  Uiso   1.00
C1498  C     0.00929   0.79801   0.89362   0.00000  Uiso   1.00
C1499  C     0.26568   0.68800   0.75270   0.00000  Uiso   1.00
C1500  C     0.16590   0.91323   0.83335   0.00000  Uiso   1.00
C1501  C     0.04782   0.94393   0.85184   0.00000  Uiso   1.00
C1502  C     0.21304   0.93525   0.96599   0.00000  Uiso   1.00
C1503  C     0.05644   0.76738   0.68847   0.00000  Uiso   1.00
C1504  C     0.06727   0.82938   0.82118   0.00000  Uiso   1.00
C1505  C     0.26607   0.82948   0.84492   0.00000  Uiso   1.00
C1506  C     0.01241   0.82132   0.81310   0.00000  Uiso   1.00
C1507  C     0.31974   0.81734   0.84952   0.00000  Uiso   1.00
C1508  C     0.20178   0.68754   0.80802   0.00000  Uiso   1.00
C1509  C     0.13155   0.97916   0.85764   0.00000  Uiso   1.00
C1510  C     0.19949   0.97758   0.80828   0.00000  Uiso   1.00
H1511  H     0.22519   0.95915   0.79050   0.00000  Uiso   1.00
H1512  H     0.23763   0.67044   0.72710   0.00000  Uiso   1.00
H1513  H     0.08649   0.97406   0.90952   0.00000  Uiso   1.00
H1514  H     0.02485   0.97121   0.83713   0.00000  Uiso   1.00
H1515  H     0.02340   0.92532   0.87223   0.00000  Uiso   1.00
H1516  H     0.05754   0.92374   0.82364   0.00000  Uiso   1.00
H1517  H     0.26612   0.88669   0.97033   0.00000  Uiso   1.00
H1518  H     0.22400   0.94553   0.66884   0.00000  Uiso   1.00
H1519  H     0.17040   0.93978   0.95520   0.00000  Uiso   1.00
H1520  H     0.23447   0.95501   0.94417   0.00000  Uiso   1.00
H1521  H     0.13076   0.74380   0.70899   0.00000  Uiso   1.00
H1522  H     0.10841   0.70648   0.87668   0.00000  Uiso   1.00
H1523  H     0.03717   0.79841   0.68519   0.00000  Uiso   1.00
H1524  H     0.03715   0.74788   0.71202   0.00000  Uiso   1.00
H1525  H     0.05144   0.75153   0.98785   0.00000  Uiso   1.00
H1526  H     0.21856   0.88491   0.71669   0.00000  Uiso   1.00
H1527  H     0.11968   0.77905   0.95078   0.00000  Uiso   1.00
H1528  H     0.33171   0.84615   0.74137   0.00000  Uiso   1.00
H1529  H     0.33136   0.80878   0.92560   0.00000  Uiso   1.00
H1530  H     0.25947   0.73287   0.80383   0.00000  Uiso   1.00
H1531  H     0.29496   0.99980   0.77125   0.00000  Uiso   1.00
H1532  H     0.28661   0.71097   0.73400   0.00000  Uiso   1.00
N1533  N     0.16665   0.83332   0.95240   0.00000  Uiso   1.00
N1534  N     0.16668   0.83334   0.71427   0.00000  Uiso   1.00
N1535  N     0.23798   0.70982   0.78466   0.00000  Uiso   1.00
N1536  N     0.09485   0.95811   0.88107   0.00000  Uiso   1.00
N1537  N     0.22665   0.89185   0.96064   0.00000  Uiso   1.00
N1538  N     0.11138   0.77199   0.70674   0.00000  Uiso   1.00
O1539  O     0.16666   0.77225   0.87154   0.00000  Uiso   1.00
O1540  O     0.03829   0.76800   0.89393   0.00000  Uiso   1.00
O1541  O     0.16667   0.89442   0.79513   0.00000  Uiso   1.00
O1542  O     0.16666   0.77226   0.79510   0.00000  Uiso   1.00
O1543  O     0.16667   0.89441   0.87157   0.00000  Uiso   1.00
O1544  O     0.09058   0.83333   0.86261   0.00000  Uiso   1.00
O1545  O     0.24275   0.83334   0.80405   0.00000  Uiso   1.00
O1546  O     0.09058   0.83334   0.78617   0.00000  Uiso   1.00
O1547  O     0.24275   0.83333   0.88050   0.00000  Uiso   1.00
O1548  O     0.29197   0.79355   0.74754   0.00000  Uiso   1.00
Zn1549 Zn    0.16667   0.83333   0.88437   0.00000  Uiso   1.00
Zn1550 Zn    0.16667   0.83334   0.78229   0.00000  Uiso   1.00
C1551  C     0.50090   0.75339   0.83331   0.00000  Uiso   1.00
C1552  C     0.46755   0.68885   0.85814   0.00000  Uiso   1.00
C1553  C     0.49851   0.95734   0.83313   0.00000  Uiso   1.00
C1554  C     0.50180   0.70921   0.83328   0.00000  Uiso   1.00
C1555  C     0.52860   0.86226   0.69487   0.00000  Uiso   1.00
C1556  C     0.47308   0.80348   0.97208   0.00000  Uiso   1.00
C1557  C     0.52843   0.86260   0.98008   0.00000  Uiso   1.00
C1558  C     0.47218   0.80372   0.68668   0.00000  Uiso   1.00
C1559  C     0.65469   0.82172   0.76377   0.00000  Uiso   1.00
C1560  C     0.34262   0.79801   0.89362   0.00000  Uiso   1.00
C1561  C     0.59901   0.68800   0.75270   0.00000  Uiso   1.00
C1562  C     0.49923   0.91323   0.83335   0.00000  Uiso   1.00
C1563  C     0.38115   0.94393   0.85184   0.00000  Uiso   1.00
C1564  C     0.54637   0.93525   0.96599   0.00000  Uiso   1.00
C1565  C     0.38978   0.76738   0.68847   0.00000  Uiso   1.00
C1566  C     0.40060   0.82938   0.82118   0.00000  Uiso   1.00
C1567  C     0.59940   0.82948   0.84492   0.00000  Uiso   1.00
C1568  C     0.34574   0.82132   0.81310   0.00000  Uiso   1.00
C1569  C     0.65307   0.81734   0.84952   0.00000  Uiso   1.00
C1570  C     0.53512   0.68754   0.80802   0.00000  Uiso   1.00
C1571  C     0.46488   0.97916   0.85764   0.00000  Uiso   1.00
C1572  C     0.53282   0.97758   0.80828   0.00000  Uiso   1.00
H1573  H     0.55852   0.95915   0.79050   0.00000  Uiso   1.00
H1574  H     0.57096   0.67044   0.72710   0.00000  Uiso   1.00
H1575  H     0.41982   0.97406   0.90952   0.00000  Uiso   1.00
H1576  H     0.35819   0.97121   0.83713   0.00000  Uiso   1.00
H1577  H     0.35673   0.92532   0.87223   0.00000  Uiso   1.00
H1578  H     0.39087   0.92374   0.82364   0.00000  Uiso   1.00
H1579  H     0.59945   0.88669   0.97033   0.00000  Uiso   1.00
H1580  H     0.55733   0.94553   0.66884   0.00000  Uiso   1.00
H1581  H     0.50374   0.93978   0.95520   0.00000  Uiso   1.00
H1582  H     0.56780   0.95501   0.94417   0.00000  Uiso   1.00
H1583  H     0.46410   0.74380   0.70899   0.00000  Uiso   1.00
H1584  H     0.44174   0.70648   0.87668   0.00000  Uiso   1.00
H1585  H     0.37050   0.79841   0.68519   0.00000  Uiso   1.00
H1586  H     0.37048   0.74788   0.71202   0.00000  Uiso   1.00
H1587  H     0.38477   0.75153   0.98785   0.00000  Uiso   1.00
H1588  H     0.55189   0.88491   0.71669   0.00000  Uiso   1.00
H1589  H     0.45302   0.77905   0.95078   0.00000  Uiso   1.00
H1590  H     0.66505   0.84615   0.74137   0.00000  Uiso   1.00
H1591  H     0.66469   0.80878   0.92560   0.00000  Uiso   1.00
H1592  H     0.59280   0.73287   0.80383   0.00000  Uiso   1.00
H1593  H     0.62829   0.99980   0.77125   0.00000  Uiso   1.00
H1594  H     0.61995   0.71097   0.73400   0.00000  Uiso   1.00
N1595  N     0.49999   0.83332   0.95240   0.00000  Uiso   1.00
N1596  N     0.50001   0.83334   0.71427   0.00000  Uiso   1.00
N1597  N     0.57132   0.70982   0.78466   0.00000  Uiso   1.00
N1598  N     0.42818   0.95811   0.88107   0.00000  Uiso   1.00
N1599  N     0.55999   0.89185   0.96064   0.00000  Uiso   1.00
N1600  N     0.44472   0.77199   0.70674   0.00000  Uiso   1.00
O1601  O     0.50000   0.77225   0.87154   0.00000  Uiso   1.00
O1602  O     0.37162   0.76800   0.89393   0.00000  Uiso   1.00
O1603  O     0.50000   0.89442   0.79513   0.00000  Uiso   1.00
O1604  O     0.50000   0.77226   0.79510   0.00000  Uiso   1.00
O1605  O     0.50000   0.89441   0.87157   0.00000  Uiso   1.00
O1606  O     0.42392   0.83333   0.86261   0.00000  Uiso   1.00
O1607  O     0.57608   0.83334   0.80405   0.00000  Uiso   1.00
O1608  O     0.42392   0.83334   0.78617   0.00000  Uiso   1.00
O1609  O     0.57608   0.83333   0.88050   0.00000  Uiso   1.00
O1610  O     0.62530   0.79355   0.74754   0.00000  Uiso   1.00
Zn1611 Zn    0.50000   0.83333   0.88437   0.00000  Uiso   1.00
Zn1612 Zn    0.50000   0.83334   0.78229   0.00000  Uiso   1.00
C1613  C     0.83424   0.75339   0.83331   0.00000  Uiso   1.00
C1614  C     0.80088   0.68885   0.85814   0.00000  Uiso   1.00
C1615  C     0.83184   0.95734   0.83313   0.00000  Uiso   1.00
C1616  C     0.83513   0.70921   0.83328   0.00000  Uiso   1.00
C1617  C     0.86194   0.86226   0.69487   0.00000  Uiso   1.00
C1618  C     0.80641   0.80348   0.97208   0.00000  Uiso   1.00
C1619  C     0.86176   0.86260   0.98008   0.00000  Uiso   1.00
C1620  C     0.80551   0.80372   0.68668   0.00000  Uiso   1.00
C1621  C     0.98802   0.82172   0.76377   0.00000  Uiso   1.00
C1622  C     0.67596   0.79801   0.89362   0.00000  Uiso   1.00
C1623  C     0.93234   0.68800   0.75270   0.00000  Uiso   1.00
C1624  C     0.83257   0.91323   0.83335   0.00000  Uiso   1.00
C1625  C     0.71448   0.94393   0.85184   0.00000  Uiso   1.00
C1626  C     0.87970   0.93525   0.96599   0.00000  Uiso   1.00
C1627  C     0.72311   0.76738   0.68847   0.00000  Uiso   1.00
C1628  C     0.73394   0.82938   0.82118   0.00000  Uiso   1.00
C1629  C     0.93274   0.82948   0.84492   0.00000  Uiso   1.00
C1630  C     0.67908   0.82132   0.81310   0.00000  Uiso   1.00
C1631  C     0.98641   0.81734   0.84952   0.00000  Uiso   1.00
C1632  C     0.86845   0.68754   0.80802   0.00000  Uiso   1.00
C1633  C     0.79821   0.97916   0.85764   0.00000  Uiso   1.00
C1634  C     0.86615   0.97758   0.80828   0.00000  Uiso   1.00
H1635  H     0.89186   0.95915   0.79050   0.00000  Uiso   1.00
H1636  H     0.90429   0.67044   0.72710   0.00000  Uiso   1.00
H1637  H     0.75316   0.97406   0.90952   0.00000  Uiso   1.00
H1638  H     0.69152   0.97121   0.83713   0.00000  Uiso   1.00
H1639  H     0.69006   0.92532   0.87223   0.00000  Uiso   1.00
H1640  H     0.72420   0.92374   0.82364   0.00000  Uiso   1.00
H1641  H     0.93279   0.88669   0.97033   0.00000  Uiso   1.00
H1642  H     0.89067   0.94553   0.66884   0.00000  Uiso   1.00
H1643  H     0.83707   0.93978   0.95520   0.00000  Uiso   1.00
H1644  H     0.90113   0.95501   0.94417   0.00000  Uiso   1.00
H1645  H     0.79743   0.74380   0.70899   0.00000  Uiso   1.00
H1646  H     0.77507   0.70648   0.87668   0.00000  Uiso   1.00
H1647  H     0.70384   0.79841   0.68519   0.00000  Uiso   1.00
H1648  H     0.70382   0.74788   0.71202   0.00000  Uiso   1.00
H1649  H     0.71810   0.75153   0.98785   0.00000  Uiso   1.00
H1650  H     0.88522   0.88491   0.71669   0.00000  Uiso   1.00
H1651  H     0.78635   0.77905   0.95078   0.00000  Uiso   1.00
H1652  H     0.99838   0.84615   0.74137   0.00000  Uiso   1.00
H1653  H     0.99803   0.80878   0.92560   0.00000  Uiso   1.00
H1654  H     0.92614   0.73287   0.80383   0.00000  Uiso   1.00
H1655  H     0.96163   0.99980   0.77125   0.00000  Uiso   1.00
H1656  H     0.95328   0.71097   0.73400   0.00000  Uiso   1.00
N1657  N     0.83332   0.83332   0.95240   0.00000  Uiso   1.00
N1658  N     0.83335   0.83334   0.71427   0.00000  Uiso   1.00
N1659  N     0.90465   0.70982   0.78466   0.00000  Uiso   1.00
N1660  N     0.76151   0.95811   0.88107   0.00000  Uiso   1.00
N1661  N     0.89332   0.89185   0.96064   0.00000  Uiso   1.00
N1662  N     0.77805   0.77199   0.70674   0.00000  Uiso   1.00
O1663  O     0.83333   0.77225   0.87154   0.00000  Uiso   1.00
O1664  O     0.70495   0.76800   0.89393   0.00000  Uiso   1.00
O1665  O     0.83334   0.89442   0.79513   0.00000  Uiso   1.00
O1666  O     0.83333   0.77226   0.79510   0.00000  Uiso   1.00
O1667  O     0.83334   0.89441   0.87157   0.00000  Uiso   1.00
O1668  O     0.75725   0.83333   0.86261   0.00000  Uiso   1.00
O1669  O     0.90942   0.83334   0.80405   0.00000  Uiso   1.00
O1670  O     0.75725   0.83334   0.78617   0.00000  Uiso   1.00
O1671  O     0.90942   0.83333   0.88050   0.00000  Uiso   1.00
O1672  O     0.95863   0.79355   0.74754   0.00000  Uiso   1.00
Zn1673 Zn    0.83333   0.83333   0.88437   0.00000  Uiso   1.00
Zn1674 Zn    0.83333   0.83334   0.78229   0.00000  Uiso   1.00
loop_
_geom_bond_atom_site_label_1
_geom_bond_atom_site_label_2
_geom_bond_distance
_geom_bond_site_symmetry_2
_ccdc_geom_bond_type
C1     O54     1.282   .     A
C1     O51     1.280   .     A
C1     C4      1.412   .     S
C2     C4      1.395   .     A
C2     H34     1.084   .     S
C2     C393    1.376   1_545 S
C3     C21     1.401   .     A
C3     C22     1.394   .     A
C3     C12     1.410   .     S
C4     C20     1.406   .     A
C5     N46     1.363   .     A
C5     H38     1.082   .     S
C5     C1123   1.422   1_554 S
C6     N45     1.362   .     A
C6     H39     1.078   .     S
C6     C566    1.421   .     S
C7     N45     1.371   .     A
C7     N49     1.418   .     S
C7     C563    1.422   .     S
C8     N50     1.419   .     S
C8     N46     1.370   .     A
C8     C1122   1.421   1_554 S
C9     H40     1.086   .     S
C9     O60     1.221   .     D
C9     C80     1.497   .     S
C10    O52     1.221   .     D
C10    C143    1.487   1_455 S
C10    H165    1.085   1_455 S
C11    N47     1.448   .     S
C11    H44     1.109   .     S
C11    H24     1.110   .     S
C11    H415    1.110   1_545 S
C12    O53     1.279   .     A
C12    O55     1.281   .     A
C13    N48     1.447   .     S
C13    H28     1.110   .     S
C13    H26     1.111   .     S
C13    H27     1.111   .     S
C14    H31     1.110   .     S
C14    N49     1.447   .     S
C14    H32     1.110   .     S
C14    H588    1.110   .     S
C15    N50     1.446   .     S
C15    H35     1.111   .     S
C15    H36     1.110   .     S
C15    H1153   1.110   1_554 S
C16    O56     1.284   .     A
C16    O58     1.282   .     A
C16    C18     1.423   .     S
C17    O59     1.296   .     A
C17    C19     1.430   .     S
C17    O57     1.272   .     A
C18    C133    1.497   1_455 S
C18    C143    1.360   1_455 S
C19    C72     1.487   .     S
C19    C80     1.360   .     S
C20    N47     1.434   .     S
C20    C394    1.385   1_545 S
C21    N48     1.426   .     S
C21    C188    1.376   .     S
C22    H23     1.083   .     S
C22    C206    1.385   .     S
H25    N48     1.032   .     S
H29    N49     1.031   .     S
H30    C1130   1.110   1_554 S
H33    N50     1.031   .     S
H37    C573    1.110   .     S
H41    C72     1.085   .     S
H42    N47     1.031   .     S
H43    C197    1.110   .     S
N45    Zn61    2.011   .     S
N46    Zn62    2.011   .     S
O51    Zn61    1.986   .     S
O53    Zn62    1.986   .     S
O54    Zn62    1.991   .     S
O55    Zn61    1.991   .     S
O56    Zn61    1.973   .     S
O57    Zn62    1.973   .     S
O58    Zn62    1.988   .     S
O59    Zn61    1.988   .     S
C63    O116    1.282   .     A
C63    O113    1.280   .     A
C63    C66     1.412   .     S
C64    C66     1.395   .     A
C64    H96     1.084   .     S
C64    C455    1.376   1_545 S
C65    C83     1.401   .     A
C65    C84     1.394   .     A
C65    C74     1.410   .     S
C66    C82     1.406   .     A
C67    N108    1.363   .     A
C67    H100    1.082   .     S
C67    C1185   1.422   1_554 S
C68    N107    1.362   .     A
C68    H101    1.078   .     S
C68    C628    1.421   .     S
C69    N107    1.371   .     A
C69    N111    1.418   .     S
C69    C625    1.422   .     S
C70    N112    1.419   .     S
C70    N108    1.370   .     A
C70    C1184   1.421   1_554 S
C71    H102    1.086   .     S
C71    O122    1.221   .     D
C71    C142    1.497   .     S
C72    O114    1.221   .     D
C73    N109    1.448   .     S
C73    H106    1.109   .     S
C73    H86     1.110   .     S
C73    H477    1.110   1_545 S
C74    O115    1.279   .     A
C74    O117    1.281   .     A
C75    N110    1.447   .     S
C75    H90     1.110   .     S
C75    H88     1.111   .     S
C75    H89     1.111   .     S
C76    H93     1.110   .     S
C76    N111    1.447   .     S
C76    H94     1.110   .     S
C76    H650    1.110   .     S
C77    N112    1.446   .     S
C77    H97     1.111   .     S
C77    H98     1.110   .     S
C77    H1215   1.110   1_554 S
C78    O118    1.284   .     A
C78    O120    1.282   .     A
C78    C80     1.423   .     S
C79    O121    1.296   .     A
C79    C81     1.430   .     S
C79    O119    1.272   .     A
C81    C134    1.487   .     S
C81    C142    1.360   .     S
C82    N109    1.434   .     S
C82    C456    1.385   1_545 S
C83    N110    1.426   .     S
C83    C250    1.376   .     S
C84    H85     1.083   .     S
C84    C268    1.385   .     S
H87    N110    1.032   .     S
H91    N111    1.031   .     S
H92    C1192   1.110   1_554 S
H95    N112    1.031   .     S
H99    C635    1.110   .     S
H103   C134    1.085   .     S
H104   N109    1.031   .     S
H105   C259    1.110   .     S
N107   Zn123   2.011   .     S
N108   Zn124   2.011   .     S
O113   Zn123   1.986   .     S
O115   Zn124   1.986   .     S
O116   Zn124   1.991   .     S
O117   Zn123   1.991   .     S
O118   Zn123   1.973   .     S
O119   Zn124   1.973   .     S
O120   Zn124   1.988   .     S
O121   Zn123   1.988   .     S
C125   O178    1.282   .     A
C125   O175    1.280   .     A
C125   C128    1.412   .     S
C126   C128    1.395   .     A
C126   H158    1.084   .     S
C126   C517    1.376   1_545 S
C127   C145    1.401   .     A
C127   C146    1.394   .     A
C127   C136    1.410   .     S
C128   C144    1.406   .     A
C129   N170    1.363   .     A
C129   H162    1.082   .     S
C129   C1247   1.422   1_554 S
C130   N169    1.362   .     A
C130   H163    1.078   .     S
C130   C690    1.421   .     S
C131   N169    1.371   .     A
C131   N173    1.418   .     S
C131   C687    1.422   .     S
C132   N174    1.419   .     S
C132   N170    1.370   .     A
C132   C1246   1.421   1_554 S
C133   H164    1.086   .     S
C133   O184    1.221   .     D
C133   C18     1.497   1_655 S
C134   O176    1.221   .     D
C135   N171    1.448   .     S
C135   H168    1.109   .     S
C135   H148    1.110   .     S
C135   H539    1.110   1_545 S
C136   O177    1.279   .     A
C136   O179    1.281   .     A
C137   N172    1.447   .     S
C137   H152    1.110   .     S
C137   H150    1.111   .     S
C137   H151    1.111   .     S
C138   H155    1.110   .     S
C138   N173    1.447   .     S
C138   H156    1.110   .     S
C138   H712    1.110   .     S
C139   N174    1.446   .     S
C139   H159    1.111   .     S
C139   H160    1.110   .     S
C139   H1277   1.110   1_554 S
C140   O180    1.284   .     A
C140   O182    1.282   .     A
C140   C142    1.423   .     S
C141   O183    1.296   .     A
C141   C143    1.430   .     S
C141   O181    1.272   .     A
C143   C10     1.487   1_655 S
C143   C18     1.360   1_655 S
C144   N171    1.434   .     S
C144   C518    1.385   1_545 S
C145   N172    1.426   .     S
C145   C312    1.376   .     S
C146   H147    1.083   .     S
C146   C330    1.385   .     S
H149   N172    1.032   .     S
H153   N173    1.031   .     S
H154   C1254   1.110   1_554 S
H157   N174    1.031   .     S
H161   C697    1.110   .     S
H165   C10     1.085   1_655 S
H166   N171    1.031   .     S
H167   C321    1.110   .     S
N169   Zn185   2.011   .     S
N170   Zn186   2.011   .     S
O175   Zn185   1.986   .     S
O177   Zn186   1.986   .     S
O178   Zn186   1.991   .     S
O179   Zn185   1.991   .     S
O180   Zn185   1.973   .     S
O181   Zn186   1.973   .     S
O182   Zn186   1.988   .     S
O183   Zn185   1.988   .     S
C187   O240    1.282   .     A
C187   O237    1.280   .     A
C187   C190    1.412   .     S
C188   C190    1.395   .     A
C188   H220    1.084   .     S
C189   C207    1.401   .     A
C189   C208    1.394   .     A
C189   C198    1.410   .     S
C190   C206    1.406   .     A
C191   N232    1.363   .     A
C191   H224    1.082   .     S
C191   C1309   1.422   1_554 S
C192   N231    1.362   .     A
C192   H225    1.078   .     S
C192   C752    1.421   .     S
C193   N231    1.371   .     A
C193   N235    1.418   .     S
C193   C749    1.422   .     S
C194   N236    1.419   .     S
C194   N232    1.370   .     A
C194   C1308   1.421   1_554 S
C195   H226    1.086   .     S
C195   O246    1.221   .     D
C195   C266    1.497   .     S
C196   O238    1.221   .     D
C196   C329    1.487   1_455 S
C196   H351    1.085   1_455 S
C197   N233    1.448   .     S
C197   H230    1.109   .     S
C197   H210    1.110   .     S
C198   O239    1.279   .     A
C198   O241    1.281   .     A
C199   N234    1.447   .     S
C199   H214    1.110   .     S
C199   H212    1.111   .     S
C199   H213    1.111   .     S
C200   H217    1.110   .     S
C200   N235    1.447   .     S
C200   H218    1.110   .     S
C200   H774    1.110   .     S
C201   N236    1.446   .     S
C201   H221    1.111   .     S
C201   H222    1.110   .     S
C201   H1339   1.110   1_554 S
C202   O242    1.284   .     A
C202   O244    1.282   .     A
C202   C204    1.423   .     S
C203   O245    1.296   .     A
C203   C205    1.430   .     S
C203   O243    1.272   .     A
C204   C319    1.497   1_455 S
C204   C329    1.360   1_455 S
C205   C258    1.487   .     S
C205   C266    1.360   .     S
C206   N233    1.434   .     S
C207   N234    1.426   .     S
C207   C374    1.376   .     S
C208   H209    1.083   .     S
C208   C392    1.385   .     S
H211   N234    1.032   .     S
H215   N235    1.031   .     S
H216   C1316   1.110   1_554 S
H219   N236    1.031   .     S
H223   C759    1.110   .     S
H227   C258    1.085   .     S
H228   N233    1.031   .     S
H229   C383    1.110   .     S
N231   Zn247   2.011   .     S
N232   Zn248   2.011   .     S
O237   Zn247   1.986   .     S
O239   Zn248   1.986   .     S
O240   Zn248   1.991   .     S
O241   Zn247   1.991   .     S
O242   Zn247   1.973   .     S
O243   Zn248   1.973   .     S
O244   Zn248   1.988   .     S
O245   Zn247   1.988   .     S
C249   O302    1.282   .     A
C249   O299    1.280   .     A
C249   C252    1.412   .     S
C250   C252    1.395   .     A
C250   H282    1.084   .     S
C251   C269    1.401   .     A
C251   C270    1.394   .     A
C251   C260    1.410   .     S
C252   C268    1.406   .     A
C253   N294    1.363   .     A
C253   H286    1.082   .     S
C253   C1371   1.422   1_554 S
C254   N293    1.362   .     A
C254   H287    1.078   .     S
C254   C814    1.421   .     S
C255   N293    1.371   .     A
C255   N297    1.418   .     S
C255   C811    1.422   .     S
C256   N298    1.419   .     S
C256   N294    1.370   .     A
C256   C1370   1.421   1_554 S
C257   H288    1.086   .     S
C257   O308    1.221   .     D
C257   C328    1.497   .     S
C258   O300    1.221   .     D
C259   N295    1.448   .     S
C259   H292    1.109   .     S
C259   H272    1.110   .     S
C260   O301    1.279   .     A
C260   O303    1.281   .     A
C261   N296    1.447   .     S
C261   H276    1.110   .     S
C261   H274    1.111   .     S
C261   H275    1.111   .     S
C262   H279    1.110   .     S
C262   N297    1.447   .     S
C262   H280    1.110   .     S
C262   H836    1.110   .     S
C263   N298    1.446   .     S
C263   H283    1.111   .     S
C263   H284    1.110   .     S
C263   H1401   1.110   1_554 S
C264   O304    1.284   .     A
C264   O306    1.282   .     A
C264   C266    1.423   .     S
C265   O307    1.296   .     A
C265   C267    1.430   .     S
C265   O305    1.272   .     A
C267   C320    1.487   .     S
C267   C328    1.360   .     S
C268   N295    1.434   .     S
C269   N296    1.426   .     S
C269   C436    1.376   .     S
C270   H271    1.083   .     S
C270   C454    1.385   .     S
H273   N296    1.032   .     S
H277   N297    1.031   .     S
H278   C1378   1.110   1_554 S
H281   N298    1.031   .     S
H285   C821    1.110   .     S
H289   C320    1.085   .     S
H290   N295    1.031   .     S
H291   C445    1.110   .     S
N293   Zn309   2.011   .     S
N294   Zn310   2.011   .     S
O299   Zn309   1.986   .     S
O301   Zn310   1.986   .     S
O302   Zn310   1.991   .     S
O303   Zn309   1.991   .     S
O304   Zn309   1.973   .     S
O305   Zn310   1.973   .     S
O306   Zn310   1.988   .     S
O307   Zn309   1.988   .     S
C311   O364    1.282   .     A
C311   O361    1.280   .     A
C311   C314    1.412   .     S
C312   C314    1.395   .     A
C312   H344    1.084   .     S
C313   C331    1.401   .     A
C313   C332    1.394   .     A
C313   C322    1.410   .     S
C314   C330    1.406   .     A
C315   N356    1.363   .     A
C315   H348    1.082   .     S
C315   C1433   1.422   1_554 S
C316   N355    1.362   .     A
C316   H349    1.078   .     S
C316   C876    1.421   .     S
C317   N355    1.371   .     A
C317   N359    1.418   .     S
C317   C873    1.422   .     S
C318   N360    1.419   .     S
C318   N356    1.370   .     A
C318   C1432   1.421   1_554 S
C319   H350    1.086   .     S
C319   O370    1.221   .     D
C319   C204    1.497   1_655 S
C320   O362    1.221   .     D
C321   N357    1.448   .     S
C321   H354    1.109   .     S
C321   H334    1.110   .     S
C322   O363    1.279   .     A
C322   O365    1.281   .     A
C323   N358    1.447   .     S
C323   H338    1.110   .     S
C323   H336    1.111   .     S
C323   H337    1.111   .     S
C324   H341    1.110   .     S
C324   N359    1.447   .     S
C324   H342    1.110   .     S
C324   H898    1.110   .     S
C325   N360    1.446   .     S
C325   H345    1.111   .     S
C325   H346    1.110   .     S
C325   H1463   1.110   1_554 S
C326   O366    1.284   .     A
C326   O368    1.282   .     A
C326   C328    1.423   .     S
C327   O369    1.296   .     A
C327   C329    1.430   .     S
C327   O367    1.272   .     A
C329   C196    1.487   1_655 S
C329   C204    1.360   1_655 S
C330   N357    1.434   .     S
C331   N358    1.426   .     S
C331   C498    1.376   .     S
C332   H333    1.083   .     S
C332   C516    1.385   .     S
H335   N358    1.032   .     S
H339   N359    1.031   .     S
H340   C1440   1.110   1_554 S
H343   N360    1.031   .     S
H347   C883    1.110   .     S
H351   C196    1.085   1_655 S
H352   N357    1.031   .     S
H353   C507    1.110   .     S
N355   Zn371   2.011   .     S
N356   Zn372   2.011   .     S
O361   Zn371   1.986   .     S
O363   Zn372   1.986   .     S
O364   Zn372   1.991   .     S
O365   Zn371   1.991   .     S
O366   Zn371   1.973   .     S
O367   Zn372   1.973   .     S
O368   Zn372   1.988   .     S
O369   Zn371   1.988   .     S
C373   O426    1.282   .     A
C373   O423    1.280   .     A
C373   C376    1.412   .     S
C374   C376    1.395   .     A
C374   H406    1.084   .     S
C375   C393    1.401   .     A
C375   C394    1.394   .     A
C375   C384    1.410   .     S
C376   C392    1.406   .     A
C377   N418    1.363   .     A
C377   H410    1.082   .     S
C377   C1495   1.422   1_554 S
C378   N417    1.362   .     A
C378   H411    1.078   .     S
C378   C938    1.421   .     S
C379   N417    1.371   .     A
C379   N421    1.418   .     S
C379   C935    1.422   .     S
C380   N422    1.419   .     S
C380   N418    1.370   .     A
C380   C1494   1.421   1_554 S
C381   H412    1.086   .     S
C381   O432    1.221   .     D
C381   C452    1.497   .     S
C382   O424    1.221   .     D
C382   C515    1.487   1_455 S
C382   H537    1.085   1_455 S
C383   N419    1.448   .     S
C383   H416    1.109   .     S
C383   H396    1.110   .     S
C384   O425    1.279   .     A
C384   O427    1.281   .     A
C385   N420    1.447   .     S
C385   H400    1.110   .     S
C385   H398    1.111   .     S
C385   H399    1.111   .     S
C386   H403    1.110   .     S
C386   N421    1.447   .     S
C386   H404    1.110   .     S
C386   H960    1.110   .     S
C387   N422    1.446   .     S
C387   H407    1.111   .     S
C387   H408    1.110   .     S
C387   H1525   1.110   1_554 S
C388   O428    1.284   .     A
C388   O430    1.282   .     A
C388   C390    1.423   .     S
C389   O431    1.296   .     A
C389   C391    1.430   .     S
C389   O429    1.272   .     A
C390   C505    1.497   1_455 S
C390   C515    1.360   1_455 S
C391   C444    1.487   .     S
C391   C452    1.360   .     S
C392   N419    1.434   .     S
C393   N420    1.426   .     S
C393   C2      1.376   1_565 S
C394   H395    1.083   .     S
C394   C20     1.385   1_565 S
H397   N420    1.032   .     S
H401   N421    1.031   .     S
H402   C1502   1.110   1_554 S
H405   N422    1.031   .     S
H409   C945    1.110   .     S
H413   C444    1.085   .     S
H414   N419    1.031   .     S
H415   C11     1.110   1_565 S
N417   Zn433   2.011   .     S
N418   Zn434   2.011   .     S
O423   Zn433   1.986   .     S
O425   Zn434   1.986   .     S
O426   Zn434   1.991   .     S
O427   Zn433   1.991   .     S
O428   Zn433   1.973   .     S
O429   Zn434   1.973   .     S
O430   Zn434   1.988   .     S
O431   Zn433   1.988   .     S
C435   O488    1.282   .     A
C435   O485    1.280   .     A
C435   C438    1.412   .     S
C436   C438    1.395   .     A
C436   H468    1.084   .     S
C437   C455    1.401   .     A
C437   C456    1.394   .     A
C437   C446    1.410   .     S
C438   C454    1.406   .     A
C439   N480    1.363   .     A
C439   H472    1.082   .     S
C439   C1557   1.422   1_554 S
C440   N479    1.362   .     A
C440   H473    1.078   .     S
C440   C1000   1.421   .     S
C441   N479    1.371   .     A
C441   N483    1.418   .     S
C441   C997    1.422   .     S
C442   N484    1.419   .     S
C442   N480    1.370   .     A
C442   C1556   1.421   1_554 S
C443   H474    1.086   .     S
C443   O494    1.221   .     D
C443   C514    1.497   .     S
C444   O486    1.221   .     D
C445   N481    1.448   .     S
C445   H478    1.109   .     S
C445   H458    1.110   .     S
C446   O487    1.279   .     A
C446   O489    1.281   .     A
C447   N482    1.447   .     S
C447   H462    1.110   .     S
C447   H460    1.111   .     S
C447   H461    1.111   .     S
C448   H465    1.110   .     S
C448   N483    1.447   .     S
C448   H466    1.110   .     S
C448   H1022   1.110   .     S
C449   N484    1.446   .     S
C449   H469    1.111   .     S
C449   H470    1.110   .     S
C449   H1587   1.110   1_554 S
C450   O490    1.284   .     A
C450   O492    1.282   .     A
C450   C452    1.423   .     S
C451   O493    1.296   .     A
C451   C453    1.430   .     S
C451   O491    1.272   .     A
C453   C506    1.487   .     S
C453   C514    1.360   .     S
C454   N481    1.434   .     S
C455   N482    1.426   .     S
C455   C64     1.376   1_565 S
C456   H457    1.083   .     S
C456   C82     1.385   1_565 S
H459   N482    1.032   .     S
H463   N483    1.031   .     S
H464   C1564   1.110   1_554 S
H467   N484    1.031   .     S
H471   C1007   1.110   .     S
H475   C506    1.085   .     S
H476   N481    1.031   .     S
H477   C73     1.110   1_565 S
N479   Zn495   2.011   .     S
N480   Zn496   2.011   .     S
O485   Zn495   1.986   .     S
O487   Zn496   1.986   .     S
O488   Zn496   1.991   .     S
O489   Zn495   1.991   .     S
O490   Zn495   1.973   .     S
O491   Zn496   1.973   .     S
O492   Zn496   1.988   .     S
O493   Zn495   1.988   .     S
C497   O550    1.282   .     A
C497   O547    1.280   .     A
C497   C500    1.412   .     S
C498   C500    1.395   .     A
C498   H530    1.084   .     S
C499   C517    1.401   .     A
C499   C518    1.394   .     A
C499   C508    1.410   .     S
C500   C516    1.406   .     A
C501   N542    1.363   .     A
C501   H534    1.082   .     S
C501   C1619   1.422   1_554 S
C502   N541    1.362   .     A
C502   H535    1.078   .     S
C502   C1062   1.421   .     S
C503   N541    1.371   .     A
C503   N545    1.418   .     S
C503   C1059   1.422   .     S
C504   N546    1.419   .     S
C504   N542    1.370   .     A
C504   C1618   1.421   1_554 S
C505   H536    1.086   .     S
C505   O556    1.221   .     D
C505   C390    1.497   1_655 S
C506   O548    1.221   .     D
C507   N543    1.448   .     S
C507   H540    1.109   .     S
C507   H520    1.110   .     S
C508   O549    1.279   .     A
C508   O551    1.281   .     A
C509   N544    1.447   .     S
C509   H524    1.110   .     S
C509   H522    1.111   .     S
C509   H523    1.111   .     S
C510   H527    1.110   .     S
C510   N545    1.447   .     S
C510   H528    1.110   .     S
C510   H1084   1.110   .     S
C511   N546    1.446   .     S
C511   H531    1.111   .     S
C511   H532    1.110   .     S
C511   H1649   1.110   1_554 S
C512   O552    1.284   .     A
C512   O554    1.282   .     A
C512   C514    1.423   .     S
C513   O555    1.296   .     A
C513   C515    1.430   .     S
C513   O553    1.272   .     A
C515   C382    1.487   1_655 S
C515   C390    1.360   1_655 S
C516   N543    1.434   .     S
C517   N544    1.426   .     S
C517   C126    1.376   1_565 S
C518   H519    1.083   .     S
C518   C144    1.385   1_565 S
H521   N544    1.032   .     S
H525   N545    1.031   .     S
H526   C1626   1.110   1_554 S
H529   N546    1.031   .     S
H533   C1069   1.110   .     S
H537   C382    1.085   1_655 S
H538   N543    1.031   .     S
H539   C135    1.110   1_565 S
N541   Zn557   2.011   .     S
N542   Zn558   2.011   .     S
O547   Zn557   1.986   .     S
O549   Zn558   1.986   .     S
O550   Zn558   1.991   .     S
O551   Zn557   1.991   .     S
O552   Zn557   1.973   .     S
O553   Zn558   1.973   .     S
O554   Zn558   1.988   .     S
O555   Zn557   1.988   .     S
C559   O612    1.282   .     A
C559   O609    1.280   .     A
C559   C562    1.412   .     S
C560   C562    1.395   .     A
C560   H592    1.084   .     S
C560   C951    1.376   1_545 S
C561   C579    1.401   .     A
C561   C580    1.394   .     A
C561   C570    1.410   .     S
C562   C578    1.406   .     A
C563   N604    1.363   .     A
C563   H596    1.082   .     S
C564   N603    1.362   .     A
C564   H597    1.078   .     S
C564   C1124   1.421   .     S
C565   N603    1.371   .     A
C565   N607    1.418   .     S
C565   C1121   1.422   .     S
C566   N608    1.419   .     S
C566   N604    1.370   .     A
C567   H598    1.086   .     S
C567   O618    1.221   .     D
C567   C638    1.497   .     S
C568   O610    1.221   .     D
C568   C701    1.487   1_455 S
C568   H723    1.085   1_455 S
C569   N605    1.448   .     S
C569   H602    1.109   .     S
C569   H582    1.110   .     S
C569   H973    1.110   1_545 S
C570   O611    1.279   .     A
C570   O613    1.281   .     A
C571   N606    1.447   .     S
C571   H586    1.110   .     S
C571   H584    1.111   .     S
C571   H585    1.111   .     S
C572   H589    1.110   .     S
C572   N607    1.447   .     S
C572   H590    1.110   .     S
C572   H1146   1.110   .     S
C573   N608    1.446   .     S
C573   H593    1.111   .     S
C573   H594    1.110   .     S
C574   O614    1.284   .     A
C574   O616    1.282   .     A
C574   C576    1.423   .     S
C575   O617    1.296   .     A
C575   C577    1.430   .     S
C575   O615    1.272   .     A
C576   C691    1.497   1_455 S
C576   C701    1.360   1_455 S
C577   C630    1.487   .     S
C577   C638    1.360   .     S
C578   N605    1.434   .     S
C578   C952    1.385   1_545 S
C579   N606    1.426   .     S
C579   C746    1.376   .     S
C580   H581    1.083   .     S
C580   C764    1.385   .     S
H583   N606    1.032   .     S
H587   N607    1.031   .     S
H591   N608    1.031   .     S
H595   C1131   1.110   .     S
H599   C630    1.085   .     S
H600   N605    1.031   .     S
H601   C755    1.110   .     S
N603   Zn619   2.011   .     S
N604   Zn620   2.011   .     S
O609   Zn619   1.986   .     S
O611   Zn620   1.986   .     S
O612   Zn620   1.991   .     S
O613   Zn619   1.991   .     S
O614   Zn619   1.973   .     S
O615   Zn620   1.973   .     S
O616   Zn620   1.988   .     S
O617   Zn619   1.988   .     S
C621   O674    1.282   .     A
C621   O671    1.280   .     A
C621   C624    1.412   .     S
C622   C624    1.395   .     A
C622   H654    1.084   .     S
C622   C1013   1.376   1_545 S
C623   C641    1.401   .     A
C623   C642    1.394   .     A
C623   C632    1.410   .     S
C624   C640    1.406   .     A
C625   N666    1.363   .     A
C625   H658    1.082   .     S
C626   N665    1.362   .     A
C626   H659    1.078   .     S
C626   C1186   1.421   .     S
C627   N665    1.371   .     A
C627   N669    1.418   .     S
C627   C1183   1.422   .     S
C628   N670    1.419   .     S
C628   N666    1.370   .     A
C629   H660    1.086   .     S
C629   O680    1.221   .     D
C629   C700    1.497   .     S
C630   O672    1.221   .     D
C631   N667    1.448   .     S
C631   H664    1.109   .     S
C631   H644    1.110   .     S
C631   H1035   1.110   1_545 S
C632   O673    1.279   .     A
C632   O675    1.281   .     A
C633   N668    1.447   .     S
C633   H648    1.110   .     S
C633   H646    1.111   .     S
C633   H647    1.111   .     S
C634   H651    1.110   .     S
C634   N669    1.447   .     S
C634   H652    1.110   .     S
C634   H1208   1.110   .     S
C635   N670    1.446   .     S
C635   H655    1.111   .     S
C635   H656    1.110   .     S
C636   O676    1.284   .     A
C636   O678    1.282   .     A
C636   C638    1.423   .     S
C637   O679    1.296   .     A
C637   C639    1.430   .     S
C637   O677    1.272   .     A
C639   C692    1.487   .     S
C639   C700    1.360   .     S
C640   N667    1.434   .     S
C640   C1014   1.385   1_545 S
C641   N668    1.426   .     S
C641   C808    1.376   .     S
C642   H643    1.083   .     S
C642   C826    1.385   .     S
H645   N668    1.032   .     S
H649   N669    1.031   .     S
H653   N670    1.031   .     S
H657   C1193   1.110   .     S
H661   C692    1.085   .     S
H662   N667    1.031   .     S
H663   C817    1.110   .     S
N665   Zn681   2.011   .     S
N666   Zn682   2.011   .     S
O671   Zn681   1.986   .     S
O673   Zn682   1.986   .     S
O674   Zn682   1.991   .     S
O675   Zn681   1.991   .     S
O676   Zn681   1.973   .     S
O677   Zn682   1.973   .     S
O678   Zn682   1.988   .     S
O679   Zn681   1.988   .     S
C683   O736    1.282   .     A
C683   O733    1.280   .     A
C683   C686    1.412   .     S
C684   C686    1.395   .     A
C684   H716    1.084   .     S
C684   C1075   1.376   1_545 S
C685   C703    1.401   .     A
C685   C704    1.394   .     A
C685   C694    1.410   .     S
C686   C702    1.406   .     A
C687   N728    1.363   .     A
C687   H720    1.082   .     S
C688   N727    1.362   .     A
C688   H721    1.078   .     S
C688   C1248   1.421   .     S
C689   N727    1.371   .     A
C689   N731    1.418   .     S
C689   C1245   1.422   .     S
C690   N732    1.419   .     S
C690   N728    1.370   .     A
C691   H722    1.086   .     S
C691   O742    1.221   .     D
C691   C576    1.497   1_655 S
C692   O734    1.221   .     D
C693   N729    1.448   .     S
C693   H726    1.109   .     S
C693   H706    1.110   .     S
C693   H1097   1.110   1_545 S
C694   O735    1.279   .     A
C694   O737    1.281   .     A
C695   N730    1.447   .     S
C695   H710    1.110   .     S
C695   H708    1.111   .     S
C695   H709    1.111   .     S
C696   H713    1.110   .     S
C696   N731    1.447   .     S
C696   H714    1.110   .     S
C696   H1270   1.110   .     S
C697   N732    1.446   .     S
C697   H717    1.111   .     S
C697   H718    1.110   .     S
C698   O738    1.284   .     A
C698   O740    1.282   .     A
C698   C700    1.423   .     S
C699   O741    1.296   .     A
C699   C701    1.430   .     S
C699   O739    1.272   .     A
C701   C568    1.487   1_655 S
C701   C576    1.360   1_655 S
C702   N729    1.434   .     S
C702   C1076   1.385   1_545 S
C703   N730    1.426   .     S
C703   C870    1.376   .     S
C704   H705    1.083   .     S
C704   C888    1.385   .     S
H707   N730    1.032   .     S
H711   N731    1.031   .     S
H715   N732    1.031   .     S
H719   C1255   1.110   .     S
H723   C568    1.085   1_655 S
H724   N729    1.031   .     S
H725   C879    1.110   .     S
N727   Zn743   2.011   .     S
N728   Zn744   2.011   .     S
O733   Zn743   1.986   .     S
O735   Zn744   1.986   .     S
O736   Zn744   1.991   .     S
O737   Zn743   1.991   .     S
O738   Zn743   1.973   .     S
O739   Zn744   1.973   .     S
O740   Zn744   1.988   .     S
O741   Zn743   1.988   .     S
C745   O798    1.282   .     A
C745   O795    1.280   .     A
C745   C748    1.412   .     S
C746   C748    1.395   .     A
C746   H778    1.084   .     S
C747   C765    1.401   .     A
C747   C766    1.394   .     A
C747   C756    1.410   .     S
C748   C764    1.406   .     A
C749   N790    1.363   .     A
C749   H782    1.082   .     S
C750   N789    1.362   .     A
C750   H783    1.078   .     S
C750   C1310   1.421   .     S
C751   N789    1.371   .     A
C751   N793    1.418   .     S
C751   C1307   1.422   .     S
C752   N794    1.419   .     S
C752   N790    1.370   .     A
C753   H784    1.086   .     S
C753   O804    1.221   .     D
C753   C824    1.497   .     S
C754   O796    1.221   .     D
C754   C887    1.487   1_455 S
C754   H909    1.085   1_455 S
C755   N791    1.448   .     S
C755   H788    1.109   .     S
C755   H768    1.110   .     S
C756   O797    1.279   .     A
C756   O799    1.281   .     A
C757   N792    1.447   .     S
C757   H772    1.110   .     S
C757   H770    1.111   .     S
C757   H771    1.111   .     S
C758   H775    1.110   .     S
C758   N793    1.447   .     S
C758   H776    1.110   .     S
C758   H1332   1.110   .     S
C759   N794    1.446   .     S
C759   H779    1.111   .     S
C759   H780    1.110   .     S
C760   O800    1.284   .     A
C760   O802    1.282   .     A
C760   C762    1.423   .     S
C761   O803    1.296   .     A
C761   C763    1.430   .     S
C761   O801    1.272   .     A
C762   C877    1.497   1_455 S
C762   C887    1.360   1_455 S
C763   C816    1.487   .     S
C763   C824    1.360   .     S
C764   N791    1.434   .     S
C765   N792    1.426   .     S
C765   C932    1.376   .     S
C766   H767    1.083   .     S
C766   C950    1.385   .     S
H769   N792    1.032   .     S
H773   N793    1.031   .     S
H777   N794    1.031   .     S
H781   C1317   1.110   .     S
H785   C816    1.085   .     S
H786   N791    1.031   .     S
H787   C941    1.110   .     S
N789   Zn805   2.011   .     S
N790   Zn806   2.011   .     S
O795   Zn805   1.986   .     S
O797   Zn806   1.986   .     S
O798   Zn806   1.991   .     S
O799   Zn805   1.991   .     S
O800   Zn805   1.973   .     S
O801   Zn806   1.973   .     S
O802   Zn806   1.988   .     S
O803   Zn805   1.988   .     S
C807   O860    1.282   .     A
C807   O857    1.280   .     A
C807   C810    1.412   .     S
C808   C810    1.395   .     A
C808   H840    1.084   .     S
C809   C827    1.401   .     A
C809   C828    1.394   .     A
C809   C818    1.410   .     S
C810   C826    1.406   .     A
C811   N852    1.363   .     A
C811   H844    1.082   .     S
C812   N851    1.362   .     A
C812   H845    1.078   .     S
C812   C1372   1.421   .     S
C813   N851    1.371   .     A
C813   N855    1.418   .     S
C813   C1369   1.422   .     S
C814   N856    1.419   .     S
C814   N852    1.370   .     A
C815   H846    1.086   .     S
C815   O866    1.221   .     D
C815   C886    1.497   .     S
C816   O858    1.221   .     D
C817   N853    1.448   .     S
C817   H850    1.109   .     S
C817   H830    1.110   .     S
C818   O859    1.279   .     A
C818   O861    1.281   .     A
C819   N854    1.447   .     S
C819   H834    1.110   .     S
C819   H832    1.111   .     S
C819   H833    1.111   .     S
C820   H837    1.110   .     S
C820   N855    1.447   .     S
C820   H838    1.110   .     S
C820   H1394   1.110   .     S
C821   N856    1.446   .     S
C821   H841    1.111   .     S
C821   H842    1.110   .     S
C822   O862    1.284   .     A
C822   O864    1.282   .     A
C822   C824    1.423   .     S
C823   O865    1.296   .     A
C823   C825    1.430   .     S
C823   O863    1.272   .     A
C825   C878    1.487   .     S
C825   C886    1.360   .     S
C826   N853    1.434   .     S
C827   N854    1.426   .     S
C827   C994    1.376   .     S
C828   H829    1.083   .     S
C828   C1012   1.385   .     S
H831   N854    1.032   .     S
H835   N855    1.031   .     S
H839   N856    1.031   .     S
H843   C1379   1.110   .     S
H847   C878    1.085   .     S
H848   N853    1.031   .     S
H849   C1003   1.110   .     S
N851   Zn867   2.011   .     S
N852   Zn868   2.011   .     S
O857   Zn867   1.986   .     S
O859   Zn868   1.986   .     S
O860   Zn868   1.991   .     S
O861   Zn867   1.991   .     S
O862   Zn867   1.973   .     S
O863   Zn868   1.973   .     S
O864   Zn868   1.988   .     S
O865   Zn867   1.988   .     S
C869   O922    1.282   .     A
C869   O919    1.280   .     A
C869   C872    1.412   .     S
C870   C872    1.395   .     A
C870   H902    1.084   .     S
C871   C889    1.401   .     A
C871   C890    1.394   .     A
C871   C880    1.410   .     S
C872   C888    1.406   .     A
C873   N914    1.363   .     A
C873   H906    1.082   .     S
C874   N913    1.362   .     A
C874   H907    1.078   .     S
C874   C1434   1.421   .     S
C875   N913    1.371   .     A
C875   N917    1.418   .     S
C875   C1431   1.422   .     S
C876   N918    1.419   .     S
C876   N914    1.370   .     A
C877   H908    1.086   .     S
C877   O928    1.221   .     D
C877   C762    1.497   1_655 S
C878   O920    1.221   .     D
C879   N915    1.448   .     S
C879   H912    1.109   .     S
C879   H892    1.110   .     S
C880   O921    1.279   .     A
C880   O923    1.281   .     A
C881   N916    1.447   .     S
C881   H896    1.110   .     S
C881   H894    1.111   .     S
C881   H895    1.111   .     S
C882   H899    1.110   .     S
C882   N917    1.447   .     S
C882   H900    1.110   .     S
C882   H1456   1.110   .     S
C883   N918    1.446   .     S
C883   H903    1.111   .     S
C883   H904    1.110   .     S
C884   O924    1.284   .     A
C884   O926    1.282   .     A
C884   C886    1.423   .     S
C885   O927    1.296   .     A
C885   C887    1.430   .     S
C885   O925    1.272   .     A
C887   C754    1.487   1_655 S
C887   C762    1.360   1_655 S
C888   N915    1.434   .     S
C889   N916    1.426   .     S
C889   C1056   1.376   .     S
C890   H891    1.083   .     S
C890   C1074   1.385   .     S
H893   N916    1.032   .     S
H897   N917    1.031   .     S
H901   N918    1.031   .     S
H905   C1441   1.110   .     S
H909   C754    1.085   1_655 S
H910   N915    1.031   .     S
H911   C1065   1.110   .     S
N913   Zn929   2.011   .     S
N914   Zn930   2.011   .     S
O919   Zn929   1.986   .     S
O921   Zn930   1.986   .     S
O922   Zn930   1.991   .     S
O923   Zn929   1.991   .     S
O924   Zn929   1.973   .     S
O925   Zn930   1.973   .     S
O926   Zn930   1.988   .     S
O927   Zn929   1.988   .     S
C931   O984    1.282   .     A
C931   O981    1.280   .     A
C931   C934    1.412   .     S
C932   C934    1.395   .     A
C932   H964    1.084   .     S
C933   C951    1.401   .     A
C933   C952    1.394   .     A
C933   C942    1.410   .     S
C934   C950    1.406   .     A
C935   N976    1.363   .     A
C935   H968    1.082   .     S
C936   N975    1.362   .     A
C936   H969    1.078   .     S
C936   C1496   1.421   .     S
C937   N975    1.371   .     A
C937   N979    1.418   .     S
C937   C1493   1.422   .     S
C938   N980    1.419   .     S
C938   N976    1.370   .     A
C939   H970    1.086   .     S
C939   O990    1.221   .     D
C939   C1010   1.497   .     S
C940   O982    1.221   .     D
C940   C1073   1.487   1_455 S
C940   H1095   1.085   1_455 S
C941   N977    1.448   .     S
C941   H974    1.109   .     S
C941   H954    1.110   .     S
C942   O983    1.279   .     A
C942   O985    1.281   .     A
C943   N978    1.447   .     S
C943   H958    1.110   .     S
C943   H956    1.111   .     S
C943   H957    1.111   .     S
C944   H961    1.110   .     S
C944   N979    1.447   .     S
C944   H962    1.110   .     S
C944   H1518   1.110   .     S
C945   N980    1.446   .     S
C945   H965    1.111   .     S
C945   H966    1.110   .     S
C946   O986    1.284   .     A
C946   O988    1.282   .     A
C946   C948    1.423   .     S
C947   O989    1.296   .     A
C947   C949    1.430   .     S
C947   O987    1.272   .     A
C948   C1063   1.497   1_455 S
C948   C1073   1.360   1_455 S
C949   C1002   1.487   .     S
C949   C1010   1.360   .     S
C950   N977    1.434   .     S
C951   N978    1.426   .     S
C951   C560    1.376   1_565 S
C952   H953    1.083   .     S
C952   C578    1.385   1_565 S
H955   N978    1.032   .     S
H959   N979    1.031   .     S
H963   N980    1.031   .     S
H967   C1503   1.110   .     S
H971   C1002   1.085   .     S
H972   N977    1.031   .     S
H973   C569    1.110   1_565 S
N975   Zn991   2.011   .     S
N976   Zn992   2.011   .     S
O981   Zn991   1.986   .     S
O983   Zn992   1.986   .     S
O984   Zn992   1.991   .     S
O985   Zn991   1.991   .     S
O986   Zn991   1.973   .     S
O987   Zn992   1.973   .     S
O988   Zn992   1.988   .     S
O989   Zn991   1.988   .     S
C993   O1046   1.282   .     A
C993   O1043   1.280   .     A
C993   C996    1.412   .     S
C994   C996    1.395   .     A
C994   H1026   1.084   .     S
C995   C1013   1.401   .     A
C995   C1014   1.394   .     A
C995   C1004   1.410   .     S
C996   C1012   1.406   .     A
C997   N1038   1.363   .     A
C997   H1030   1.082   .     S
C998   N1037   1.362   .     A
C998   H1031   1.078   .     S
C998   C1558   1.421   .     S
C999   N1037   1.371   .     A
C999   N1041   1.418   .     S
C999   C1555   1.422   .     S
C1000  N1042   1.419   .     S
C1000  N1038   1.370   .     A
C1001  H1032   1.086   .     S
C1001  O1052   1.221   .     D
C1001  C1072   1.497   .     S
C1002  O1044   1.221   .     D
C1003  N1039   1.448   .     S
C1003  H1036   1.109   .     S
C1003  H1016   1.110   .     S
C1004  O1045   1.279   .     A
C1004  O1047   1.281   .     A
C1005  N1040   1.447   .     S
C1005  H1020   1.110   .     S
C1005  H1018   1.111   .     S
C1005  H1019   1.111   .     S
C1006  H1023   1.110   .     S
C1006  N1041   1.447   .     S
C1006  H1024   1.110   .     S
C1006  H1580   1.110   .     S
C1007  N1042   1.446   .     S
C1007  H1027   1.111   .     S
C1007  H1028   1.110   .     S
C1008  O1048   1.284   .     A
C1008  O1050   1.282   .     A
C1008  C1010   1.423   .     S
C1009  O1051   1.296   .     A
C1009  C1011   1.430   .     S
C1009  O1049   1.272   .     A
C1011  C1064   1.487   .     S
C1011  C1072   1.360   .     S
C1012  N1039   1.434   .     S
C1013  N1040   1.426   .     S
C1013  C622    1.376   1_565 S
C1014  H1015   1.083   .     S
C1014  C640    1.385   1_565 S
H1017  N1040   1.032   .     S
H1021  N1041   1.031   .     S
H1025  N1042   1.031   .     S
H1029  C1565   1.110   .     S
H1033  C1064   1.085   .     S
H1034  N1039   1.031   .     S
H1035  C631    1.110   1_565 S
N1037  Zn1053  2.011   .     S
N1038  Zn1054  2.011   .     S
O1043  Zn1053  1.986   .     S
O1045  Zn1054  1.986   .     S
O1046  Zn1054  1.991   .     S
O1047  Zn1053  1.991   .     S
O1048  Zn1053  1.973   .     S
O1049  Zn1054  1.973   .     S
O1050  Zn1054  1.988   .     S
O1051  Zn1053  1.988   .     S
C1055  O1108   1.282   .     A
C1055  O1105   1.280   .     A
C1055  C1058   1.412   .     S
C1056  C1058   1.395   .     A
C1056  H1088   1.084   .     S
C1057  C1075   1.401   .     A
C1057  C1076   1.394   .     A
C1057  C1066   1.410   .     S
C1058  C1074   1.406   .     A
C1059  N1100   1.363   .     A
C1059  H1092   1.082   .     S
C1060  N1099   1.362   .     A
C1060  H1093   1.078   .     S
C1060  C1620   1.421   .     S
C1061  N1099   1.371   .     A
C1061  N1103   1.418   .     S
C1061  C1617   1.422   .     S
C1062  N1104   1.419   .     S
C1062  N1100   1.370   .     A
C1063  H1094   1.086   .     S
C1063  O1114   1.221   .     D
C1063  C948    1.497   1_655 S
C1064  O1106   1.221   .     D
C1065  N1101   1.448   .     S
C1065  H1098   1.109   .     S
C1065  H1078   1.110   .     S
C1066  O1107   1.279   .     A
C1066  O1109   1.281   .     A
C1067  N1102   1.447   .     S
C1067  H1082   1.110   .     S
C1067  H1080   1.111   .     S
C1067  H1081   1.111   .     S
C1068  H1085   1.110   .     S
C1068  N1103   1.447   .     S
C1068  H1086   1.110   .     S
C1068  H1642   1.110   .     S
C1069  N1104   1.446   .     S
C1069  H1089   1.111   .     S
C1069  H1090   1.110   .     S
C1070  O1110   1.284   .     A
C1070  O1112   1.282   .     A
C1070  C1072   1.423   .     S
C1071  O1113   1.296   .     A
C1071  C1073   1.430   .     S
C1071  O1111   1.272   .     A
C1073  C940    1.487   1_655 S
C1073  C948    1.360   1_655 S
C1074  N1101   1.434   .     S
C1075  N1102   1.426   .     S
C1075  C684    1.376   1_565 S
C1076  H1077   1.083   .     S
C1076  C702    1.385   1_565 S
H1079  N1102   1.032   .     S
H1083  N1103   1.031   .     S
H1087  N1104   1.031   .     S
H1091  C1627   1.110   .     S
H1095  C940    1.085   1_655 S
H1096  N1101   1.031   .     S
H1097  C693    1.110   1_565 S
N1099  Zn1115  2.011   .     S
N1100  Zn1116  2.011   .     S
O1105  Zn1115  1.986   .     S
O1107  Zn1116  1.986   .     S
O1108  Zn1116  1.991   .     S
O1109  Zn1115  1.991   .     S
O1110  Zn1115  1.973   .     S
O1111  Zn1116  1.973   .     S
O1112  Zn1116  1.988   .     S
O1113  Zn1115  1.988   .     S
C1117  O1170   1.282   .     A
C1117  O1167   1.280   .     A
C1117  C1120   1.412   .     S
C1118  C1120   1.395   .     A
C1118  H1150   1.084   .     S
C1118  C1509   1.376   1_545 S
C1119  C1137   1.401   .     A
C1119  C1138   1.394   .     A
C1119  C1128   1.410   .     S
C1120  C1136   1.406   .     A
C1121  N1162   1.363   .     A
C1121  H1154   1.082   .     S
C1122  N1161   1.362   .     A
C1122  H1155   1.078   .     S
C1122  C8      1.421   1_556 S
C1123  N1161   1.371   .     A
C1123  N1165   1.418   .     S
C1123  C5      1.422   1_556 S
C1124  N1166   1.419   .     S
C1124  N1162   1.370   .     A
C1125  H1156   1.086   .     S
C1125  O1176   1.221   .     D
C1125  C1196   1.497   .     S
C1126  O1168   1.221   .     D
C1126  C1259   1.487   1_455 S
C1126  H1281   1.085   1_455 S
C1127  N1163   1.448   .     S
C1127  H1160   1.109   .     S
C1127  H1140   1.110   .     S
C1127  H1531   1.110   1_545 S
C1128  O1169   1.279   .     A
C1128  O1171   1.281   .     A
C1129  N1164   1.447   .     S
C1129  H1144   1.110   .     S
C1129  H1142   1.111   .     S
C1129  H1143   1.111   .     S
C1130  H1147   1.110   .     S
C1130  N1165   1.447   .     S
C1130  H1148   1.110   .     S
C1130  H30     1.110   1_556 S
C1131  N1166   1.446   .     S
C1131  H1151   1.111   .     S
C1131  H1152   1.110   .     S
C1132  O1172   1.284   .     A
C1132  O1174   1.282   .     A
C1132  C1134   1.423   .     S
C1133  O1175   1.296   .     A
C1133  C1135   1.430   .     S
C1133  O1173   1.272   .     A
C1134  C1249   1.497   1_455 S
C1134  C1259   1.360   1_455 S
C1135  C1188   1.487   .     S
C1135  C1196   1.360   .     S
C1136  N1163   1.434   .     S
C1136  C1510   1.385   1_545 S
C1137  N1164   1.426   .     S
C1137  C1304   1.376   .     S
C1138  H1139   1.083   .     S
C1138  C1322   1.385   .     S
H1141  N1164   1.032   .     S
H1145  N1165   1.031   .     S
H1149  N1166   1.031   .     S
H1153  C15     1.110   1_556 S
H1157  C1188   1.085   .     S
H1158  N1163   1.031   .     S
H1159  C1313   1.110   .     S
N1161  Zn1177  2.011   .     S
N1162  Zn1178  2.011   .     S
O1167  Zn1177  1.986   .     S
O1169  Zn1178  1.986   .     S
O1170  Zn1178  1.991   .     S
O1171  Zn1177  1.991   .     S
O1172  Zn1177  1.973   .     S
O1173  Zn1178  1.973   .     S
O1174  Zn1178  1.988   .     S
O1175  Zn1177  1.988   .     S
C1179  O1232   1.282   .     A
C1179  O1229   1.280   .     A
C1179  C1182   1.412   .     S
C1180  C1182   1.395   .     A
C1180  H1212   1.084   .     S
C1180  C1571   1.376   1_545 S
C1181  C1199   1.401   .     A
C1181  C1200   1.394   .     A
C1181  C1190   1.410   .     S
C1182  C1198   1.406   .     A
C1183  N1224   1.363   .     A
C1183  H1216   1.082   .     S
C1184  N1223   1.362   .     A
C1184  H1217   1.078   .     S
C1184  C70     1.421   1_556 S
C1185  N1223   1.371   .     A
C1185  N1227   1.418   .     S
C1185  C67     1.422   1_556 S
C1186  N1228   1.419   .     S
C1186  N1224   1.370   .     A
C1187  H1218   1.086   .     S
C1187  O1238   1.221   .     D
C1187  C1258   1.497   .     S
C1188  O1230   1.221   .     D
C1189  N1225   1.448   .     S
C1189  H1222   1.109   .     S
C1189  H1202   1.110   .     S
C1189  H1593   1.110   1_545 S
C1190  O1231   1.279   .     A
C1190  O1233   1.281   .     A
C1191  N1226   1.447   .     S
C1191  H1206   1.110   .     S
C1191  H1204   1.111   .     S
C1191  H1205   1.111   .     S
C1192  H1209   1.110   .     S
C1192  N1227   1.447   .     S
C1192  H1210   1.110   .     S
C1192  H92     1.110   1_556 S
C1193  N1228   1.446   .     S
C1193  H1213   1.111   .     S
C1193  H1214   1.110   .     S
C1194  O1234   1.284   .     A
C1194  O1236   1.282   .     A
C1194  C1196   1.423   .     S
C1195  O1237   1.296   .     A
C1195  C1197   1.430   .     S
C1195  O1235   1.272   .     A
C1197  C1250   1.487   .     S
C1197  C1258   1.360   .     S
C1198  N1225   1.434   .     S
C1198  C1572   1.385   1_545 S
C1199  N1226   1.426   .     S
C1199  C1366   1.376   .     S
C1200  H1201   1.083   .     S
C1200  C1384   1.385   .     S
H1203  N1226   1.032   .     S
H1207  N1227   1.031   .     S
H1211  N1228   1.031   .     S
H1215  C77     1.110   1_556 S
H1219  C1250   1.085   .     S
H1220  N1225   1.031   .     S
H1221  C1375   1.110   .     S
N1223  Zn1239  2.011   .     S
N1224  Zn1240  2.011   .     S
O1229  Zn1239  1.986   .     S
O1231  Zn1240  1.986   .     S
O1232  Zn1240  1.991   .     S
O1233  Zn1239  1.991   .     S
O1234  Zn1239  1.973   .     S
O1235  Zn1240  1.973   .     S
O1236  Zn1240  1.988   .     S
O1237  Zn1239  1.988   .     S
C1241  O1294   1.282   .     A
C1241  O1291   1.280   .     A
C1241  C1244   1.412   .     S
C1242  C1244   1.395   .     A
C1242  H1274   1.084   .     S
C1242  C1633   1.376   1_545 S
C1243  C1261   1.401   .     A
C1243  C1262   1.394   .     A
C1243  C1252   1.410   .     S
C1244  C1260   1.406   .     A
C1245  N1286   1.363   .     A
C1245  H1278   1.082   .     S
C1246  N1285   1.362   .     A
C1246  H1279   1.078   .     S
C1246  C132    1.421   1_556 S
C1247  N1285   1.371   .     A
C1247  N1289   1.418   .     S
C1247  C129    1.422   1_556 S
C1248  N1290   1.419   .     S
C1248  N1286   1.370   .     A
C1249  H1280   1.086   .     S
C1249  O1300   1.221   .     D
C1249  C1134   1.497   1_655 S
C1250  O1292   1.221   .     D
C1251  N1287   1.448   .     S
C1251  H1284   1.109   .     S
C1251  H1264   1.110   .     S
C1251  H1655   1.110   1_545 S
C1252  O1293   1.279   .     A
C1252  O1295   1.281   .     A
C1253  N1288   1.447   .     S
C1253  H1268   1.110   .     S
C1253  H1266   1.111   .     S
C1253  H1267   1.111   .     S
C1254  H1271   1.110   .     S
C1254  N1289   1.447   .     S
C1254  H1272   1.110   .     S
C1254  H154    1.110   1_556 S
C1255  N1290   1.446   .     S
C1255  H1275   1.111   .     S
C1255  H1276   1.110   .     S
C1256  O1296   1.284   .     A
C1256  O1298   1.282   .     A
C1256  C1258   1.423   .     S
C1257  O1299   1.296   .     A
C1257  C1259   1.430   .     S
C1257  O1297   1.272   .     A
C1259  C1126   1.487   1_655 S
C1259  C1134   1.360   1_655 S
C1260  N1287   1.434   .     S
C1260  C1634   1.385   1_545 S
C1261  N1288   1.426   .     S
C1261  C1428   1.376   .     S
C1262  H1263   1.083   .     S
C1262  C1446   1.385   .     S
H1265  N1288   1.032   .     S
H1269  N1289   1.031   .     S
H1273  N1290   1.031   .     S
H1277  C139    1.110   1_556 S
H1281  C1126   1.085   1_655 S
H1282  N1287   1.031   .     S
H1283  C1437   1.110   .     S
N1285  Zn1301  2.011   .     S
N1286  Zn1302  2.011   .     S
O1291  Zn1301  1.986   .     S
O1293  Zn1302  1.986   .     S
O1294  Zn1302  1.991   .     S
O1295  Zn1301  1.991   .     S
O1296  Zn1301  1.973   .     S
O1297  Zn1302  1.973   .     S
O1298  Zn1302  1.988   .     S
O1299  Zn1301  1.988   .     S
C1303  O1356   1.282   .     A
C1303  O1353   1.280   .     A
C1303  C1306   1.412   .     S
C1304  C1306   1.395   .     A
C1304  H1336   1.084   .     S
C1305  C1323   1.401   .     A
C1305  C1324   1.394   .     A
C1305  C1314   1.410   .     S
C1306  C1322   1.406   .     A
C1307  N1348   1.363   .     A
C1307  H1340   1.082   .     S
C1308  N1347   1.362   .     A
C1308  H1341   1.078   .     S
C1308  C194    1.421   1_556 S
C1309  N1347   1.371   .     A
C1309  N1351   1.418   .     S
C1309  C191    1.422   1_556 S
C1310  N1352   1.419   .     S
C1310  N1348   1.370   .     A
C1311  H1342   1.086   .     S
C1311  O1362   1.221   .     D
C1311  C1382   1.497   .     S
C1312  O1354   1.221   .     D
C1312  C1445   1.487   1_455 S
C1312  H1467   1.085   1_455 S
C1313  N1349   1.448   .     S
C1313  H1346   1.109   .     S
C1313  H1326   1.110   .     S
C1314  O1355   1.279   .     A
C1314  O1357   1.281   .     A
C1315  N1350   1.447   .     S
C1315  H1330   1.110   .     S
C1315  H1328   1.111   .     S
C1315  H1329   1.111   .     S
C1316  H1333   1.110   .     S
C1316  N1351   1.447   .     S
C1316  H1334   1.110   .     S
C1316  H216    1.110   1_556 S
C1317  N1352   1.446   .     S
C1317  H1337   1.111   .     S
C1317  H1338   1.110   .     S
C1318  O1358   1.284   .     A
C1318  O1360   1.282   .     A
C1318  C1320   1.423   .     S
C1319  O1361   1.296   .     A
C1319  C1321   1.430   .     S
C1319  O1359   1.272   .     A
C1320  C1435   1.497   1_455 S
C1320  C1445   1.360   1_455 S
C1321  C1374   1.487   .     S
C1321  C1382   1.360   .     S
C1322  N1349   1.434   .     S
C1323  N1350   1.426   .     S
C1323  C1490   1.376   .     S
C1324  H1325   1.083   .     S
C1324  C1508   1.385   .     S
H1327  N1350   1.032   .     S
H1331  N1351   1.031   .     S
H1335  N1352   1.031   .     S
H1339  C201    1.110   1_556 S
H1343  C1374   1.085   .     S
H1344  N1349   1.031   .     S
H1345  C1499   1.110   .     S
N1347  Zn1363  2.011   .     S
N1348  Zn1364  2.011   .     S
O1353  Zn1363  1.986   .     S
O1355  Zn1364  1.986   .     S
O1356  Zn1364  1.991   .     S
O1357  Zn1363  1.991   .     S
O1358  Zn1363  1.973   .     S
O1359  Zn1364  1.973   .     S
O1360  Zn1364  1.988   .     S
O1361  Zn1363  1.988   .     S
C1365  O1418   1.282   .     A
C1365  O1415   1.280   .     A
C1365  C1368   1.412   .     S
C1366  C1368   1.395   .     A
C1366  H1398   1.084   .     S
C1367  C1385   1.401   .     A
C1367  C1386   1.394   .     A
C1367  C1376   1.410   .     S
C1368  C1384   1.406   .     A
C1369  N1410   1.363   .     A
C1369  H1402   1.082   .     S
C1370  N1409   1.362   .     A
C1370  H1403   1.078   .     S
C1370  C256    1.421   1_556 S
C1371  N1409   1.371   .     A
C1371  N1413   1.418   .     S
C1371  C253    1.422   1_556 S
C1372  N1414   1.419   .     S
C1372  N1410   1.370   .     A
C1373  H1404   1.086   .     S
C1373  O1424   1.221   .     D
C1373  C1444   1.497   .     S
C1374  O1416   1.221   .     D
C1375  N1411   1.448   .     S
C1375  H1408   1.109   .     S
C1375  H1388   1.110   .     S
C1376  O1417   1.279   .     A
C1376  O1419   1.281   .     A
C1377  N1412   1.447   .     S
C1377  H1392   1.110   .     S
C1377  H1390   1.111   .     S
C1377  H1391   1.111   .     S
C1378  H1395   1.110   .     S
C1378  N1413   1.447   .     S
C1378  H1396   1.110   .     S
C1378  H278    1.110   1_556 S
C1379  N1414   1.446   .     S
C1379  H1399   1.111   .     S
C1379  H1400   1.110   .     S
C1380  O1420   1.284   .     A
C1380  O1422   1.282   .     A
C1380  C1382   1.423   .     S
C1381  O1423   1.296   .     A
C1381  C1383   1.430   .     S
C1381  O1421   1.272   .     A
C1383  C1436   1.487   .     S
C1383  C1444   1.360   .     S
C1384  N1411   1.434   .     S
C1385  N1412   1.426   .     S
C1385  C1552   1.376   .     S
C1386  H1387   1.083   .     S
C1386  C1570   1.385   .     S
H1389  N1412   1.032   .     S
H1393  N1413   1.031   .     S
H1397  N1414   1.031   .     S
H1401  C263    1.110   1_556 S
H1405  C1436   1.085   .     S
H1406  N1411   1.031   .     S
H1407  C1561   1.110   .     S
N1409  Zn1425  2.011   .     S
N1410  Zn1426  2.011   .     S
O1415  Zn1425  1.986   .     S
O1417  Zn1426  1.986   .     S
O1418  Zn1426  1.991   .     S
O1419  Zn1425  1.991   .     S
O1420  Zn1425  1.973   .     S
O1421  Zn1426  1.973   .     S
O1422  Zn1426  1.988   .     S
O1423  Zn1425  1.988   .     S
C1427  O1480   1.282   .     A
C1427  O1477   1.280   .     A
C1427  C1430   1.412   .     S
C1428  C1430   1.395   .     A
C1428  H1460   1.084   .     S
C1429  C1447   1.401   .     A
C1429  C1448   1.394   .     A
C1429  C1438   1.410   .     S
C1430  C1446   1.406   .     A
C1431  N1472   1.363   .     A
C1431  H1464   1.082   .     S
C1432  N1471   1.362   .     A
C1432  H1465   1.078   .     S
C1432  C318    1.421   1_556 S
C1433  N1471   1.371   .     A
C1433  N1475   1.418   .     S
C1433  C315    1.422   1_556 S
C1434  N1476   1.419   .     S
C1434  N1472   1.370   .     A
C1435  H1466   1.086   .     S
C1435  O1486   1.221   .     D
C1435  C1320   1.497   1_655 S
C1436  O1478   1.221   .     D
C1437  N1473   1.448   .     S
C1437  H1470   1.109   .     S
C1437  H1450   1.110   .     S
C1438  O1479   1.279   .     A
C1438  O1481   1.281   .     A
C1439  N1474   1.447   .     S
C1439  H1454   1.110   .     S
C1439  H1452   1.111   .     S
C1439  H1453   1.111   .     S
C1440  H1457   1.110   .     S
C1440  N1475   1.447   .     S
C1440  H1458   1.110   .     S
C1440  H340    1.110   1_556 S
C1441  N1476   1.446   .     S
C1441  H1461   1.111   .     S
C1441  H1462   1.110   .     S
C1442  O1482   1.284   .     A
C1442  O1484   1.282   .     A
C1442  C1444   1.423   .     S
C1443  O1485   1.296   .     A
C1443  C1445   1.430   .     S
C1443  O1483   1.272   .     A
C1445  C1312   1.487   1_655 S
C1445  C1320   1.360   1_655 S
C1446  N1473   1.434   .     S
C1447  N1474   1.426   .     S
C1447  C1614   1.376   .     S
C1448  H1449   1.083   .     S
C1448  C1632   1.385   .     S
H1451  N1474   1.032   .     S
H1455  N1475   1.031   .     S
H1459  N1476   1.031   .     S
H1463  C325    1.110   1_556 S
H1467  C1312   1.085   1_655 S
H1468  N1473   1.031   .     S
H1469  C1623   1.110   .     S
N1471  Zn1487  2.011   .     S
N1472  Zn1488  2.011   .     S
O1477  Zn1487  1.986   .     S
O1479  Zn1488  1.986   .     S
O1480  Zn1488  1.991   .     S
O1481  Zn1487  1.991   .     S
O1482  Zn1487  1.973   .     S
O1483  Zn1488  1.973   .     S
O1484  Zn1488  1.988   .     S
O1485  Zn1487  1.988   .     S
C1489  O1542   1.282   .     A
C1489  O1539   1.280   .     A
C1489  C1492   1.412   .     S
C1490  C1492   1.395   .     A
C1490  H1522   1.084   .     S
C1491  C1509   1.401   .     A
C1491  C1510   1.394   .     A
C1491  C1500   1.410   .     S
C1492  C1508   1.406   .     A
C1493  N1534   1.363   .     A
C1493  H1526   1.082   .     S
C1494  N1533   1.362   .     A
C1494  H1527   1.078   .     S
C1494  C380    1.421   1_556 S
C1495  N1533   1.371   .     A
C1495  N1537   1.418   .     S
C1495  C377    1.422   1_556 S
C1496  N1538   1.419   .     S
C1496  N1534   1.370   .     A
C1497  H1528   1.086   .     S
C1497  O1548   1.221   .     D
C1497  C1568   1.497   .     S
C1498  O1540   1.221   .     D
C1498  C1631   1.487   1_455 S
C1498  H1653   1.085   1_455 S
C1499  N1535   1.448   .     S
C1499  H1532   1.109   .     S
C1499  H1512   1.110   .     S
C1500  O1541   1.279   .     A
C1500  O1543   1.281   .     A
C1501  N1536   1.447   .     S
C1501  H1516   1.110   .     S
C1501  H1514   1.111   .     S
C1501  H1515   1.111   .     S
C1502  H1519   1.110   .     S
C1502  N1537   1.447   .     S
C1502  H1520   1.110   .     S
C1502  H402    1.110   1_556 S
C1503  N1538   1.446   .     S
C1503  H1523   1.111   .     S
C1503  H1524   1.110   .     S
C1504  O1544   1.284   .     A
C1504  O1546   1.282   .     A
C1504  C1506   1.423   .     S
C1505  O1547   1.296   .     A
C1505  C1507   1.430   .     S
C1505  O1545   1.272   .     A
C1506  C1621   1.497   1_455 S
C1506  C1631   1.360   1_455 S
C1507  C1560   1.487   .     S
C1507  C1568   1.360   .     S
C1508  N1535   1.434   .     S
C1509  N1536   1.426   .     S
C1509  C1118   1.376   1_565 S
C1510  H1511   1.083   .     S
C1510  C1136   1.385   1_565 S
H1513  N1536   1.032   .     S
H1517  N1537   1.031   .     S
H1521  N1538   1.031   .     S
H1525  C387    1.110   1_556 S
H1529  C1560   1.085   .     S
H1530  N1535   1.031   .     S
H1531  C1127   1.110   1_565 S
N1533  Zn1549  2.011   .     S
N1534  Zn1550  2.011   .     S
O1539  Zn1549  1.986   .     S
O1541  Zn1550  1.986   .     S
O1542  Zn1550  1.991   .     S
O1543  Zn1549  1.991   .     S
O1544  Zn1549  1.973   .     S
O1545  Zn1550  1.973   .     S
O1546  Zn1550  1.988   .     S
O1547  Zn1549  1.988   .     S
C1551  O1604   1.282   .     A
C1551  O1601   1.280   .     A
C1551  C1554   1.412   .     S
C1552  C1554   1.395   .     A
C1552  H1584   1.084   .     S
C1553  C1571   1.401   .     A
C1553  C1572   1.394   .     A
C1553  C1562   1.410   .     S
C1554  C1570   1.406   .     A
C1555  N1596   1.363   .     A
C1555  H1588   1.082   .     S
C1556  N1595   1.362   .     A
C1556  H1589   1.078   .     S
C1556  C442    1.421   1_556 S
C1557  N1595   1.371   .     A
C1557  N1599   1.418   .     S
C1557  C439    1.422   1_556 S
C1558  N1600   1.419   .     S
C1558  N1596   1.370   .     A
C1559  H1590   1.086   .     S
C1559  O1610   1.221   .     D
C1559  C1630   1.497   .     S
C1560  O1602   1.221   .     D
C1561  N1597   1.448   .     S
C1561  H1594   1.109   .     S
C1561  H1574   1.110   .     S
C1562  O1603   1.279   .     A
C1562  O1605   1.281   .     A
C1563  N1598   1.447   .     S
C1563  H1578   1.110   .     S
C1563  H1576   1.111   .     S
C1563  H1577   1.111   .     S
C1564  H1581   1.110   .     S
C1564  N1599   1.447   .     S
C1564  H1582   1.110   .     S
C1564  H464    1.110   1_556 S
C1565  N1600   1.446   .     S
C1565  H1585   1.111   .     S
C1565  H1586   1.110   .     S
C1566  O1606   1.284   .     A
C1566  O1608   1.282   .     A
C1566  C1568   1.423   .     S
C1567  O1609   1.296   .     A
C1567  C1569   1.430   .     S
C1567  O1607   1.272   .     A
C1569  C1622   1.487   .     S
C1569  C1630   1.360   .     S
C1570  N1597   1.434   .     S
C1571  N1598   1.426   .     S
C1571  C1180   1.376   1_565 S
C1572  H1573   1.083   .     S
C1572  C1198   1.385   1_565 S
H1575  N1598   1.032   .     S
H1579  N1599   1.031   .     S
H1583  N1600   1.031   .     S
H1587  C449    1.110   1_556 S
H1591  C1622   1.085   .     S
H1592  N1597   1.031   .     S
H1593  C1189   1.110   1_565 S
N1595  Zn1611  2.011   .     S
N1596  Zn1612  2.011   .     S
O1601  Zn1611  1.986   .     S
O1603  Zn1612  1.986   .     S
O1604  Zn1612  1.991   .     S
O1605  Zn1611  1.991   .     S
O1606  Zn1611  1.973   .     S
O1607  Zn1612  1.973   .     S
O1608  Zn1612  1.988   .     S
O1609  Zn1611  1.988   .     S
C1613  O1666   1.282   .     A
C1613  O1663   1.280   .     A
C1613  C1616   1.412   .     S
C1614  C1616   1.395   .     A
C1614  H1646   1.084   .     S
C1615  C1633   1.401   .     A
C1615  C1634   1.394   .     A
C1615  C1624   1.410   .     S
C1616  C1632   1.406   .     A
C1617  N1658   1.363   .     A
C1617  H1650   1.082   .     S
C1618  N1657   1.362   .     A
C1618  H1651   1.078   .     S
C1618  C504    1.421   1_556 S
C1619  N1657   1.371   .     A
C1619  N1661   1.418   .     S
C1619  C501    1.422   1_556 S
C1620  N1662   1.419   .     S
C1620  N1658   1.370   .     A
C1621  H1652   1.086   .     S
C1621  O1672   1.221   .     D
C1621  C1506   1.497   1_655 S
C1622  O1664   1.221   .     D
C1623  N1659   1.448   .     S
C1623  H1656   1.109   .     S
C1623  H1636   1.110   .     S
C1624  O1665   1.279   .     A
C1624  O1667   1.281   .     A
C1625  N1660   1.447   .     S
C1625  H1640   1.110   .     S
C1625  H1638   1.111   .     S
C1625  H1639   1.111   .     S
C1626  H1643   1.110   .     S
C1626  N1661   1.447   .     S
C1626  H1644   1.110   .     S
C1626  H526    1.110   1_556 S
C1627  N1662   1.446   .     S
C1627  H1647   1.111   .     S
C1627  H1648   1.110   .     S
C1628  O1668   1.284   .     A
C1628  O1670   1.282   .     A
C1628  C1630   1.423   .     S
C1629  O1671   1.296   .     A
C1629  C1631   1.430   .     S
C1629  O1669   1.272   .     A
C1631  C1498   1.487   1_655 S
C1631  C1506   1.360   1_655 S
C1632  N1659   1.434   .     S
C1633  N1660   1.426   .     S
C1633  C1242   1.376   1_565 S
C1634  H1635   1.083   .     S
C1634  C1260   1.385   1_565 S
H1637  N1660   1.032   .     S
H1641  N1661   1.031   .     S
H1645  N1662   1.031   .     S
H1649  C511    1.110   1_556 S
H1653  C1498   1.085   1_655 S
H1654  N1659   1.031   .     S
H1655  C1251   1.110   1_565 S
N1657  Zn1673  2.011   .     S
N1658  Zn1674  2.011   .     S
O1663  Zn1673  1.986   .     S
O1665  Zn1674  1.986   .     S
O1666  Zn1674  1.991   .     S
O1667  Zn1673  1.991   .     S
O1668  Zn1673  1.973   .     S
O1669  Zn1674  1.973   .     S
O1670  Zn1674  1.988   .     S
O1671  Zn1673  1.988   .     S
