data_str_m3_o1_o16_pcu_sym.20
_audit_creation_date              2020-01-03
_audit_creation_method            'Materials Studio'
_symmetry_space_group_name_H-M    'P1'
_symmetry_Int_Tables_number       1
_symmetry_cell_setting            triclinic
loop_
_symmetry_equiv_pos_as_xyz
  x,y,z
_cell_length_a                    29.5885
_cell_length_b                    32.0933
_cell_length_c                    26.1821
_cell_angle_alpha                 90.2397
_cell_angle_beta                  70.8912
_cell_angle_gamma                 89.7095
loop_
_atom_site_label
_atom_site_type_symbol
_atom_site_fract_x
_atom_site_fract_y
_atom_site_fract_z
_atom_site_U_iso_or_equiv
_atom_site_adp_type
_atom_site_occupancy
O1     O     0.12846   0.22775   0.25000   0.00000  Uiso   1.00
O2     O     0.20490   0.22774   0.25000   0.00000  Uiso   1.00
C3     C     0.16659   0.24667   0.25009   0.00000  Uiso   1.00
O4     O     0.10947   0.16666   0.32681   0.00000  Uiso   1.00
O5     O     0.18591   0.16665   0.32681   0.00000  Uiso   1.00
C6     C     0.14052   0.17017   0.35187   0.00000  Uiso   1.00
Zn7    Zn    0.11562   0.16667   0.25000   0.00000  Uiso   1.00
Zn8    Zn    0.21771   0.16666   0.25000   0.00000  Uiso   1.00
O9     O     0.12843   0.10559   0.24999   0.00000  Uiso   1.00
O10    O     0.20488   0.10558   0.24999   0.00000  Uiso   1.00
O11    O     0.14742   0.16668   0.17319   0.00000  Uiso   1.00
O12    O     0.22387   0.16667   0.17319   0.00000  Uiso   1.00
C13    C     0.16677   0.08666   0.24986   0.00000  Uiso   1.00
C14    C     0.19262   0.17052   0.14843   0.00000  Uiso   1.00
C15    C     0.26582   0.19462   0.00418   0.00000  Uiso   1.00
H16    H     0.28321   0.17457   0.07387   0.00000  Uiso   1.00
H17    H     0.27389   0.21995   0.40349   0.00000  Uiso   1.00
H18    H     0.30291   0.19688   0.47886   0.00000  Uiso   1.00
C19    C     0.20682   0.18273   0.09186   0.00000  Uiso   1.00
C20    C     0.07869   0.16441   0.44146   0.00000  Uiso   1.00
C21    C     0.06612   0.16243   0.49730   0.00000  Uiso   1.00
C22    C     0.09920   0.17301   0.02249   0.00000  Uiso   1.00
C23    C     0.14451   0.18914   0.49246   0.00000  Uiso   1.00
C24    C     0.15635   0.19344   0.43604   0.00000  Uiso   1.00
C25    C     0.18062   0.19616   0.01588   0.00000  Uiso   1.00
C26    C     0.22870   0.20072   0.48254   0.00000  Uiso   1.00
C27    C     0.23815   0.21153   0.42868   0.00000  Uiso   1.00
C28    C     0.20113   0.21107   0.40686   0.00000  Uiso   1.00
C29    C     0.17099   0.19633   0.07139   0.00000  Uiso   1.00
C30    C     0.25473   0.18253   0.05814   0.00000  Uiso   1.00
C31    C     0.12443   0.17774   0.41032   0.00000  Uiso   1.00
H32    H     0.05363   0.15302   0.42245   0.00000  Uiso   1.00
H33    H     0.08966   0.16625   0.06506   0.00000  Uiso   1.00
H34    H     0.03169   0.15007   0.02085   0.00000  Uiso   1.00
H35    H     0.20875   0.22267   0.36633   0.00000  Uiso   1.00
C36    C     0.20026   0.31186   0.26731   0.00000  Uiso   1.00
H37    H     0.22599   0.29542   0.28138   0.00000  Uiso   1.00
C38    C     0.20048   0.02124   0.26702   0.00000  Uiso   1.00
H39    H     0.22636   0.03753   0.28086   0.00000  Uiso   1.00
C40    C     0.16691   0.04250   0.24969   0.00000  Uiso   1.00
C41    C     0.13327   0.02143   0.23238   0.00000  Uiso   1.00
H42    H     0.10751   0.03787   0.21836   0.00000  Uiso   1.00
C43    C     0.13318   0.31206   0.23248   0.00000  Uiso   1.00
H44    H     0.10753   0.29578   0.21831   0.00000  Uiso   1.00
C45    C     0.16658   0.29081   0.25007   0.00000  Uiso   1.00
C46    C     0.31634   0.13466   0.22676   0.00000  Uiso   1.00
H47    H     0.30384   0.10902   0.20813   0.00000  Uiso   1.00
C48    C     0.03096   0.13476   0.22654   0.00000  Uiso   1.00
H49    H     0.05464   0.10924   0.20767   0.00000  Uiso   1.00
N50    N     0.04760   0.16668   0.25001   0.00000  Uiso   1.00
C51    C     0.01659   0.19889   0.27333   0.00000  Uiso   1.00
C52    C     0.30238   0.19889   0.27237   0.00000  Uiso   1.00
H53    H     0.27863   0.22456   0.29028   0.00000  Uiso   1.00
N54    N     0.28573   0.16665   0.25001   0.00000  Uiso   1.00
N55    N     0.03124   0.23280   0.29971   0.00000  Uiso   1.00
O56    O     0.04388   0.22563   0.34195   0.00000  Uiso   1.00
O57    O     0.02022   0.27076   0.29075   0.00000  Uiso   1.00
Br58   Br    0.11744   0.23003   0.11536   0.00000  Uiso   1.00
O59    O     0.46179   0.22775   0.25000   0.00000  Uiso   1.00
O60    O     0.53823   0.22774   0.25000   0.00000  Uiso   1.00
C61    C     0.49992   0.24667   0.25009   0.00000  Uiso   1.00
O62    O     0.44280   0.16666   0.32681   0.00000  Uiso   1.00
O63    O     0.51924   0.16665   0.32681   0.00000  Uiso   1.00
C64    C     0.47386   0.17017   0.35187   0.00000  Uiso   1.00
Zn65   Zn    0.44896   0.16667   0.25000   0.00000  Uiso   1.00
Zn66   Zn    0.55104   0.16666   0.25000   0.00000  Uiso   1.00
O67    O     0.46177   0.10559   0.24999   0.00000  Uiso   1.00
O68    O     0.53821   0.10558   0.24999   0.00000  Uiso   1.00
O69    O     0.48076   0.16668   0.17319   0.00000  Uiso   1.00
O70    O     0.55720   0.16667   0.17319   0.00000  Uiso   1.00
C71    C     0.50011   0.08666   0.24986   0.00000  Uiso   1.00
C72    C     0.52596   0.17052   0.14843   0.00000  Uiso   1.00
C73    C     0.59916   0.19462   0.00418   0.00000  Uiso   1.00
H74    H     0.61655   0.17457   0.07387   0.00000  Uiso   1.00
H75    H     0.60722   0.21995   0.40349   0.00000  Uiso   1.00
H76    H     0.63625   0.19688   0.47886   0.00000  Uiso   1.00
C77    C     0.54016   0.18273   0.09186   0.00000  Uiso   1.00
C78    C     0.41202   0.16441   0.44146   0.00000  Uiso   1.00
C79    C     0.39945   0.16243   0.49730   0.00000  Uiso   1.00
C80    C     0.43253   0.17301   0.02249   0.00000  Uiso   1.00
C81    C     0.47784   0.18914   0.49246   0.00000  Uiso   1.00
C82    C     0.48968   0.19344   0.43604   0.00000  Uiso   1.00
C83    C     0.51395   0.19616   0.01588   0.00000  Uiso   1.00
C84    C     0.56203   0.20072   0.48254   0.00000  Uiso   1.00
C85    C     0.57148   0.21153   0.42868   0.00000  Uiso   1.00
C86    C     0.53447   0.21107   0.40686   0.00000  Uiso   1.00
C87    C     0.50432   0.19633   0.07139   0.00000  Uiso   1.00
C88    C     0.58806   0.18253   0.05814   0.00000  Uiso   1.00
C89    C     0.45777   0.17774   0.41032   0.00000  Uiso   1.00
H90    H     0.38696   0.15302   0.42245   0.00000  Uiso   1.00
H91    H     0.42300   0.16625   0.06506   0.00000  Uiso   1.00
H92    H     0.36502   0.15007   0.02085   0.00000  Uiso   1.00
H93    H     0.54208   0.22267   0.36633   0.00000  Uiso   1.00
C94    C     0.53359   0.31186   0.26731   0.00000  Uiso   1.00
H95    H     0.55933   0.29542   0.28138   0.00000  Uiso   1.00
C96    C     0.53381   0.02124   0.26702   0.00000  Uiso   1.00
H97    H     0.55969   0.03753   0.28086   0.00000  Uiso   1.00
C98    C     0.50024   0.04250   0.24969   0.00000  Uiso   1.00
C99    C     0.46660   0.02143   0.23238   0.00000  Uiso   1.00
H100   H     0.44084   0.03787   0.21836   0.00000  Uiso   1.00
C101   C     0.46651   0.31206   0.23248   0.00000  Uiso   1.00
H102   H     0.44086   0.29578   0.21831   0.00000  Uiso   1.00
C103   C     0.49991   0.29081   0.25007   0.00000  Uiso   1.00
C104   C     0.64967   0.13466   0.22676   0.00000  Uiso   1.00
H105   H     0.63717   0.10902   0.20813   0.00000  Uiso   1.00
C106   C     0.36430   0.13476   0.22654   0.00000  Uiso   1.00
H107   H     0.38797   0.10924   0.20767   0.00000  Uiso   1.00
N108   N     0.38093   0.16668   0.25001   0.00000  Uiso   1.00
C109   C     0.34992   0.19889   0.27333   0.00000  Uiso   1.00
C110   C     0.63572   0.19889   0.27237   0.00000  Uiso   1.00
H111   H     0.61197   0.22456   0.29028   0.00000  Uiso   1.00
N112   N     0.61906   0.16665   0.25001   0.00000  Uiso   1.00
N113   N     0.36457   0.23280   0.29971   0.00000  Uiso   1.00
O114   O     0.37721   0.22563   0.34195   0.00000  Uiso   1.00
O115   O     0.35355   0.27076   0.29075   0.00000  Uiso   1.00
Br116  Br    0.45077   0.23003   0.11536   0.00000  Uiso   1.00
O117   O     0.79512   0.22775   0.25000   0.00000  Uiso   1.00
O118   O     0.87157   0.22774   0.25000   0.00000  Uiso   1.00
C119   C     0.83325   0.24667   0.25009   0.00000  Uiso   1.00
O120   O     0.77613   0.16666   0.32681   0.00000  Uiso   1.00
O121   O     0.85258   0.16665   0.32681   0.00000  Uiso   1.00
C122   C     0.80719   0.17017   0.35187   0.00000  Uiso   1.00
Zn123  Zn    0.78229   0.16667   0.25000   0.00000  Uiso   1.00
Zn124  Zn    0.88438   0.16666   0.25000   0.00000  Uiso   1.00
O125   O     0.79510   0.10559   0.24999   0.00000  Uiso   1.00
O126   O     0.87154   0.10558   0.24999   0.00000  Uiso   1.00
O127   O     0.81409   0.16668   0.17319   0.00000  Uiso   1.00
O128   O     0.89053   0.16667   0.17319   0.00000  Uiso   1.00
C129   C     0.83344   0.08666   0.24986   0.00000  Uiso   1.00
C130   C     0.85929   0.17052   0.14843   0.00000  Uiso   1.00
C131   C     0.93249   0.19462   0.00418   0.00000  Uiso   1.00
H132   H     0.94988   0.17457   0.07387   0.00000  Uiso   1.00
H133   H     0.94055   0.21995   0.40349   0.00000  Uiso   1.00
H134   H     0.96958   0.19688   0.47886   0.00000  Uiso   1.00
C135   C     0.87349   0.18273   0.09186   0.00000  Uiso   1.00
C136   C     0.74535   0.16441   0.44146   0.00000  Uiso   1.00
C137   C     0.73279   0.16243   0.49730   0.00000  Uiso   1.00
C138   C     0.76587   0.17301   0.02249   0.00000  Uiso   1.00
C139   C     0.81117   0.18914   0.49246   0.00000  Uiso   1.00
C140   C     0.82301   0.19344   0.43604   0.00000  Uiso   1.00
C141   C     0.84728   0.19616   0.01588   0.00000  Uiso   1.00
C142   C     0.89537   0.20072   0.48254   0.00000  Uiso   1.00
C143   C     0.90481   0.21153   0.42868   0.00000  Uiso   1.00
C144   C     0.86780   0.21107   0.40686   0.00000  Uiso   1.00
C145   C     0.83766   0.19633   0.07139   0.00000  Uiso   1.00
C146   C     0.92140   0.18253   0.05814   0.00000  Uiso   1.00
C147   C     0.79110   0.17774   0.41032   0.00000  Uiso   1.00
H148   H     0.72029   0.15302   0.42245   0.00000  Uiso   1.00
H149   H     0.75633   0.16625   0.06506   0.00000  Uiso   1.00
H150   H     0.69835   0.15007   0.02085   0.00000  Uiso   1.00
H151   H     0.87542   0.22267   0.36633   0.00000  Uiso   1.00
C152   C     0.86693   0.31186   0.26731   0.00000  Uiso   1.00
H153   H     0.89266   0.29542   0.28138   0.00000  Uiso   1.00
C154   C     0.86715   0.02124   0.26702   0.00000  Uiso   1.00
H155   H     0.89302   0.03753   0.28086   0.00000  Uiso   1.00
C156   C     0.83357   0.04250   0.24969   0.00000  Uiso   1.00
C157   C     0.79994   0.02143   0.23238   0.00000  Uiso   1.00
H158   H     0.77418   0.03787   0.21836   0.00000  Uiso   1.00
C159   C     0.79984   0.31206   0.23248   0.00000  Uiso   1.00
H160   H     0.77419   0.29578   0.21831   0.00000  Uiso   1.00
C161   C     0.83324   0.29081   0.25007   0.00000  Uiso   1.00
C162   C     0.98300   0.13466   0.22676   0.00000  Uiso   1.00
H163   H     0.97050   0.10902   0.20813   0.00000  Uiso   1.00
C164   C     0.69763   0.13476   0.22654   0.00000  Uiso   1.00
H165   H     0.72131   0.10924   0.20767   0.00000  Uiso   1.00
N166   N     0.71426   0.16668   0.25001   0.00000  Uiso   1.00
C167   C     0.68326   0.19889   0.27333   0.00000  Uiso   1.00
C168   C     0.96905   0.19889   0.27237   0.00000  Uiso   1.00
H169   H     0.94530   0.22456   0.29028   0.00000  Uiso   1.00
N170   N     0.95239   0.16665   0.25001   0.00000  Uiso   1.00
N171   N     0.69791   0.23280   0.29971   0.00000  Uiso   1.00
O172   O     0.71055   0.22563   0.34195   0.00000  Uiso   1.00
O173   O     0.68689   0.27076   0.29075   0.00000  Uiso   1.00
Br174  Br    0.78411   0.23003   0.11536   0.00000  Uiso   1.00
O175   O     0.12846   0.56108   0.25000   0.00000  Uiso   1.00
O176   O     0.20490   0.56107   0.25000   0.00000  Uiso   1.00
C177   C     0.16659   0.58001   0.25009   0.00000  Uiso   1.00
O178   O     0.10947   0.50000   0.32681   0.00000  Uiso   1.00
O179   O     0.18591   0.49999   0.32681   0.00000  Uiso   1.00
C180   C     0.14052   0.50350   0.35187   0.00000  Uiso   1.00
Zn181  Zn    0.11562   0.50001   0.25000   0.00000  Uiso   1.00
Zn182  Zn    0.21771   0.49999   0.25000   0.00000  Uiso   1.00
O183   O     0.12843   0.43893   0.24999   0.00000  Uiso   1.00
O184   O     0.20488   0.43892   0.24999   0.00000  Uiso   1.00
O185   O     0.14742   0.50001   0.17319   0.00000  Uiso   1.00
O186   O     0.22387   0.50000   0.17319   0.00000  Uiso   1.00
C187   C     0.16677   0.41999   0.24986   0.00000  Uiso   1.00
C188   C     0.19262   0.50385   0.14843   0.00000  Uiso   1.00
C189   C     0.26582   0.52795   0.00418   0.00000  Uiso   1.00
H190   H     0.28321   0.50790   0.07387   0.00000  Uiso   1.00
H191   H     0.27389   0.55329   0.40349   0.00000  Uiso   1.00
H192   H     0.30291   0.53021   0.47886   0.00000  Uiso   1.00
C193   C     0.20682   0.51606   0.09186   0.00000  Uiso   1.00
C194   C     0.07869   0.49774   0.44146   0.00000  Uiso   1.00
C195   C     0.06612   0.49576   0.49730   0.00000  Uiso   1.00
C196   C     0.09920   0.50635   0.02249   0.00000  Uiso   1.00
C197   C     0.14451   0.52248   0.49246   0.00000  Uiso   1.00
C198   C     0.15635   0.52677   0.43604   0.00000  Uiso   1.00
C199   C     0.18062   0.52949   0.01588   0.00000  Uiso   1.00
C200   C     0.22870   0.53405   0.48254   0.00000  Uiso   1.00
C201   C     0.23815   0.54487   0.42868   0.00000  Uiso   1.00
C202   C     0.20113   0.54440   0.40686   0.00000  Uiso   1.00
C203   C     0.17099   0.52966   0.07139   0.00000  Uiso   1.00
C204   C     0.25473   0.51586   0.05814   0.00000  Uiso   1.00
C205   C     0.12443   0.51108   0.41032   0.00000  Uiso   1.00
H206   H     0.05363   0.48635   0.42245   0.00000  Uiso   1.00
H207   H     0.08966   0.49958   0.06506   0.00000  Uiso   1.00
H208   H     0.03169   0.48340   0.02085   0.00000  Uiso   1.00
H209   H     0.20875   0.55600   0.36633   0.00000  Uiso   1.00
C210   C     0.20026   0.64520   0.26731   0.00000  Uiso   1.00
H211   H     0.22599   0.62875   0.28138   0.00000  Uiso   1.00
C212   C     0.20048   0.35457   0.26702   0.00000  Uiso   1.00
H213   H     0.22636   0.37086   0.28086   0.00000  Uiso   1.00
C214   C     0.16691   0.37583   0.24969   0.00000  Uiso   1.00
C215   C     0.13327   0.35477   0.23238   0.00000  Uiso   1.00
H216   H     0.10751   0.37120   0.21836   0.00000  Uiso   1.00
C217   C     0.13318   0.64540   0.23248   0.00000  Uiso   1.00
H218   H     0.10753   0.62911   0.21831   0.00000  Uiso   1.00
C219   C     0.16658   0.62415   0.25007   0.00000  Uiso   1.00
C220   C     0.31634   0.46799   0.22676   0.00000  Uiso   1.00
H221   H     0.30384   0.44235   0.20813   0.00000  Uiso   1.00
C222   C     0.03096   0.46809   0.22654   0.00000  Uiso   1.00
H223   H     0.05464   0.44258   0.20767   0.00000  Uiso   1.00
N224   N     0.04760   0.50001   0.25001   0.00000  Uiso   1.00
C225   C     0.01659   0.53223   0.27333   0.00000  Uiso   1.00
C226   C     0.30238   0.53223   0.27237   0.00000  Uiso   1.00
H227   H     0.27863   0.55789   0.29028   0.00000  Uiso   1.00
N228   N     0.28573   0.49998   0.25001   0.00000  Uiso   1.00
N229   N     0.03124   0.56613   0.29971   0.00000  Uiso   1.00
O230   O     0.04388   0.55897   0.34195   0.00000  Uiso   1.00
O231   O     0.02022   0.60409   0.29075   0.00000  Uiso   1.00
Br232  Br    0.11744   0.56336   0.11536   0.00000  Uiso   1.00
O233   O     0.46179   0.56108   0.25000   0.00000  Uiso   1.00
O234   O     0.53823   0.56107   0.25000   0.00000  Uiso   1.00
C235   C     0.49992   0.58001   0.25009   0.00000  Uiso   1.00
O236   O     0.44280   0.50000   0.32681   0.00000  Uiso   1.00
O237   O     0.51924   0.49999   0.32681   0.00000  Uiso   1.00
C238   C     0.47386   0.50350   0.35187   0.00000  Uiso   1.00
Zn239  Zn    0.44896   0.50001   0.25000   0.00000  Uiso   1.00
Zn240  Zn    0.55104   0.49999   0.25000   0.00000  Uiso   1.00
O241   O     0.46177   0.43893   0.24999   0.00000  Uiso   1.00
O242   O     0.53821   0.43892   0.24999   0.00000  Uiso   1.00
O243   O     0.48076   0.50001   0.17319   0.00000  Uiso   1.00
O244   O     0.55720   0.50000   0.17319   0.00000  Uiso   1.00
C245   C     0.50011   0.41999   0.24986   0.00000  Uiso   1.00
C246   C     0.52596   0.50385   0.14843   0.00000  Uiso   1.00
C247   C     0.59916   0.52795   0.00418   0.00000  Uiso   1.00
H248   H     0.61655   0.50790   0.07387   0.00000  Uiso   1.00
H249   H     0.60722   0.55329   0.40349   0.00000  Uiso   1.00
H250   H     0.63625   0.53021   0.47886   0.00000  Uiso   1.00
C251   C     0.54016   0.51606   0.09186   0.00000  Uiso   1.00
C252   C     0.41202   0.49774   0.44146   0.00000  Uiso   1.00
C253   C     0.39945   0.49576   0.49730   0.00000  Uiso   1.00
C254   C     0.43253   0.50635   0.02249   0.00000  Uiso   1.00
C255   C     0.47784   0.52248   0.49246   0.00000  Uiso   1.00
C256   C     0.48968   0.52677   0.43604   0.00000  Uiso   1.00
C257   C     0.51395   0.52949   0.01588   0.00000  Uiso   1.00
C258   C     0.56203   0.53405   0.48254   0.00000  Uiso   1.00
C259   C     0.57148   0.54487   0.42868   0.00000  Uiso   1.00
C260   C     0.53447   0.54440   0.40686   0.00000  Uiso   1.00
C261   C     0.50432   0.52966   0.07139   0.00000  Uiso   1.00
C262   C     0.58806   0.51586   0.05814   0.00000  Uiso   1.00
C263   C     0.45777   0.51108   0.41032   0.00000  Uiso   1.00
H264   H     0.38696   0.48635   0.42245   0.00000  Uiso   1.00
H265   H     0.42300   0.49958   0.06506   0.00000  Uiso   1.00
H266   H     0.36502   0.48340   0.02085   0.00000  Uiso   1.00
H267   H     0.54208   0.55600   0.36633   0.00000  Uiso   1.00
C268   C     0.53359   0.64520   0.26731   0.00000  Uiso   1.00
H269   H     0.55933   0.62875   0.28138   0.00000  Uiso   1.00
C270   C     0.53381   0.35457   0.26702   0.00000  Uiso   1.00
H271   H     0.55969   0.37086   0.28086   0.00000  Uiso   1.00
C272   C     0.50024   0.37583   0.24969   0.00000  Uiso   1.00
C273   C     0.46660   0.35477   0.23238   0.00000  Uiso   1.00
H274   H     0.44084   0.37120   0.21836   0.00000  Uiso   1.00
C275   C     0.46651   0.64540   0.23248   0.00000  Uiso   1.00
H276   H     0.44086   0.62911   0.21831   0.00000  Uiso   1.00
C277   C     0.49991   0.62415   0.25007   0.00000  Uiso   1.00
C278   C     0.64967   0.46799   0.22676   0.00000  Uiso   1.00
H279   H     0.63717   0.44235   0.20813   0.00000  Uiso   1.00
C280   C     0.36430   0.46809   0.22654   0.00000  Uiso   1.00
H281   H     0.38797   0.44258   0.20767   0.00000  Uiso   1.00
N282   N     0.38093   0.50001   0.25001   0.00000  Uiso   1.00
C283   C     0.34992   0.53223   0.27333   0.00000  Uiso   1.00
C284   C     0.63572   0.53223   0.27237   0.00000  Uiso   1.00
H285   H     0.61197   0.55789   0.29028   0.00000  Uiso   1.00
N286   N     0.61906   0.49998   0.25001   0.00000  Uiso   1.00
N287   N     0.36457   0.56613   0.29971   0.00000  Uiso   1.00
O288   O     0.37721   0.55897   0.34195   0.00000  Uiso   1.00
O289   O     0.35355   0.60409   0.29075   0.00000  Uiso   1.00
Br290  Br    0.45077   0.56336   0.11536   0.00000  Uiso   1.00
O291   O     0.79512   0.56108   0.25000   0.00000  Uiso   1.00
O292   O     0.87157   0.56107   0.25000   0.00000  Uiso   1.00
C293   C     0.83325   0.58001   0.25009   0.00000  Uiso   1.00
O294   O     0.77613   0.50000   0.32681   0.00000  Uiso   1.00
O295   O     0.85258   0.49999   0.32681   0.00000  Uiso   1.00
C296   C     0.80719   0.50350   0.35187   0.00000  Uiso   1.00
Zn297  Zn    0.78229   0.50001   0.25000   0.00000  Uiso   1.00
Zn298  Zn    0.88438   0.49999   0.25000   0.00000  Uiso   1.00
O299   O     0.79510   0.43893   0.24999   0.00000  Uiso   1.00
O300   O     0.87154   0.43892   0.24999   0.00000  Uiso   1.00
O301   O     0.81409   0.50001   0.17319   0.00000  Uiso   1.00
O302   O     0.89053   0.50000   0.17319   0.00000  Uiso   1.00
C303   C     0.83344   0.41999   0.24986   0.00000  Uiso   1.00
C304   C     0.85929   0.50385   0.14843   0.00000  Uiso   1.00
C305   C     0.93249   0.52795   0.00418   0.00000  Uiso   1.00
H306   H     0.94988   0.50790   0.07387   0.00000  Uiso   1.00
H307   H     0.94055   0.55329   0.40349   0.00000  Uiso   1.00
H308   H     0.96958   0.53021   0.47886   0.00000  Uiso   1.00
C309   C     0.87349   0.51606   0.09186   0.00000  Uiso   1.00
C310   C     0.74535   0.49774   0.44146   0.00000  Uiso   1.00
C311   C     0.73279   0.49576   0.49730   0.00000  Uiso   1.00
C312   C     0.76587   0.50635   0.02249   0.00000  Uiso   1.00
C313   C     0.81117   0.52248   0.49246   0.00000  Uiso   1.00
C314   C     0.82301   0.52677   0.43604   0.00000  Uiso   1.00
C315   C     0.84728   0.52949   0.01588   0.00000  Uiso   1.00
C316   C     0.89537   0.53405   0.48254   0.00000  Uiso   1.00
C317   C     0.90481   0.54487   0.42868   0.00000  Uiso   1.00
C318   C     0.86780   0.54440   0.40686   0.00000  Uiso   1.00
C319   C     0.83766   0.52966   0.07139   0.00000  Uiso   1.00
C320   C     0.92140   0.51586   0.05814   0.00000  Uiso   1.00
C321   C     0.79110   0.51108   0.41032   0.00000  Uiso   1.00
H322   H     0.72029   0.48635   0.42245   0.00000  Uiso   1.00
H323   H     0.75633   0.49958   0.06506   0.00000  Uiso   1.00
H324   H     0.69835   0.48340   0.02085   0.00000  Uiso   1.00
H325   H     0.87542   0.55600   0.36633   0.00000  Uiso   1.00
C326   C     0.86693   0.64520   0.26731   0.00000  Uiso   1.00
H327   H     0.89266   0.62875   0.28138   0.00000  Uiso   1.00
C328   C     0.86715   0.35457   0.26702   0.00000  Uiso   1.00
H329   H     0.89302   0.37086   0.28086   0.00000  Uiso   1.00
C330   C     0.83357   0.37583   0.24969   0.00000  Uiso   1.00
C331   C     0.79994   0.35477   0.23238   0.00000  Uiso   1.00
H332   H     0.77418   0.37120   0.21836   0.00000  Uiso   1.00
C333   C     0.79984   0.64540   0.23248   0.00000  Uiso   1.00
H334   H     0.77419   0.62911   0.21831   0.00000  Uiso   1.00
C335   C     0.83324   0.62415   0.25007   0.00000  Uiso   1.00
C336   C     0.98300   0.46799   0.22676   0.00000  Uiso   1.00
H337   H     0.97050   0.44235   0.20813   0.00000  Uiso   1.00
C338   C     0.69763   0.46809   0.22654   0.00000  Uiso   1.00
H339   H     0.72131   0.44258   0.20767   0.00000  Uiso   1.00
N340   N     0.71426   0.50001   0.25001   0.00000  Uiso   1.00
C341   C     0.68326   0.53223   0.27333   0.00000  Uiso   1.00
C342   C     0.96905   0.53223   0.27237   0.00000  Uiso   1.00
H343   H     0.94530   0.55789   0.29028   0.00000  Uiso   1.00
N344   N     0.95239   0.49998   0.25001   0.00000  Uiso   1.00
N345   N     0.69791   0.56613   0.29971   0.00000  Uiso   1.00
O346   O     0.71055   0.55897   0.34195   0.00000  Uiso   1.00
O347   O     0.68689   0.60409   0.29075   0.00000  Uiso   1.00
Br348  Br    0.78411   0.56336   0.11536   0.00000  Uiso   1.00
O349   O     0.12846   0.89442   0.25000   0.00000  Uiso   1.00
O350   O     0.20490   0.89441   0.25000   0.00000  Uiso   1.00
C351   C     0.16659   0.91334   0.25009   0.00000  Uiso   1.00
O352   O     0.10947   0.83333   0.32681   0.00000  Uiso   1.00
O353   O     0.18591   0.83332   0.32681   0.00000  Uiso   1.00
C354   C     0.14052   0.83683   0.35187   0.00000  Uiso   1.00
Zn355  Zn    0.11562   0.83334   0.25000   0.00000  Uiso   1.00
Zn356  Zn    0.21771   0.83333   0.25000   0.00000  Uiso   1.00
O357   O     0.12843   0.77226   0.24999   0.00000  Uiso   1.00
O358   O     0.20488   0.77225   0.24999   0.00000  Uiso   1.00
O359   O     0.14742   0.83335   0.17319   0.00000  Uiso   1.00
O360   O     0.22387   0.83334   0.17319   0.00000  Uiso   1.00
C361   C     0.16677   0.75332   0.24986   0.00000  Uiso   1.00
C362   C     0.19262   0.83718   0.14843   0.00000  Uiso   1.00
C363   C     0.26582   0.86128   0.00418   0.00000  Uiso   1.00
H364   H     0.28321   0.84123   0.07387   0.00000  Uiso   1.00
H365   H     0.27389   0.88662   0.40349   0.00000  Uiso   1.00
H366   H     0.30291   0.86354   0.47886   0.00000  Uiso   1.00
C367   C     0.20682   0.84940   0.09186   0.00000  Uiso   1.00
C368   C     0.07869   0.83107   0.44146   0.00000  Uiso   1.00
C369   C     0.06612   0.82909   0.49730   0.00000  Uiso   1.00
C370   C     0.09920   0.83968   0.02249   0.00000  Uiso   1.00
C371   C     0.14451   0.85581   0.49246   0.00000  Uiso   1.00
C372   C     0.15635   0.86011   0.43604   0.00000  Uiso   1.00
C373   C     0.18062   0.86283   0.01588   0.00000  Uiso   1.00
C374   C     0.22870   0.86739   0.48254   0.00000  Uiso   1.00
C375   C     0.23815   0.87820   0.42868   0.00000  Uiso   1.00
C376   C     0.20113   0.87773   0.40686   0.00000  Uiso   1.00
C377   C     0.17099   0.86299   0.07139   0.00000  Uiso   1.00
C378   C     0.25473   0.84920   0.05814   0.00000  Uiso   1.00
C379   C     0.12443   0.84441   0.41032   0.00000  Uiso   1.00
H380   H     0.05363   0.81968   0.42245   0.00000  Uiso   1.00
H381   H     0.08966   0.83291   0.06506   0.00000  Uiso   1.00
H382   H     0.03169   0.81674   0.02085   0.00000  Uiso   1.00
H383   H     0.20875   0.88934   0.36633   0.00000  Uiso   1.00
C384   C     0.20026   0.97853   0.26731   0.00000  Uiso   1.00
H385   H     0.22599   0.96209   0.28138   0.00000  Uiso   1.00
C386   C     0.20048   0.68790   0.26702   0.00000  Uiso   1.00
H387   H     0.22636   0.70419   0.28086   0.00000  Uiso   1.00
C388   C     0.16691   0.70916   0.24969   0.00000  Uiso   1.00
C389   C     0.13327   0.68810   0.23238   0.00000  Uiso   1.00
H390   H     0.10751   0.70453   0.21836   0.00000  Uiso   1.00
C391   C     0.13318   0.97873   0.23248   0.00000  Uiso   1.00
H392   H     0.10753   0.96245   0.21831   0.00000  Uiso   1.00
C393   C     0.16658   0.95748   0.25007   0.00000  Uiso   1.00
C394   C     0.31634   0.80132   0.22676   0.00000  Uiso   1.00
H395   H     0.30384   0.77568   0.20813   0.00000  Uiso   1.00
C396   C     0.03096   0.80143   0.22654   0.00000  Uiso   1.00
H397   H     0.05464   0.77591   0.20767   0.00000  Uiso   1.00
N398   N     0.04760   0.83334   0.25001   0.00000  Uiso   1.00
C399   C     0.01659   0.86556   0.27333   0.00000  Uiso   1.00
C400   C     0.30238   0.86556   0.27237   0.00000  Uiso   1.00
H401   H     0.27863   0.89123   0.29028   0.00000  Uiso   1.00
N402   N     0.28573   0.83331   0.25001   0.00000  Uiso   1.00
N403   N     0.03124   0.89947   0.29971   0.00000  Uiso   1.00
O404   O     0.04388   0.89230   0.34195   0.00000  Uiso   1.00
O405   O     0.02022   0.93742   0.29075   0.00000  Uiso   1.00
Br406  Br    0.11744   0.89669   0.11536   0.00000  Uiso   1.00
O407   O     0.46179   0.89442   0.25000   0.00000  Uiso   1.00
O408   O     0.53823   0.89441   0.25000   0.00000  Uiso   1.00
C409   C     0.49992   0.91334   0.25009   0.00000  Uiso   1.00
O410   O     0.44280   0.83333   0.32681   0.00000  Uiso   1.00
O411   O     0.51924   0.83332   0.32681   0.00000  Uiso   1.00
C412   C     0.47386   0.83683   0.35187   0.00000  Uiso   1.00
Zn413  Zn    0.44896   0.83334   0.25000   0.00000  Uiso   1.00
Zn414  Zn    0.55104   0.83333   0.25000   0.00000  Uiso   1.00
O415   O     0.46177   0.77226   0.24999   0.00000  Uiso   1.00
O416   O     0.53821   0.77225   0.24999   0.00000  Uiso   1.00
O417   O     0.48076   0.83335   0.17319   0.00000  Uiso   1.00
O418   O     0.55720   0.83334   0.17319   0.00000  Uiso   1.00
C419   C     0.50011   0.75332   0.24986   0.00000  Uiso   1.00
C420   C     0.52596   0.83718   0.14843   0.00000  Uiso   1.00
C421   C     0.59916   0.86128   0.00418   0.00000  Uiso   1.00
H422   H     0.61655   0.84123   0.07387   0.00000  Uiso   1.00
H423   H     0.60722   0.88662   0.40349   0.00000  Uiso   1.00
H424   H     0.63625   0.86354   0.47886   0.00000  Uiso   1.00
C425   C     0.54016   0.84940   0.09186   0.00000  Uiso   1.00
C426   C     0.41202   0.83107   0.44146   0.00000  Uiso   1.00
C427   C     0.39945   0.82909   0.49730   0.00000  Uiso   1.00
C428   C     0.43253   0.83968   0.02249   0.00000  Uiso   1.00
C429   C     0.47784   0.85581   0.49246   0.00000  Uiso   1.00
C430   C     0.48968   0.86011   0.43604   0.00000  Uiso   1.00
C431   C     0.51395   0.86283   0.01588   0.00000  Uiso   1.00
C432   C     0.56203   0.86739   0.48254   0.00000  Uiso   1.00
C433   C     0.57148   0.87820   0.42868   0.00000  Uiso   1.00
C434   C     0.53447   0.87773   0.40686   0.00000  Uiso   1.00
C435   C     0.50432   0.86299   0.07139   0.00000  Uiso   1.00
C436   C     0.58806   0.84920   0.05814   0.00000  Uiso   1.00
C437   C     0.45777   0.84441   0.41032   0.00000  Uiso   1.00
H438   H     0.38696   0.81968   0.42245   0.00000  Uiso   1.00
H439   H     0.42300   0.83291   0.06506   0.00000  Uiso   1.00
H440   H     0.36502   0.81674   0.02085   0.00000  Uiso   1.00
H441   H     0.54208   0.88934   0.36633   0.00000  Uiso   1.00
C442   C     0.53359   0.97853   0.26731   0.00000  Uiso   1.00
H443   H     0.55933   0.96209   0.28138   0.00000  Uiso   1.00
C444   C     0.53381   0.68790   0.26702   0.00000  Uiso   1.00
H445   H     0.55969   0.70419   0.28086   0.00000  Uiso   1.00
C446   C     0.50024   0.70916   0.24969   0.00000  Uiso   1.00
C447   C     0.46660   0.68810   0.23238   0.00000  Uiso   1.00
H448   H     0.44084   0.70453   0.21836   0.00000  Uiso   1.00
C449   C     0.46651   0.97873   0.23248   0.00000  Uiso   1.00
H450   H     0.44086   0.96245   0.21831   0.00000  Uiso   1.00
C451   C     0.49991   0.95748   0.25007   0.00000  Uiso   1.00
C452   C     0.64967   0.80132   0.22676   0.00000  Uiso   1.00
H453   H     0.63717   0.77568   0.20813   0.00000  Uiso   1.00
C454   C     0.36430   0.80143   0.22654   0.00000  Uiso   1.00
H455   H     0.38797   0.77591   0.20767   0.00000  Uiso   1.00
N456   N     0.38093   0.83334   0.25001   0.00000  Uiso   1.00
C457   C     0.34992   0.86556   0.27333   0.00000  Uiso   1.00
C458   C     0.63572   0.86556   0.27237   0.00000  Uiso   1.00
H459   H     0.61197   0.89123   0.29028   0.00000  Uiso   1.00
N460   N     0.61906   0.83331   0.25001   0.00000  Uiso   1.00
N461   N     0.36457   0.89947   0.29971   0.00000  Uiso   1.00
O462   O     0.37721   0.89230   0.34195   0.00000  Uiso   1.00
O463   O     0.35355   0.93742   0.29075   0.00000  Uiso   1.00
Br464  Br    0.45077   0.89669   0.11536   0.00000  Uiso   1.00
O465   O     0.79512   0.89442   0.25000   0.00000  Uiso   1.00
O466   O     0.87157   0.89441   0.25000   0.00000  Uiso   1.00
C467   C     0.83325   0.91334   0.25009   0.00000  Uiso   1.00
O468   O     0.77613   0.83333   0.32681   0.00000  Uiso   1.00
O469   O     0.85258   0.83332   0.32681   0.00000  Uiso   1.00
C470   C     0.80719   0.83683   0.35187   0.00000  Uiso   1.00
Zn471  Zn    0.78229   0.83334   0.25000   0.00000  Uiso   1.00
Zn472  Zn    0.88438   0.83333   0.25000   0.00000  Uiso   1.00
O473   O     0.79510   0.77226   0.24999   0.00000  Uiso   1.00
O474   O     0.87154   0.77225   0.24999   0.00000  Uiso   1.00
O475   O     0.81409   0.83335   0.17319   0.00000  Uiso   1.00
O476   O     0.89053   0.83334   0.17319   0.00000  Uiso   1.00
C477   C     0.83344   0.75332   0.24986   0.00000  Uiso   1.00
C478   C     0.85929   0.83718   0.14843   0.00000  Uiso   1.00
C479   C     0.93249   0.86128   0.00418   0.00000  Uiso   1.00
H480   H     0.94988   0.84123   0.07387   0.00000  Uiso   1.00
H481   H     0.94055   0.88662   0.40349   0.00000  Uiso   1.00
H482   H     0.96958   0.86354   0.47886   0.00000  Uiso   1.00
C483   C     0.87349   0.84940   0.09186   0.00000  Uiso   1.00
C484   C     0.74535   0.83107   0.44146   0.00000  Uiso   1.00
C485   C     0.73279   0.82909   0.49730   0.00000  Uiso   1.00
C486   C     0.76587   0.83968   0.02249   0.00000  Uiso   1.00
C487   C     0.81117   0.85581   0.49246   0.00000  Uiso   1.00
C488   C     0.82301   0.86011   0.43604   0.00000  Uiso   1.00
C489   C     0.84728   0.86283   0.01588   0.00000  Uiso   1.00
C490   C     0.89537   0.86739   0.48254   0.00000  Uiso   1.00
C491   C     0.90481   0.87820   0.42868   0.00000  Uiso   1.00
C492   C     0.86780   0.87773   0.40686   0.00000  Uiso   1.00
C493   C     0.83766   0.86299   0.07139   0.00000  Uiso   1.00
C494   C     0.92140   0.84920   0.05814   0.00000  Uiso   1.00
C495   C     0.79110   0.84441   0.41032   0.00000  Uiso   1.00
H496   H     0.72029   0.81968   0.42245   0.00000  Uiso   1.00
H497   H     0.75633   0.83291   0.06506   0.00000  Uiso   1.00
H498   H     0.69835   0.81674   0.02085   0.00000  Uiso   1.00
H499   H     0.87542   0.88934   0.36633   0.00000  Uiso   1.00
C500   C     0.86693   0.97853   0.26731   0.00000  Uiso   1.00
H501   H     0.89266   0.96209   0.28138   0.00000  Uiso   1.00
C502   C     0.86715   0.68790   0.26702   0.00000  Uiso   1.00
H503   H     0.89302   0.70419   0.28086   0.00000  Uiso   1.00
C504   C     0.83357   0.70916   0.24969   0.00000  Uiso   1.00
C505   C     0.79994   0.68810   0.23238   0.00000  Uiso   1.00
H506   H     0.77418   0.70453   0.21836   0.00000  Uiso   1.00
C507   C     0.79984   0.97873   0.23248   0.00000  Uiso   1.00
H508   H     0.77419   0.96245   0.21831   0.00000  Uiso   1.00
C509   C     0.83324   0.95748   0.25007   0.00000  Uiso   1.00
C510   C     0.98300   0.80132   0.22676   0.00000  Uiso   1.00
H511   H     0.97050   0.77568   0.20813   0.00000  Uiso   1.00
C512   C     0.69763   0.80143   0.22654   0.00000  Uiso   1.00
H513   H     0.72131   0.77591   0.20767   0.00000  Uiso   1.00
N514   N     0.71426   0.83334   0.25001   0.00000  Uiso   1.00
C515   C     0.68326   0.86556   0.27333   0.00000  Uiso   1.00
C516   C     0.96905   0.86556   0.27237   0.00000  Uiso   1.00
H517   H     0.94530   0.89123   0.29028   0.00000  Uiso   1.00
N518   N     0.95239   0.83331   0.25001   0.00000  Uiso   1.00
N519   N     0.69791   0.89947   0.29971   0.00000  Uiso   1.00
O520   O     0.71055   0.89230   0.34195   0.00000  Uiso   1.00
O521   O     0.68689   0.93742   0.29075   0.00000  Uiso   1.00
Br522  Br    0.78411   0.89669   0.11536   0.00000  Uiso   1.00
O523   O     0.12846   0.22775   0.75000   0.00000  Uiso   1.00
O524   O     0.20490   0.22774   0.75000   0.00000  Uiso   1.00
C525   C     0.16659   0.24667   0.75009   0.00000  Uiso   1.00
O526   O     0.10947   0.16666   0.82681   0.00000  Uiso   1.00
O527   O     0.18591   0.16665   0.82681   0.00000  Uiso   1.00
C528   C     0.14052   0.17017   0.85187   0.00000  Uiso   1.00
Zn529  Zn    0.11562   0.16667   0.75000   0.00000  Uiso   1.00
Zn530  Zn    0.21771   0.16666   0.75000   0.00000  Uiso   1.00
O531   O     0.12843   0.10559   0.74999   0.00000  Uiso   1.00
O532   O     0.20488   0.10558   0.74999   0.00000  Uiso   1.00
O533   O     0.14742   0.16668   0.67319   0.00000  Uiso   1.00
O534   O     0.22387   0.16667   0.67319   0.00000  Uiso   1.00
C535   C     0.16677   0.08666   0.74986   0.00000  Uiso   1.00
C536   C     0.19262   0.17052   0.64843   0.00000  Uiso   1.00
C537   C     0.26582   0.19462   0.50418   0.00000  Uiso   1.00
H538   H     0.28321   0.17457   0.57387   0.00000  Uiso   1.00
H539   H     0.27389   0.21995   0.90349   0.00000  Uiso   1.00
H540   H     0.30291   0.19688   0.97886   0.00000  Uiso   1.00
C541   C     0.20682   0.18273   0.59186   0.00000  Uiso   1.00
C542   C     0.07869   0.16441   0.94146   0.00000  Uiso   1.00
C543   C     0.06612   0.16243   0.99730   0.00000  Uiso   1.00
C544   C     0.09920   0.17301   0.52249   0.00000  Uiso   1.00
C545   C     0.14451   0.18914   0.99246   0.00000  Uiso   1.00
C546   C     0.15635   0.19344   0.93604   0.00000  Uiso   1.00
C547   C     0.18062   0.19616   0.51588   0.00000  Uiso   1.00
C548   C     0.22870   0.20072   0.98254   0.00000  Uiso   1.00
C549   C     0.23815   0.21153   0.92868   0.00000  Uiso   1.00
C550   C     0.20113   0.21107   0.90686   0.00000  Uiso   1.00
C551   C     0.17099   0.19633   0.57139   0.00000  Uiso   1.00
C552   C     0.25473   0.18253   0.55814   0.00000  Uiso   1.00
C553   C     0.12443   0.17774   0.91032   0.00000  Uiso   1.00
H554   H     0.05363   0.15302   0.92245   0.00000  Uiso   1.00
H555   H     0.08966   0.16625   0.56506   0.00000  Uiso   1.00
H556   H     0.03169   0.15007   0.52085   0.00000  Uiso   1.00
H557   H     0.20875   0.22267   0.86633   0.00000  Uiso   1.00
C558   C     0.20026   0.31186   0.76731   0.00000  Uiso   1.00
H559   H     0.22599   0.29542   0.78138   0.00000  Uiso   1.00
C560   C     0.20048   0.02124   0.76702   0.00000  Uiso   1.00
H561   H     0.22636   0.03753   0.78086   0.00000  Uiso   1.00
C562   C     0.16691   0.04250   0.74969   0.00000  Uiso   1.00
C563   C     0.13327   0.02143   0.73238   0.00000  Uiso   1.00
H564   H     0.10751   0.03787   0.71836   0.00000  Uiso   1.00
C565   C     0.13318   0.31206   0.73248   0.00000  Uiso   1.00
H566   H     0.10753   0.29578   0.71831   0.00000  Uiso   1.00
C567   C     0.16658   0.29081   0.75007   0.00000  Uiso   1.00
C568   C     0.31634   0.13466   0.72676   0.00000  Uiso   1.00
H569   H     0.30384   0.10902   0.70813   0.00000  Uiso   1.00
C570   C     0.03096   0.13476   0.72654   0.00000  Uiso   1.00
H571   H     0.05464   0.10924   0.70767   0.00000  Uiso   1.00
N572   N     0.04760   0.16668   0.75001   0.00000  Uiso   1.00
C573   C     0.01659   0.19889   0.77333   0.00000  Uiso   1.00
C574   C     0.30238   0.19889   0.77237   0.00000  Uiso   1.00
H575   H     0.27863   0.22456   0.79028   0.00000  Uiso   1.00
N576   N     0.28573   0.16665   0.75001   0.00000  Uiso   1.00
N577   N     0.03124   0.23280   0.79971   0.00000  Uiso   1.00
O578   O     0.04388   0.22563   0.84195   0.00000  Uiso   1.00
O579   O     0.02022   0.27076   0.79075   0.00000  Uiso   1.00
Br580  Br    0.11744   0.23003   0.61536   0.00000  Uiso   1.00
O581   O     0.46179   0.22775   0.75000   0.00000  Uiso   1.00
O582   O     0.53823   0.22774   0.75000   0.00000  Uiso   1.00
C583   C     0.49992   0.24667   0.75009   0.00000  Uiso   1.00
O584   O     0.44280   0.16666   0.82681   0.00000  Uiso   1.00
O585   O     0.51924   0.16665   0.82681   0.00000  Uiso   1.00
C586   C     0.47386   0.17017   0.85187   0.00000  Uiso   1.00
Zn587  Zn    0.44896   0.16667   0.75000   0.00000  Uiso   1.00
Zn588  Zn    0.55104   0.16666   0.75000   0.00000  Uiso   1.00
O589   O     0.46177   0.10559   0.74999   0.00000  Uiso   1.00
O590   O     0.53821   0.10558   0.74999   0.00000  Uiso   1.00
O591   O     0.48076   0.16668   0.67319   0.00000  Uiso   1.00
O592   O     0.55720   0.16667   0.67319   0.00000  Uiso   1.00
C593   C     0.50011   0.08666   0.74986   0.00000  Uiso   1.00
C594   C     0.52596   0.17052   0.64843   0.00000  Uiso   1.00
C595   C     0.59916   0.19462   0.50418   0.00000  Uiso   1.00
H596   H     0.61655   0.17457   0.57387   0.00000  Uiso   1.00
H597   H     0.60722   0.21995   0.90349   0.00000  Uiso   1.00
H598   H     0.63625   0.19688   0.97886   0.00000  Uiso   1.00
C599   C     0.54016   0.18273   0.59186   0.00000  Uiso   1.00
C600   C     0.41202   0.16441   0.94146   0.00000  Uiso   1.00
C601   C     0.39945   0.16243   0.99730   0.00000  Uiso   1.00
C602   C     0.43253   0.17301   0.52249   0.00000  Uiso   1.00
C603   C     0.47784   0.18914   0.99246   0.00000  Uiso   1.00
C604   C     0.48968   0.19344   0.93604   0.00000  Uiso   1.00
C605   C     0.51395   0.19616   0.51588   0.00000  Uiso   1.00
C606   C     0.56203   0.20072   0.98254   0.00000  Uiso   1.00
C607   C     0.57148   0.21153   0.92868   0.00000  Uiso   1.00
C608   C     0.53447   0.21107   0.90686   0.00000  Uiso   1.00
C609   C     0.50432   0.19633   0.57139   0.00000  Uiso   1.00
C610   C     0.58806   0.18253   0.55814   0.00000  Uiso   1.00
C611   C     0.45777   0.17774   0.91032   0.00000  Uiso   1.00
H612   H     0.38696   0.15302   0.92245   0.00000  Uiso   1.00
H613   H     0.42300   0.16625   0.56506   0.00000  Uiso   1.00
H614   H     0.36502   0.15007   0.52085   0.00000  Uiso   1.00
H615   H     0.54208   0.22267   0.86633   0.00000  Uiso   1.00
C616   C     0.53359   0.31186   0.76731   0.00000  Uiso   1.00
H617   H     0.55933   0.29542   0.78138   0.00000  Uiso   1.00
C618   C     0.53381   0.02124   0.76702   0.00000  Uiso   1.00
H619   H     0.55969   0.03753   0.78086   0.00000  Uiso   1.00
C620   C     0.50024   0.04250   0.74969   0.00000  Uiso   1.00
C621   C     0.46660   0.02143   0.73238   0.00000  Uiso   1.00
H622   H     0.44084   0.03787   0.71836   0.00000  Uiso   1.00
C623   C     0.46651   0.31206   0.73248   0.00000  Uiso   1.00
H624   H     0.44086   0.29578   0.71831   0.00000  Uiso   1.00
C625   C     0.49991   0.29081   0.75007   0.00000  Uiso   1.00
C626   C     0.64967   0.13466   0.72676   0.00000  Uiso   1.00
H627   H     0.63717   0.10902   0.70813   0.00000  Uiso   1.00
C628   C     0.36430   0.13476   0.72654   0.00000  Uiso   1.00
H629   H     0.38797   0.10924   0.70767   0.00000  Uiso   1.00
N630   N     0.38093   0.16668   0.75001   0.00000  Uiso   1.00
C631   C     0.34992   0.19889   0.77333   0.00000  Uiso   1.00
C632   C     0.63572   0.19889   0.77237   0.00000  Uiso   1.00
H633   H     0.61197   0.22456   0.79028   0.00000  Uiso   1.00
N634   N     0.61906   0.16665   0.75001   0.00000  Uiso   1.00
N635   N     0.36457   0.23280   0.79971   0.00000  Uiso   1.00
O636   O     0.37721   0.22563   0.84195   0.00000  Uiso   1.00
O637   O     0.35355   0.27076   0.79075   0.00000  Uiso   1.00
Br638  Br    0.45077   0.23003   0.61536   0.00000  Uiso   1.00
O639   O     0.79512   0.22775   0.75000   0.00000  Uiso   1.00
O640   O     0.87157   0.22774   0.75000   0.00000  Uiso   1.00
C641   C     0.83325   0.24667   0.75009   0.00000  Uiso   1.00
O642   O     0.77613   0.16666   0.82681   0.00000  Uiso   1.00
O643   O     0.85258   0.16665   0.82681   0.00000  Uiso   1.00
C644   C     0.80719   0.17017   0.85187   0.00000  Uiso   1.00
Zn645  Zn    0.78229   0.16667   0.75000   0.00000  Uiso   1.00
Zn646  Zn    0.88438   0.16666   0.75000   0.00000  Uiso   1.00
O647   O     0.79510   0.10559   0.74999   0.00000  Uiso   1.00
O648   O     0.87154   0.10558   0.74999   0.00000  Uiso   1.00
O649   O     0.81409   0.16668   0.67319   0.00000  Uiso   1.00
O650   O     0.89053   0.16667   0.67319   0.00000  Uiso   1.00
C651   C     0.83344   0.08666   0.74986   0.00000  Uiso   1.00
C652   C     0.85929   0.17052   0.64843   0.00000  Uiso   1.00
C653   C     0.93249   0.19462   0.50418   0.00000  Uiso   1.00
H654   H     0.94988   0.17457   0.57387   0.00000  Uiso   1.00
H655   H     0.94055   0.21995   0.90349   0.00000  Uiso   1.00
H656   H     0.96958   0.19688   0.97886   0.00000  Uiso   1.00
C657   C     0.87349   0.18273   0.59186   0.00000  Uiso   1.00
C658   C     0.74535   0.16441   0.94146   0.00000  Uiso   1.00
C659   C     0.73279   0.16243   0.99730   0.00000  Uiso   1.00
C660   C     0.76587   0.17301   0.52249   0.00000  Uiso   1.00
C661   C     0.81117   0.18914   0.99246   0.00000  Uiso   1.00
C662   C     0.82301   0.19344   0.93604   0.00000  Uiso   1.00
C663   C     0.84728   0.19616   0.51588   0.00000  Uiso   1.00
C664   C     0.89537   0.20072   0.98254   0.00000  Uiso   1.00
C665   C     0.90481   0.21153   0.92868   0.00000  Uiso   1.00
C666   C     0.86780   0.21107   0.90686   0.00000  Uiso   1.00
C667   C     0.83766   0.19633   0.57139   0.00000  Uiso   1.00
C668   C     0.92140   0.18253   0.55814   0.00000  Uiso   1.00
C669   C     0.79110   0.17774   0.91032   0.00000  Uiso   1.00
H670   H     0.72029   0.15302   0.92245   0.00000  Uiso   1.00
H671   H     0.75633   0.16625   0.56506   0.00000  Uiso   1.00
H672   H     0.69835   0.15007   0.52085   0.00000  Uiso   1.00
H673   H     0.87542   0.22267   0.86633   0.00000  Uiso   1.00
C674   C     0.86693   0.31186   0.76731   0.00000  Uiso   1.00
H675   H     0.89266   0.29542   0.78138   0.00000  Uiso   1.00
C676   C     0.86715   0.02124   0.76702   0.00000  Uiso   1.00
H677   H     0.89302   0.03753   0.78086   0.00000  Uiso   1.00
C678   C     0.83357   0.04250   0.74969   0.00000  Uiso   1.00
C679   C     0.79994   0.02143   0.73238   0.00000  Uiso   1.00
H680   H     0.77418   0.03787   0.71836   0.00000  Uiso   1.00
C681   C     0.79984   0.31206   0.73248   0.00000  Uiso   1.00
H682   H     0.77419   0.29578   0.71831   0.00000  Uiso   1.00
C683   C     0.83324   0.29081   0.75007   0.00000  Uiso   1.00
C684   C     0.98300   0.13466   0.72676   0.00000  Uiso   1.00
H685   H     0.97050   0.10902   0.70813   0.00000  Uiso   1.00
C686   C     0.69763   0.13476   0.72654   0.00000  Uiso   1.00
H687   H     0.72131   0.10924   0.70767   0.00000  Uiso   1.00
N688   N     0.71426   0.16668   0.75001   0.00000  Uiso   1.00
C689   C     0.68326   0.19889   0.77333   0.00000  Uiso   1.00
C690   C     0.96905   0.19889   0.77237   0.00000  Uiso   1.00
H691   H     0.94530   0.22456   0.79028   0.00000  Uiso   1.00
N692   N     0.95239   0.16665   0.75001   0.00000  Uiso   1.00
N693   N     0.69791   0.23280   0.79971   0.00000  Uiso   1.00
O694   O     0.71055   0.22563   0.84195   0.00000  Uiso   1.00
O695   O     0.68689   0.27076   0.79075   0.00000  Uiso   1.00
Br696  Br    0.78411   0.23003   0.61536   0.00000  Uiso   1.00
O697   O     0.12846   0.56108   0.75000   0.00000  Uiso   1.00
O698   O     0.20490   0.56107   0.75000   0.00000  Uiso   1.00
C699   C     0.16659   0.58001   0.75009   0.00000  Uiso   1.00
O700   O     0.10947   0.50000   0.82681   0.00000  Uiso   1.00
O701   O     0.18591   0.49999   0.82681   0.00000  Uiso   1.00
C702   C     0.14052   0.50350   0.85187   0.00000  Uiso   1.00
Zn703  Zn    0.11562   0.50001   0.75000   0.00000  Uiso   1.00
Zn704  Zn    0.21771   0.49999   0.75000   0.00000  Uiso   1.00
O705   O     0.12843   0.43893   0.74999   0.00000  Uiso   1.00
O706   O     0.20488   0.43892   0.74999   0.00000  Uiso   1.00
O707   O     0.14742   0.50001   0.67319   0.00000  Uiso   1.00
O708   O     0.22387   0.50000   0.67319   0.00000  Uiso   1.00
C709   C     0.16677   0.41999   0.74986   0.00000  Uiso   1.00
C710   C     0.19262   0.50385   0.64843   0.00000  Uiso   1.00
C711   C     0.26582   0.52795   0.50418   0.00000  Uiso   1.00
H712   H     0.28321   0.50790   0.57387   0.00000  Uiso   1.00
H713   H     0.27389   0.55329   0.90349   0.00000  Uiso   1.00
H714   H     0.30291   0.53021   0.97886   0.00000  Uiso   1.00
C715   C     0.20682   0.51606   0.59186   0.00000  Uiso   1.00
C716   C     0.07869   0.49774   0.94146   0.00000  Uiso   1.00
C717   C     0.06612   0.49576   0.99730   0.00000  Uiso   1.00
C718   C     0.09920   0.50635   0.52249   0.00000  Uiso   1.00
C719   C     0.14451   0.52248   0.99246   0.00000  Uiso   1.00
C720   C     0.15635   0.52677   0.93604   0.00000  Uiso   1.00
C721   C     0.18062   0.52949   0.51588   0.00000  Uiso   1.00
C722   C     0.22870   0.53405   0.98254   0.00000  Uiso   1.00
C723   C     0.23815   0.54487   0.92868   0.00000  Uiso   1.00
C724   C     0.20113   0.54440   0.90686   0.00000  Uiso   1.00
C725   C     0.17099   0.52966   0.57139   0.00000  Uiso   1.00
C726   C     0.25473   0.51586   0.55814   0.00000  Uiso   1.00
C727   C     0.12443   0.51108   0.91032   0.00000  Uiso   1.00
H728   H     0.05363   0.48635   0.92245   0.00000  Uiso   1.00
H729   H     0.08966   0.49958   0.56506   0.00000  Uiso   1.00
H730   H     0.03169   0.48340   0.52085   0.00000  Uiso   1.00
H731   H     0.20875   0.55600   0.86633   0.00000  Uiso   1.00
C732   C     0.20026   0.64520   0.76731   0.00000  Uiso   1.00
H733   H     0.22599   0.62875   0.78138   0.00000  Uiso   1.00
C734   C     0.20048   0.35457   0.76702   0.00000  Uiso   1.00
H735   H     0.22636   0.37086   0.78086   0.00000  Uiso   1.00
C736   C     0.16691   0.37583   0.74969   0.00000  Uiso   1.00
C737   C     0.13327   0.35477   0.73238   0.00000  Uiso   1.00
H738   H     0.10751   0.37120   0.71836   0.00000  Uiso   1.00
C739   C     0.13318   0.64540   0.73248   0.00000  Uiso   1.00
H740   H     0.10753   0.62911   0.71831   0.00000  Uiso   1.00
C741   C     0.16658   0.62415   0.75007   0.00000  Uiso   1.00
C742   C     0.31634   0.46799   0.72676   0.00000  Uiso   1.00
H743   H     0.30384   0.44235   0.70813   0.00000  Uiso   1.00
C744   C     0.03096   0.46809   0.72654   0.00000  Uiso   1.00
H745   H     0.05464   0.44258   0.70767   0.00000  Uiso   1.00
N746   N     0.04760   0.50001   0.75001   0.00000  Uiso   1.00
C747   C     0.01659   0.53223   0.77333   0.00000  Uiso   1.00
C748   C     0.30238   0.53223   0.77237   0.00000  Uiso   1.00
H749   H     0.27863   0.55789   0.79028   0.00000  Uiso   1.00
N750   N     0.28573   0.49998   0.75001   0.00000  Uiso   1.00
N751   N     0.03124   0.56613   0.79971   0.00000  Uiso   1.00
O752   O     0.04388   0.55897   0.84195   0.00000  Uiso   1.00
O753   O     0.02022   0.60409   0.79075   0.00000  Uiso   1.00
Br754  Br    0.11744   0.56336   0.61536   0.00000  Uiso   1.00
O755   O     0.46179   0.56108   0.75000   0.00000  Uiso   1.00
O756   O     0.53823   0.56107   0.75000   0.00000  Uiso   1.00
C757   C     0.49992   0.58001   0.75009   0.00000  Uiso   1.00
O758   O     0.44280   0.50000   0.82681   0.00000  Uiso   1.00
O759   O     0.51924   0.49999   0.82681   0.00000  Uiso   1.00
C760   C     0.47386   0.50350   0.85187   0.00000  Uiso   1.00
Zn761  Zn    0.44896   0.50001   0.75000   0.00000  Uiso   1.00
Zn762  Zn    0.55104   0.49999   0.75000   0.00000  Uiso   1.00
O763   O     0.46177   0.43893   0.74999   0.00000  Uiso   1.00
O764   O     0.53821   0.43892   0.74999   0.00000  Uiso   1.00
O765   O     0.48076   0.50001   0.67319   0.00000  Uiso   1.00
O766   O     0.55720   0.50000   0.67319   0.00000  Uiso   1.00
C767   C     0.50011   0.41999   0.74986   0.00000  Uiso   1.00
C768   C     0.52596   0.50385   0.64843   0.00000  Uiso   1.00
C769   C     0.59916   0.52795   0.50418   0.00000  Uiso   1.00
H770   H     0.61655   0.50790   0.57387   0.00000  Uiso   1.00
H771   H     0.60722   0.55329   0.90349   0.00000  Uiso   1.00
H772   H     0.63625   0.53021   0.97886   0.00000  Uiso   1.00
C773   C     0.54016   0.51606   0.59186   0.00000  Uiso   1.00
C774   C     0.41202   0.49774   0.94146   0.00000  Uiso   1.00
C775   C     0.39945   0.49576   0.99730   0.00000  Uiso   1.00
C776   C     0.43253   0.50635   0.52249   0.00000  Uiso   1.00
C777   C     0.47784   0.52248   0.99246   0.00000  Uiso   1.00
C778   C     0.48968   0.52677   0.93604   0.00000  Uiso   1.00
C779   C     0.51395   0.52949   0.51588   0.00000  Uiso   1.00
C780   C     0.56203   0.53405   0.98254   0.00000  Uiso   1.00
C781   C     0.57148   0.54487   0.92868   0.00000  Uiso   1.00
C782   C     0.53447   0.54440   0.90686   0.00000  Uiso   1.00
C783   C     0.50432   0.52966   0.57139   0.00000  Uiso   1.00
C784   C     0.58806   0.51586   0.55814   0.00000  Uiso   1.00
C785   C     0.45777   0.51108   0.91032   0.00000  Uiso   1.00
H786   H     0.38696   0.48635   0.92245   0.00000  Uiso   1.00
H787   H     0.42300   0.49958   0.56506   0.00000  Uiso   1.00
H788   H     0.36502   0.48340   0.52085   0.00000  Uiso   1.00
H789   H     0.54208   0.55600   0.86633   0.00000  Uiso   1.00
C790   C     0.53359   0.64520   0.76731   0.00000  Uiso   1.00
H791   H     0.55933   0.62875   0.78138   0.00000  Uiso   1.00
C792   C     0.53381   0.35457   0.76702   0.00000  Uiso   1.00
H793   H     0.55969   0.37086   0.78086   0.00000  Uiso   1.00
C794   C     0.50024   0.37583   0.74969   0.00000  Uiso   1.00
C795   C     0.46660   0.35477   0.73238   0.00000  Uiso   1.00
H796   H     0.44084   0.37120   0.71836   0.00000  Uiso   1.00
C797   C     0.46651   0.64540   0.73248   0.00000  Uiso   1.00
H798   H     0.44086   0.62911   0.71831   0.00000  Uiso   1.00
C799   C     0.49991   0.62415   0.75007   0.00000  Uiso   1.00
C800   C     0.64967   0.46799   0.72676   0.00000  Uiso   1.00
H801   H     0.63717   0.44235   0.70813   0.00000  Uiso   1.00
C802   C     0.36430   0.46809   0.72654   0.00000  Uiso   1.00
H803   H     0.38797   0.44258   0.70767   0.00000  Uiso   1.00
N804   N     0.38093   0.50001   0.75001   0.00000  Uiso   1.00
C805   C     0.34992   0.53223   0.77333   0.00000  Uiso   1.00
C806   C     0.63572   0.53223   0.77237   0.00000  Uiso   1.00
H807   H     0.61197   0.55789   0.79028   0.00000  Uiso   1.00
N808   N     0.61906   0.49998   0.75001   0.00000  Uiso   1.00
N809   N     0.36457   0.56613   0.79971   0.00000  Uiso   1.00
O810   O     0.37721   0.55897   0.84195   0.00000  Uiso   1.00
O811   O     0.35355   0.60409   0.79075   0.00000  Uiso   1.00
Br812  Br    0.45077   0.56336   0.61536   0.00000  Uiso   1.00
O813   O     0.79512   0.56108   0.75000   0.00000  Uiso   1.00
O814   O     0.87157   0.56107   0.75000   0.00000  Uiso   1.00
C815   C     0.83325   0.58001   0.75009   0.00000  Uiso   1.00
O816   O     0.77613   0.50000   0.82681   0.00000  Uiso   1.00
O817   O     0.85258   0.49999   0.82681   0.00000  Uiso   1.00
C818   C     0.80719   0.50350   0.85187   0.00000  Uiso   1.00
Zn819  Zn    0.78229   0.50001   0.75000   0.00000  Uiso   1.00
Zn820  Zn    0.88438   0.49999   0.75000   0.00000  Uiso   1.00
O821   O     0.79510   0.43893   0.74999   0.00000  Uiso   1.00
O822   O     0.87154   0.43892   0.74999   0.00000  Uiso   1.00
O823   O     0.81409   0.50001   0.67319   0.00000  Uiso   1.00
O824   O     0.89053   0.50000   0.67319   0.00000  Uiso   1.00
C825   C     0.83344   0.41999   0.74986   0.00000  Uiso   1.00
C826   C     0.85929   0.50385   0.64843   0.00000  Uiso   1.00
C827   C     0.93249   0.52795   0.50418   0.00000  Uiso   1.00
H828   H     0.94988   0.50790   0.57387   0.00000  Uiso   1.00
H829   H     0.94055   0.55329   0.90349   0.00000  Uiso   1.00
H830   H     0.96958   0.53021   0.97886   0.00000  Uiso   1.00
C831   C     0.87349   0.51606   0.59186   0.00000  Uiso   1.00
C832   C     0.74535   0.49774   0.94146   0.00000  Uiso   1.00
C833   C     0.73279   0.49576   0.99730   0.00000  Uiso   1.00
C834   C     0.76587   0.50635   0.52249   0.00000  Uiso   1.00
C835   C     0.81117   0.52248   0.99246   0.00000  Uiso   1.00
C836   C     0.82301   0.52677   0.93604   0.00000  Uiso   1.00
C837   C     0.84728   0.52949   0.51588   0.00000  Uiso   1.00
C838   C     0.89537   0.53405   0.98254   0.00000  Uiso   1.00
C839   C     0.90481   0.54487   0.92868   0.00000  Uiso   1.00
C840   C     0.86780   0.54440   0.90686   0.00000  Uiso   1.00
C841   C     0.83766   0.52966   0.57139   0.00000  Uiso   1.00
C842   C     0.92140   0.51586   0.55814   0.00000  Uiso   1.00
C843   C     0.79110   0.51108   0.91032   0.00000  Uiso   1.00
H844   H     0.72029   0.48635   0.92245   0.00000  Uiso   1.00
H845   H     0.75633   0.49958   0.56506   0.00000  Uiso   1.00
H846   H     0.69835   0.48340   0.52085   0.00000  Uiso   1.00
H847   H     0.87542   0.55600   0.86633   0.00000  Uiso   1.00
C848   C     0.86693   0.64520   0.76731   0.00000  Uiso   1.00
H849   H     0.89266   0.62875   0.78138   0.00000  Uiso   1.00
C850   C     0.86715   0.35457   0.76702   0.00000  Uiso   1.00
H851   H     0.89302   0.37086   0.78086   0.00000  Uiso   1.00
C852   C     0.83357   0.37583   0.74969   0.00000  Uiso   1.00
C853   C     0.79994   0.35477   0.73238   0.00000  Uiso   1.00
H854   H     0.77418   0.37120   0.71836   0.00000  Uiso   1.00
C855   C     0.79984   0.64540   0.73248   0.00000  Uiso   1.00
H856   H     0.77419   0.62911   0.71831   0.00000  Uiso   1.00
C857   C     0.83324   0.62415   0.75007   0.00000  Uiso   1.00
C858   C     0.98300   0.46799   0.72676   0.00000  Uiso   1.00
H859   H     0.97050   0.44235   0.70813   0.00000  Uiso   1.00
C860   C     0.69763   0.46809   0.72654   0.00000  Uiso   1.00
H861   H     0.72131   0.44258   0.70767   0.00000  Uiso   1.00
N862   N     0.71426   0.50001   0.75001   0.00000  Uiso   1.00
C863   C     0.68326   0.53223   0.77333   0.00000  Uiso   1.00
C864   C     0.96905   0.53223   0.77237   0.00000  Uiso   1.00
H865   H     0.94530   0.55789   0.79028   0.00000  Uiso   1.00
N866   N     0.95239   0.49998   0.75001   0.00000  Uiso   1.00
N867   N     0.69791   0.56613   0.79971   0.00000  Uiso   1.00
O868   O     0.71055   0.55897   0.84195   0.00000  Uiso   1.00
O869   O     0.68689   0.60409   0.79075   0.00000  Uiso   1.00
Br870  Br    0.78411   0.56336   0.61536   0.00000  Uiso   1.00
O871   O     0.12846   0.89442   0.75000   0.00000  Uiso   1.00
O872   O     0.20490   0.89441   0.75000   0.00000  Uiso   1.00
C873   C     0.16659   0.91334   0.75009   0.00000  Uiso   1.00
O874   O     0.10947   0.83333   0.82681   0.00000  Uiso   1.00
O875   O     0.18591   0.83332   0.82681   0.00000  Uiso   1.00
C876   C     0.14052   0.83683   0.85187   0.00000  Uiso   1.00
Zn877  Zn    0.11562   0.83334   0.75000   0.00000  Uiso   1.00
Zn878  Zn    0.21771   0.83333   0.75000   0.00000  Uiso   1.00
O879   O     0.12843   0.77226   0.74999   0.00000  Uiso   1.00
O880   O     0.20488   0.77225   0.74999   0.00000  Uiso   1.00
O881   O     0.14742   0.83335   0.67319   0.00000  Uiso   1.00
O882   O     0.22387   0.83334   0.67319   0.00000  Uiso   1.00
C883   C     0.16677   0.75332   0.74986   0.00000  Uiso   1.00
C884   C     0.19262   0.83718   0.64843   0.00000  Uiso   1.00
C885   C     0.26582   0.86128   0.50418   0.00000  Uiso   1.00
H886   H     0.28321   0.84123   0.57387   0.00000  Uiso   1.00
H887   H     0.27389   0.88662   0.90349   0.00000  Uiso   1.00
H888   H     0.30291   0.86354   0.97886   0.00000  Uiso   1.00
C889   C     0.20682   0.84940   0.59186   0.00000  Uiso   1.00
C890   C     0.07869   0.83107   0.94146   0.00000  Uiso   1.00
C891   C     0.06612   0.82909   0.99730   0.00000  Uiso   1.00
C892   C     0.09920   0.83968   0.52249   0.00000  Uiso   1.00
C893   C     0.14451   0.85581   0.99246   0.00000  Uiso   1.00
C894   C     0.15635   0.86011   0.93604   0.00000  Uiso   1.00
C895   C     0.18062   0.86283   0.51588   0.00000  Uiso   1.00
C896   C     0.22870   0.86739   0.98254   0.00000  Uiso   1.00
C897   C     0.23815   0.87820   0.92868   0.00000  Uiso   1.00
C898   C     0.20113   0.87773   0.90686   0.00000  Uiso   1.00
C899   C     0.17099   0.86299   0.57139   0.00000  Uiso   1.00
C900   C     0.25473   0.84920   0.55814   0.00000  Uiso   1.00
C901   C     0.12443   0.84441   0.91032   0.00000  Uiso   1.00
H902   H     0.05363   0.81968   0.92245   0.00000  Uiso   1.00
H903   H     0.08966   0.83291   0.56506   0.00000  Uiso   1.00
H904   H     0.03169   0.81674   0.52085   0.00000  Uiso   1.00
H905   H     0.20875   0.88934   0.86633   0.00000  Uiso   1.00
C906   C     0.20026   0.97853   0.76731   0.00000  Uiso   1.00
H907   H     0.22599   0.96209   0.78138   0.00000  Uiso   1.00
C908   C     0.20048   0.68790   0.76702   0.00000  Uiso   1.00
H909   H     0.22636   0.70419   0.78086   0.00000  Uiso   1.00
C910   C     0.16691   0.70916   0.74969   0.00000  Uiso   1.00
C911   C     0.13327   0.68810   0.73238   0.00000  Uiso   1.00
H912   H     0.10751   0.70453   0.71836   0.00000  Uiso   1.00
C913   C     0.13318   0.97873   0.73248   0.00000  Uiso   1.00
H914   H     0.10753   0.96245   0.71831   0.00000  Uiso   1.00
C915   C     0.16658   0.95748   0.75007   0.00000  Uiso   1.00
C916   C     0.31634   0.80132   0.72676   0.00000  Uiso   1.00
H917   H     0.30384   0.77568   0.70813   0.00000  Uiso   1.00
C918   C     0.03096   0.80143   0.72654   0.00000  Uiso   1.00
H919   H     0.05464   0.77591   0.70767   0.00000  Uiso   1.00
N920   N     0.04760   0.83334   0.75001   0.00000  Uiso   1.00
C921   C     0.01659   0.86556   0.77333   0.00000  Uiso   1.00
C922   C     0.30238   0.86556   0.77237   0.00000  Uiso   1.00
H923   H     0.27863   0.89123   0.79028   0.00000  Uiso   1.00
N924   N     0.28573   0.83331   0.75001   0.00000  Uiso   1.00
N925   N     0.03124   0.89947   0.79971   0.00000  Uiso   1.00
O926   O     0.04388   0.89230   0.84195   0.00000  Uiso   1.00
O927   O     0.02022   0.93742   0.79075   0.00000  Uiso   1.00
Br928  Br    0.11744   0.89669   0.61536   0.00000  Uiso   1.00
O929   O     0.46179   0.89442   0.75000   0.00000  Uiso   1.00
O930   O     0.53823   0.89441   0.75000   0.00000  Uiso   1.00
C931   C     0.49992   0.91334   0.75009   0.00000  Uiso   1.00
O932   O     0.44280   0.83333   0.82681   0.00000  Uiso   1.00
O933   O     0.51924   0.83332   0.82681   0.00000  Uiso   1.00
C934   C     0.47386   0.83683   0.85187   0.00000  Uiso   1.00
Zn935  Zn    0.44896   0.83334   0.75000   0.00000  Uiso   1.00
Zn936  Zn    0.55104   0.83333   0.75000   0.00000  Uiso   1.00
O937   O     0.46177   0.77226   0.74999   0.00000  Uiso   1.00
O938   O     0.53821   0.77225   0.74999   0.00000  Uiso   1.00
O939   O     0.48076   0.83335   0.67319   0.00000  Uiso   1.00
O940   O     0.55720   0.83334   0.67319   0.00000  Uiso   1.00
C941   C     0.50011   0.75332   0.74986   0.00000  Uiso   1.00
C942   C     0.52596   0.83718   0.64843   0.00000  Uiso   1.00
C943   C     0.59916   0.86128   0.50418   0.00000  Uiso   1.00
H944   H     0.61655   0.84123   0.57387   0.00000  Uiso   1.00
H945   H     0.60722   0.88662   0.90349   0.00000  Uiso   1.00
H946   H     0.63625   0.86354   0.97886   0.00000  Uiso   1.00
C947   C     0.54016   0.84940   0.59186   0.00000  Uiso   1.00
C948   C     0.41202   0.83107   0.94146   0.00000  Uiso   1.00
C949   C     0.39945   0.82909   0.99730   0.00000  Uiso   1.00
C950   C     0.43253   0.83968   0.52249   0.00000  Uiso   1.00
C951   C     0.47784   0.85581   0.99246   0.00000  Uiso   1.00
C952   C     0.48968   0.86011   0.93604   0.00000  Uiso   1.00
C953   C     0.51395   0.86283   0.51588   0.00000  Uiso   1.00
C954   C     0.56203   0.86739   0.98254   0.00000  Uiso   1.00
C955   C     0.57148   0.87820   0.92868   0.00000  Uiso   1.00
C956   C     0.53447   0.87773   0.90686   0.00000  Uiso   1.00
C957   C     0.50432   0.86299   0.57139   0.00000  Uiso   1.00
C958   C     0.58806   0.84920   0.55814   0.00000  Uiso   1.00
C959   C     0.45777   0.84441   0.91032   0.00000  Uiso   1.00
H960   H     0.38696   0.81968   0.92245   0.00000  Uiso   1.00
H961   H     0.42300   0.83291   0.56506   0.00000  Uiso   1.00
H962   H     0.36502   0.81674   0.52085   0.00000  Uiso   1.00
H963   H     0.54208   0.88934   0.86633   0.00000  Uiso   1.00
C964   C     0.53359   0.97853   0.76731   0.00000  Uiso   1.00
H965   H     0.55933   0.96209   0.78138   0.00000  Uiso   1.00
C966   C     0.53381   0.68790   0.76702   0.00000  Uiso   1.00
H967   H     0.55969   0.70419   0.78086   0.00000  Uiso   1.00
C968   C     0.50024   0.70916   0.74969   0.00000  Uiso   1.00
C969   C     0.46660   0.68810   0.73238   0.00000  Uiso   1.00
H970   H     0.44084   0.70453   0.71836   0.00000  Uiso   1.00
C971   C     0.46651   0.97873   0.73248   0.00000  Uiso   1.00
H972   H     0.44086   0.96245   0.71831   0.00000  Uiso   1.00
C973   C     0.49991   0.95748   0.75007   0.00000  Uiso   1.00
C974   C     0.64967   0.80132   0.72676   0.00000  Uiso   1.00
H975   H     0.63717   0.77568   0.70813   0.00000  Uiso   1.00
C976   C     0.36430   0.80143   0.72654   0.00000  Uiso   1.00
H977   H     0.38797   0.77591   0.70767   0.00000  Uiso   1.00
N978   N     0.38093   0.83334   0.75001   0.00000  Uiso   1.00
C979   C     0.34992   0.86556   0.77333   0.00000  Uiso   1.00
C980   C     0.63572   0.86556   0.77237   0.00000  Uiso   1.00
H981   H     0.61197   0.89123   0.79028   0.00000  Uiso   1.00
N982   N     0.61906   0.83331   0.75001   0.00000  Uiso   1.00
N983   N     0.36457   0.89947   0.79971   0.00000  Uiso   1.00
O984   O     0.37721   0.89230   0.84195   0.00000  Uiso   1.00
O985   O     0.35355   0.93742   0.79075   0.00000  Uiso   1.00
Br986  Br    0.45077   0.89669   0.61536   0.00000  Uiso   1.00
O987   O     0.79512   0.89442   0.75000   0.00000  Uiso   1.00
O988   O     0.87157   0.89441   0.75000   0.00000  Uiso   1.00
C989   C     0.83325   0.91334   0.75009   0.00000  Uiso   1.00
O990   O     0.77613   0.83333   0.82681   0.00000  Uiso   1.00
O991   O     0.85258   0.83332   0.82681   0.00000  Uiso   1.00
C992   C     0.80719   0.83683   0.85187   0.00000  Uiso   1.00
Zn993  Zn    0.78229   0.83334   0.75000   0.00000  Uiso   1.00
Zn994  Zn    0.88438   0.83333   0.75000   0.00000  Uiso   1.00
O995   O     0.79510   0.77226   0.74999   0.00000  Uiso   1.00
O996   O     0.87154   0.77225   0.74999   0.00000  Uiso   1.00
O997   O     0.81409   0.83335   0.67319   0.00000  Uiso   1.00
O998   O     0.89053   0.83334   0.67319   0.00000  Uiso   1.00
C999   C     0.83344   0.75332   0.74986   0.00000  Uiso   1.00
C1000  C     0.85929   0.83718   0.64843   0.00000  Uiso   1.00
C1001  C     0.93249   0.86128   0.50418   0.00000  Uiso   1.00
H1002  H     0.94988   0.84123   0.57387   0.00000  Uiso   1.00
H1003  H     0.94055   0.88662   0.90349   0.00000  Uiso   1.00
H1004  H     0.96958   0.86354   0.97886   0.00000  Uiso   1.00
C1005  C     0.87349   0.84940   0.59186   0.00000  Uiso   1.00
C1006  C     0.74535   0.83107   0.94146   0.00000  Uiso   1.00
C1007  C     0.73279   0.82909   0.99730   0.00000  Uiso   1.00
C1008  C     0.76587   0.83968   0.52249   0.00000  Uiso   1.00
C1009  C     0.81117   0.85581   0.99246   0.00000  Uiso   1.00
C1010  C     0.82301   0.86011   0.93604   0.00000  Uiso   1.00
C1011  C     0.84728   0.86283   0.51588   0.00000  Uiso   1.00
C1012  C     0.89537   0.86739   0.98254   0.00000  Uiso   1.00
C1013  C     0.90481   0.87820   0.92868   0.00000  Uiso   1.00
C1014  C     0.86780   0.87773   0.90686   0.00000  Uiso   1.00
C1015  C     0.83766   0.86299   0.57139   0.00000  Uiso   1.00
C1016  C     0.92140   0.84920   0.55814   0.00000  Uiso   1.00
C1017  C     0.79110   0.84441   0.91032   0.00000  Uiso   1.00
H1018  H     0.72029   0.81968   0.92245   0.00000  Uiso   1.00
H1019  H     0.75633   0.83291   0.56506   0.00000  Uiso   1.00
H1020  H     0.69835   0.81674   0.52085   0.00000  Uiso   1.00
H1021  H     0.87542   0.88934   0.86633   0.00000  Uiso   1.00
C1022  C     0.86693   0.97853   0.76731   0.00000  Uiso   1.00
H1023  H     0.89266   0.96209   0.78138   0.00000  Uiso   1.00
C1024  C     0.86715   0.68790   0.76702   0.00000  Uiso   1.00
H1025  H     0.89302   0.70419   0.78086   0.00000  Uiso   1.00
C1026  C     0.83357   0.70916   0.74969   0.00000  Uiso   1.00
C1027  C     0.79994   0.68810   0.73238   0.00000  Uiso   1.00
H1028  H     0.77418   0.70453   0.71836   0.00000  Uiso   1.00
C1029  C     0.79984   0.97873   0.73248   0.00000  Uiso   1.00
H1030  H     0.77419   0.96245   0.71831   0.00000  Uiso   1.00
C1031  C     0.83324   0.95748   0.75007   0.00000  Uiso   1.00
C1032  C     0.98300   0.80132   0.72676   0.00000  Uiso   1.00
H1033  H     0.97050   0.77568   0.70813   0.00000  Uiso   1.00
C1034  C     0.69763   0.80143   0.72654   0.00000  Uiso   1.00
H1035  H     0.72131   0.77591   0.70767   0.00000  Uiso   1.00
N1036  N     0.71426   0.83334   0.75001   0.00000  Uiso   1.00
C1037  C     0.68326   0.86556   0.77333   0.00000  Uiso   1.00
C1038  C     0.96905   0.86556   0.77237   0.00000  Uiso   1.00
H1039  H     0.94530   0.89123   0.79028   0.00000  Uiso   1.00
N1040  N     0.95239   0.83331   0.75001   0.00000  Uiso   1.00
N1041  N     0.69791   0.89947   0.79971   0.00000  Uiso   1.00
O1042  O     0.71055   0.89230   0.84195   0.00000  Uiso   1.00
O1043  O     0.68689   0.93742   0.79075   0.00000  Uiso   1.00
Br1044 Br    0.78411   0.89669   0.61536   0.00000  Uiso   1.00
loop_
_geom_bond_atom_site_label_1
_geom_bond_atom_site_label_2
_geom_bond_distance
_geom_bond_site_symmetry_2
_ccdc_geom_bond_type
O1     C3      1.285   .     A
O1     Zn7     1.998   .     S
O2     C3      1.283   .     A
O2     Zn8     1.995   .     S
C3     C45     1.417   .     S
O4     Zn7     1.959   .     S
O4     C6      1.297   .     A
O5     Zn8     1.921   .     S
O5     C6      1.291   .     A
C6     C31     1.465   .     S
Zn7    O11     1.921   .     S
Zn7    N50     2.013   .     S
Zn7    O9      1.995   .     S
Zn8    O12     1.959   .     S
Zn8    N54     2.013   .     S
Zn8    O10     1.998   .     S
O9     C13     1.283   .     A
O10    C13     1.284   .     A
O11    C14     1.288   .     A
O12    C14     1.297   .     A
C13    C40     1.417   .     S
C14    C19     1.457   .     S
C15    C30     1.399   .     A
C15    H540    1.083   1_554 S
C15    C548    1.404   1_554 S
H16    C30     1.082   .     S
H17    C27     1.083   .     S
H18    C537    1.083   .     S
C19    C30     1.403   .     A
C19    C29     1.404   .     A
C20    C21     1.387   .     A
C20    H32     1.083   .     S
C20    C31     1.402   .     A
C21    C544    1.390   .     S
C21    H556    1.082   .     S
C22    H33     1.080   .     S
C22    C543    1.390   1_554 S
C22    C545    1.415   1_554 S
C23    C24     1.410   .     A
C23    C544    1.415   .     S
C23    C547    1.414   .     S
C24    C31     1.420   .     A
C24    C28     1.417   .     A
C25    C29     1.387   .     A
C25    C545    1.414   1_554 S
C25    C548    1.413   1_554 S
C26    C27     1.391   .     A
C26    C537    1.404   .     S
C26    C547    1.413   .     S
C27    C28     1.391   .     A
C28    H35     1.078   .     S
C29    Br58    1.945   .     S
H34    C543    1.082   1_554 S
C36    C45     1.397   .     A
C36    H37     1.084   .     S
C36    C212    1.371   .     S
C38    C40     1.396   .     A
C38    H39     1.084   .     S
C38    C384    1.371   1_545 S
C40    C41     1.397   .     A
C41    H42     1.084   .     S
C41    C391    1.370   1_545 S
C43    C45     1.396   .     A
C43    H44     1.083   .     S
C43    C215    1.370   .     S
C46    N54     1.367   .     A
C46    H47     1.082   .     S
C46    C106    1.417   .     S
C48    H49     1.082   .     S
C48    N50     1.366   .     A
C48    C162    1.417   1_455 S
N50    C51     1.379   .     A
C51    N55     1.430   .     S
C51    C168    1.415   1_455 S
C52    N54     1.359   .     A
C52    H53     1.080   .     S
C52    C109    1.415   .     S
N55    O56     1.299   .     A
N55    O57     1.301   .     A
O59    C61     1.285   .     A
O59    Zn65    1.998   .     S
O60    C61     1.283   .     A
O60    Zn66    1.995   .     S
C61    C103    1.417   .     S
O62    Zn65    1.959   .     S
O62    C64     1.297   .     A
O63    Zn66    1.921   .     S
O63    C64     1.291   .     A
C64    C89     1.465   .     S
Zn65   O69     1.921   .     S
Zn65   N108    2.013   .     S
Zn65   O67     1.995   .     S
Zn66   O70     1.959   .     S
Zn66   N112    2.013   .     S
Zn66   O68     1.998   .     S
O67    C71     1.283   .     A
O68    C71     1.284   .     A
O69    C72     1.288   .     A
O70    C72     1.297   .     A
C71    C98     1.417   .     S
C72    C77     1.457   .     S
C73    C88     1.399   .     A
C73    H598    1.083   1_554 S
C73    C606    1.404   1_554 S
H74    C88     1.082   .     S
H75    C85     1.083   .     S
H76    C595    1.083   .     S
C77    C88     1.403   .     A
C77    C87     1.404   .     A
C78    C79     1.387   .     A
C78    H90     1.083   .     S
C78    C89     1.402   .     A
C79    C602    1.390   .     S
C79    H614    1.082   .     S
C80    H91     1.080   .     S
C80    C601    1.390   1_554 S
C80    C603    1.415   1_554 S
C81    C82     1.410   .     A
C81    C602    1.415   .     S
C81    C605    1.414   .     S
C82    C89     1.420   .     A
C82    C86     1.417   .     A
C83    C87     1.387   .     A
C83    C603    1.414   1_554 S
C83    C606    1.413   1_554 S
C84    C85     1.391   .     A
C84    C595    1.404   .     S
C84    C605    1.413   .     S
C85    C86     1.391   .     A
C86    H93     1.078   .     S
C87    Br116   1.945   .     S
H92    C601    1.082   1_554 S
C94    C103    1.397   .     A
C94    H95     1.084   .     S
C94    C270    1.371   .     S
C96    C98     1.396   .     A
C96    H97     1.084   .     S
C96    C442    1.371   1_545 S
C98    C99     1.397   .     A
C99    H100    1.084   .     S
C99    C449    1.370   1_545 S
C101   C103    1.396   .     A
C101   H102    1.083   .     S
C101   C273    1.370   .     S
C104   N112    1.367   .     A
C104   H105    1.082   .     S
C104   C164    1.417   .     S
C106   H107    1.082   .     S
C106   N108    1.366   .     A
N108   C109    1.379   .     A
C109   N113    1.430   .     S
C110   N112    1.359   .     A
C110   H111    1.080   .     S
C110   C167    1.415   .     S
N113   O114    1.299   .     A
N113   O115    1.301   .     A
O117   C119    1.285   .     A
O117   Zn123   1.998   .     S
O118   C119    1.283   .     A
O118   Zn124   1.995   .     S
C119   C161    1.417   .     S
O120   Zn123   1.959   .     S
O120   C122    1.297   .     A
O121   Zn124   1.921   .     S
O121   C122    1.291   .     A
C122   C147    1.465   .     S
Zn123  O127    1.921   .     S
Zn123  N166    2.013   .     S
Zn123  O125    1.995   .     S
Zn124  O128    1.959   .     S
Zn124  N170    2.013   .     S
Zn124  O126    1.998   .     S
O125   C129    1.283   .     A
O126   C129    1.284   .     A
O127   C130    1.288   .     A
O128   C130    1.297   .     A
C129   C156    1.417   .     S
C130   C135    1.457   .     S
C131   C146    1.399   .     A
C131   H656    1.083   1_554 S
C131   C664    1.404   1_554 S
H132   C146    1.082   .     S
H133   C143    1.083   .     S
H134   C653    1.083   .     S
C135   C146    1.403   .     A
C135   C145    1.404   .     A
C136   C137    1.387   .     A
C136   H148    1.083   .     S
C136   C147    1.402   .     A
C137   C660    1.390   .     S
C137   H672    1.082   .     S
C138   H149    1.080   .     S
C138   C659    1.390   1_554 S
C138   C661    1.415   1_554 S
C139   C140    1.410   .     A
C139   C660    1.415   .     S
C139   C663    1.414   .     S
C140   C147    1.420   .     A
C140   C144    1.417   .     A
C141   C145    1.387   .     A
C141   C661    1.414   1_554 S
C141   C664    1.413   1_554 S
C142   C143    1.391   .     A
C142   C653    1.404   .     S
C142   C663    1.413   .     S
C143   C144    1.391   .     A
C144   H151    1.078   .     S
C145   Br174   1.945   .     S
H150   C659    1.082   1_554 S
C152   C161    1.397   .     A
C152   H153    1.084   .     S
C152   C328    1.371   .     S
C154   C156    1.396   .     A
C154   H155    1.084   .     S
C154   C500    1.371   1_545 S
C156   C157    1.397   .     A
C157   H158    1.084   .     S
C157   C507    1.370   1_545 S
C159   C161    1.396   .     A
C159   H160    1.083   .     S
C159   C331    1.370   .     S
C162   N170    1.367   .     A
C162   H163    1.082   .     S
C162   C48     1.417   1_655 S
C164   H165    1.082   .     S
C164   N166    1.366   .     A
N166   C167    1.379   .     A
C167   N171    1.430   .     S
C168   N170    1.359   .     A
C168   H169    1.080   .     S
C168   C51     1.415   1_655 S
N171   O172    1.299   .     A
N171   O173    1.301   .     A
O175   C177    1.285   .     A
O175   Zn181   1.998   .     S
O176   C177    1.283   .     A
O176   Zn182   1.995   .     S
C177   C219    1.417   .     S
O178   Zn181   1.959   .     S
O178   C180    1.297   .     A
O179   Zn182   1.921   .     S
O179   C180    1.291   .     A
C180   C205    1.465   .     S
Zn181  O185    1.921   .     S
Zn181  N224    2.013   .     S
Zn181  O183    1.995   .     S
Zn182  O186    1.959   .     S
Zn182  N228    2.013   .     S
Zn182  O184    1.998   .     S
O183   C187    1.283   .     A
O184   C187    1.284   .     A
O185   C188    1.288   .     A
O186   C188    1.297   .     A
C187   C214    1.417   .     S
C188   C193    1.457   .     S
C189   C204    1.399   .     A
C189   H714    1.083   1_554 S
C189   C722    1.404   1_554 S
H190   C204    1.082   .     S
H191   C201    1.083   .     S
H192   C711    1.083   .     S
C193   C204    1.403   .     A
C193   C203    1.404   .     A
C194   C195    1.387   .     A
C194   H206    1.083   .     S
C194   C205    1.402   .     A
C195   C718    1.390   .     S
C195   H730    1.082   .     S
C196   H207    1.080   .     S
C196   C717    1.390   1_554 S
C196   C719    1.415   1_554 S
C197   C198    1.410   .     A
C197   C718    1.415   .     S
C197   C721    1.414   .     S
C198   C205    1.420   .     A
C198   C202    1.417   .     A
C199   C203    1.387   .     A
C199   C719    1.414   1_554 S
C199   C722    1.413   1_554 S
C200   C201    1.391   .     A
C200   C711    1.404   .     S
C200   C721    1.413   .     S
C201   C202    1.391   .     A
C202   H209    1.078   .     S
C203   Br232   1.945   .     S
H208   C717    1.082   1_554 S
C210   C219    1.397   .     A
C210   H211    1.084   .     S
C210   C386    1.371   .     S
C212   C214    1.396   .     A
C212   H213    1.084   .     S
C214   C215    1.397   .     A
C215   H216    1.084   .     S
C217   C219    1.396   .     A
C217   H218    1.083   .     S
C217   C389    1.370   .     S
C220   N228    1.367   .     A
C220   H221    1.082   .     S
C220   C280    1.417   .     S
C222   H223    1.082   .     S
C222   N224    1.366   .     A
C222   C336    1.417   1_455 S
N224   C225    1.379   .     A
C225   N229    1.430   .     S
C225   C342    1.415   1_455 S
C226   N228    1.359   .     A
C226   H227    1.080   .     S
C226   C283    1.415   .     S
N229   O230    1.299   .     A
N229   O231    1.301   .     A
O233   C235    1.285   .     A
O233   Zn239   1.998   .     S
O234   C235    1.283   .     A
O234   Zn240   1.995   .     S
C235   C277    1.417   .     S
O236   Zn239   1.959   .     S
O236   C238    1.297   .     A
O237   Zn240   1.921   .     S
O237   C238    1.291   .     A
C238   C263    1.465   .     S
Zn239  O243    1.921   .     S
Zn239  N282    2.013   .     S
Zn239  O241    1.995   .     S
Zn240  O244    1.959   .     S
Zn240  N286    2.013   .     S
Zn240  O242    1.998   .     S
O241   C245    1.283   .     A
O242   C245    1.284   .     A
O243   C246    1.288   .     A
O244   C246    1.297   .     A
C245   C272    1.417   .     S
C246   C251    1.457   .     S
C247   C262    1.399   .     A
C247   H772    1.083   1_554 S
C247   C780    1.404   1_554 S
H248   C262    1.082   .     S
H249   C259    1.083   .     S
H250   C769    1.083   .     S
C251   C262    1.403   .     A
C251   C261    1.404   .     A
C252   C253    1.387   .     A
C252   H264    1.083   .     S
C252   C263    1.402   .     A
C253   C776    1.390   .     S
C253   H788    1.082   .     S
C254   H265    1.080   .     S
C254   C775    1.390   1_554 S
C254   C777    1.415   1_554 S
C255   C256    1.410   .     A
C255   C776    1.415   .     S
C255   C779    1.414   .     S
C256   C263    1.420   .     A
C256   C260    1.417   .     A
C257   C261    1.387   .     A
C257   C777    1.414   1_554 S
C257   C780    1.413   1_554 S
C258   C259    1.391   .     A
C258   C769    1.404   .     S
C258   C779    1.413   .     S
C259   C260    1.391   .     A
C260   H267    1.078   .     S
C261   Br290   1.945   .     S
H266   C775    1.082   1_554 S
C268   C277    1.397   .     A
C268   H269    1.084   .     S
C268   C444    1.371   .     S
C270   C272    1.396   .     A
C270   H271    1.084   .     S
C272   C273    1.397   .     A
C273   H274    1.084   .     S
C275   C277    1.396   .     A
C275   H276    1.083   .     S
C275   C447    1.370   .     S
C278   N286    1.367   .     A
C278   H279    1.082   .     S
C278   C338    1.417   .     S
C280   H281    1.082   .     S
C280   N282    1.366   .     A
N282   C283    1.379   .     A
C283   N287    1.430   .     S
C284   N286    1.359   .     A
C284   H285    1.080   .     S
C284   C341    1.415   .     S
N287   O288    1.299   .     A
N287   O289    1.301   .     A
O291   C293    1.285   .     A
O291   Zn297   1.998   .     S
O292   C293    1.283   .     A
O292   Zn298   1.995   .     S
C293   C335    1.417   .     S
O294   Zn297   1.959   .     S
O294   C296    1.297   .     A
O295   Zn298   1.921   .     S
O295   C296    1.291   .     A
C296   C321    1.465   .     S
Zn297  O301    1.921   .     S
Zn297  N340    2.013   .     S
Zn297  O299    1.995   .     S
Zn298  O302    1.959   .     S
Zn298  N344    2.013   .     S
Zn298  O300    1.998   .     S
O299   C303    1.283   .     A
O300   C303    1.284   .     A
O301   C304    1.288   .     A
O302   C304    1.297   .     A
C303   C330    1.417   .     S
C304   C309    1.457   .     S
C305   C320    1.399   .     A
C305   H830    1.083   1_554 S
C305   C838    1.404   1_554 S
H306   C320    1.082   .     S
H307   C317    1.083   .     S
H308   C827    1.083   .     S
C309   C320    1.403   .     A
C309   C319    1.404   .     A
C310   C311    1.387   .     A
C310   H322    1.083   .     S
C310   C321    1.402   .     A
C311   C834    1.390   .     S
C311   H846    1.082   .     S
C312   H323    1.080   .     S
C312   C833    1.390   1_554 S
C312   C835    1.415   1_554 S
C313   C314    1.410   .     A
C313   C834    1.415   .     S
C313   C837    1.414   .     S
C314   C321    1.420   .     A
C314   C318    1.417   .     A
C315   C319    1.387   .     A
C315   C835    1.414   1_554 S
C315   C838    1.413   1_554 S
C316   C317    1.391   .     A
C316   C827    1.404   .     S
C316   C837    1.413   .     S
C317   C318    1.391   .     A
C318   H325    1.078   .     S
C319   Br348   1.945   .     S
H324   C833    1.082   1_554 S
C326   C335    1.397   .     A
C326   H327    1.084   .     S
C326   C502    1.371   .     S
C328   C330    1.396   .     A
C328   H329    1.084   .     S
C330   C331    1.397   .     A
C331   H332    1.084   .     S
C333   C335    1.396   .     A
C333   H334    1.083   .     S
C333   C505    1.370   .     S
C336   N344    1.367   .     A
C336   H337    1.082   .     S
C336   C222    1.417   1_655 S
C338   H339    1.082   .     S
C338   N340    1.366   .     A
N340   C341    1.379   .     A
C341   N345    1.430   .     S
C342   N344    1.359   .     A
C342   H343    1.080   .     S
C342   C225    1.415   1_655 S
N345   O346    1.299   .     A
N345   O347    1.301   .     A
O349   C351    1.285   .     A
O349   Zn355   1.998   .     S
O350   C351    1.283   .     A
O350   Zn356   1.995   .     S
C351   C393    1.417   .     S
O352   Zn355   1.959   .     S
O352   C354    1.297   .     A
O353   Zn356   1.921   .     S
O353   C354    1.291   .     A
C354   C379    1.465   .     S
Zn355  O359    1.921   .     S
Zn355  N398    2.013   .     S
Zn355  O357    1.995   .     S
Zn356  O360    1.959   .     S
Zn356  N402    2.013   .     S
Zn356  O358    1.998   .     S
O357   C361    1.283   .     A
O358   C361    1.284   .     A
O359   C362    1.288   .     A
O360   C362    1.297   .     A
C361   C388    1.417   .     S
C362   C367    1.457   .     S
C363   C378    1.399   .     A
C363   H888    1.083   1_554 S
C363   C896    1.404   1_554 S
H364   C378    1.082   .     S
H365   C375    1.083   .     S
H366   C885    1.083   .     S
C367   C378    1.403   .     A
C367   C377    1.404   .     A
C368   C369    1.387   .     A
C368   H380    1.083   .     S
C368   C379    1.402   .     A
C369   C892    1.390   .     S
C369   H904    1.082   .     S
C370   H381    1.080   .     S
C370   C891    1.390   1_554 S
C370   C893    1.415   1_554 S
C371   C372    1.410   .     A
C371   C892    1.415   .     S
C371   C895    1.414   .     S
C372   C379    1.420   .     A
C372   C376    1.417   .     A
C373   C377    1.387   .     A
C373   C893    1.414   1_554 S
C373   C896    1.413   1_554 S
C374   C375    1.391   .     A
C374   C885    1.404   .     S
C374   C895    1.413   .     S
C375   C376    1.391   .     A
C376   H383    1.078   .     S
C377   Br406   1.945   .     S
H382   C891    1.082   1_554 S
C384   C393    1.397   .     A
C384   H385    1.084   .     S
C384   C38     1.371   1_565 S
C386   C388    1.396   .     A
C386   H387    1.084   .     S
C388   C389    1.397   .     A
C389   H390    1.084   .     S
C391   C393    1.396   .     A
C391   H392    1.083   .     S
C391   C41     1.370   1_565 S
C394   N402    1.367   .     A
C394   H395    1.082   .     S
C394   C454    1.417   .     S
C396   H397    1.082   .     S
C396   N398    1.366   .     A
C396   C510    1.417   1_455 S
N398   C399    1.379   .     A
C399   N403    1.430   .     S
C399   C516    1.415   1_455 S
C400   N402    1.359   .     A
C400   H401    1.080   .     S
C400   C457    1.415   .     S
N403   O404    1.299   .     A
N403   O405    1.301   .     A
O407   C409    1.285   .     A
O407   Zn413   1.998   .     S
O408   C409    1.283   .     A
O408   Zn414   1.995   .     S
C409   C451    1.417   .     S
O410   Zn413   1.959   .     S
O410   C412    1.297   .     A
O411   Zn414   1.921   .     S
O411   C412    1.291   .     A
C412   C437    1.465   .     S
Zn413  O417    1.921   .     S
Zn413  N456    2.013   .     S
Zn413  O415    1.995   .     S
Zn414  O418    1.959   .     S
Zn414  N460    2.013   .     S
Zn414  O416    1.998   .     S
O415   C419    1.283   .     A
O416   C419    1.284   .     A
O417   C420    1.288   .     A
O418   C420    1.297   .     A
C419   C446    1.417   .     S
C420   C425    1.457   .     S
C421   C436    1.399   .     A
C421   H946    1.083   1_554 S
C421   C954    1.404   1_554 S
H422   C436    1.082   .     S
H423   C433    1.083   .     S
H424   C943    1.083   .     S
C425   C436    1.403   .     A
C425   C435    1.404   .     A
C426   C427    1.387   .     A
C426   H438    1.083   .     S
C426   C437    1.402   .     A
C427   C950    1.390   .     S
C427   H962    1.082   .     S
C428   H439    1.080   .     S
C428   C949    1.390   1_554 S
C428   C951    1.415   1_554 S
C429   C430    1.410   .     A
C429   C950    1.415   .     S
C429   C953    1.414   .     S
C430   C437    1.420   .     A
C430   C434    1.417   .     A
C431   C435    1.387   .     A
C431   C951    1.414   1_554 S
C431   C954    1.413   1_554 S
C432   C433    1.391   .     A
C432   C943    1.404   .     S
C432   C953    1.413   .     S
C433   C434    1.391   .     A
C434   H441    1.078   .     S
C435   Br464   1.945   .     S
H440   C949    1.082   1_554 S
C442   C451    1.397   .     A
C442   H443    1.084   .     S
C442   C96     1.371   1_565 S
C444   C446    1.396   .     A
C444   H445    1.084   .     S
C446   C447    1.397   .     A
C447   H448    1.084   .     S
C449   C451    1.396   .     A
C449   H450    1.083   .     S
C449   C99     1.370   1_565 S
C452   N460    1.367   .     A
C452   H453    1.082   .     S
C452   C512    1.417   .     S
C454   H455    1.082   .     S
C454   N456    1.366   .     A
N456   C457    1.379   .     A
C457   N461    1.430   .     S
C458   N460    1.359   .     A
C458   H459    1.080   .     S
C458   C515    1.415   .     S
N461   O462    1.299   .     A
N461   O463    1.301   .     A
O465   C467    1.285   .     A
O465   Zn471   1.998   .     S
O466   C467    1.283   .     A
O466   Zn472   1.995   .     S
C467   C509    1.417   .     S
O468   Zn471   1.959   .     S
O468   C470    1.297   .     A
O469   Zn472   1.921   .     S
O469   C470    1.291   .     A
C470   C495    1.465   .     S
Zn471  O475    1.921   .     S
Zn471  N514    2.013   .     S
Zn471  O473    1.995   .     S
Zn472  O476    1.959   .     S
Zn472  N518    2.013   .     S
Zn472  O474    1.998   .     S
O473   C477    1.283   .     A
O474   C477    1.284   .     A
O475   C478    1.288   .     A
O476   C478    1.297   .     A
C477   C504    1.417   .     S
C478   C483    1.457   .     S
C479   C494    1.399   .     A
C479   H1004   1.083   1_554 S
C479   C1012   1.404   1_554 S
H480   C494    1.082   .     S
H481   C491    1.083   .     S
H482   C1001   1.083   .     S
C483   C494    1.403   .     A
C483   C493    1.404   .     A
C484   C485    1.387   .     A
C484   H496    1.083   .     S
C484   C495    1.402   .     A
C485   C1008   1.390   .     S
C485   H1020   1.082   .     S
C486   H497    1.080   .     S
C486   C1007   1.390   1_554 S
C486   C1009   1.415   1_554 S
C487   C488    1.410   .     A
C487   C1008   1.415   .     S
C487   C1011   1.414   .     S
C488   C495    1.420   .     A
C488   C492    1.417   .     A
C489   C493    1.387   .     A
C489   C1009   1.414   1_554 S
C489   C1012   1.413   1_554 S
C490   C491    1.391   .     A
C490   C1001   1.404   .     S
C490   C1011   1.413   .     S
C491   C492    1.391   .     A
C492   H499    1.078   .     S
C493   Br522   1.945   .     S
H498   C1007   1.082   1_554 S
C500   C509    1.397   .     A
C500   H501    1.084   .     S
C500   C154    1.371   1_565 S
C502   C504    1.396   .     A
C502   H503    1.084   .     S
C504   C505    1.397   .     A
C505   H506    1.084   .     S
C507   C509    1.396   .     A
C507   H508    1.083   .     S
C507   C157    1.370   1_565 S
C510   N518    1.367   .     A
C510   H511    1.082   .     S
C510   C396    1.417   1_655 S
C512   H513    1.082   .     S
C512   N514    1.366   .     A
N514   C515    1.379   .     A
C515   N519    1.430   .     S
C516   N518    1.359   .     A
C516   H517    1.080   .     S
C516   C399    1.415   1_655 S
N519   O520    1.299   .     A
N519   O521    1.301   .     A
O523   C525    1.285   .     A
O523   Zn529   1.998   .     S
O524   C525    1.283   .     A
O524   Zn530   1.995   .     S
C525   C567    1.417   .     S
O526   Zn529   1.959   .     S
O526   C528    1.297   .     A
O527   Zn530   1.921   .     S
O527   C528    1.291   .     A
C528   C553    1.465   .     S
Zn529  O533    1.921   .     S
Zn529  N572    2.013   .     S
Zn529  O531    1.995   .     S
Zn530  O534    1.959   .     S
Zn530  N576    2.013   .     S
Zn530  O532    1.998   .     S
O531   C535    1.283   .     A
O532   C535    1.284   .     A
O533   C536    1.288   .     A
O534   C536    1.297   .     A
C535   C562    1.417   .     S
C536   C541    1.457   .     S
C537   C552    1.399   .     A
H538   C552    1.082   .     S
H539   C549    1.083   .     S
H540   C15     1.083   1_556 S
C541   C552    1.403   .     A
C541   C551    1.404   .     A
C542   C543    1.387   .     A
C542   H554    1.083   .     S
C542   C553    1.402   .     A
C543   C22     1.390   1_556 S
C543   H34     1.082   1_556 S
C544   H555    1.080   .     S
C545   C546    1.410   .     A
C545   C22     1.415   1_556 S
C545   C25     1.414   1_556 S
C546   C553    1.420   .     A
C546   C550    1.417   .     A
C547   C551    1.387   .     A
C548   C549    1.391   .     A
C548   C15     1.404   1_556 S
C548   C25     1.413   1_556 S
C549   C550    1.391   .     A
C550   H557    1.078   .     S
C551   Br580   1.945   .     S
C558   C567    1.397   .     A
C558   H559    1.084   .     S
C558   C734    1.371   .     S
C560   C562    1.396   .     A
C560   H561    1.084   .     S
C560   C906    1.371   1_545 S
C562   C563    1.397   .     A
C563   H564    1.084   .     S
C563   C913    1.370   1_545 S
C565   C567    1.396   .     A
C565   H566    1.083   .     S
C565   C737    1.370   .     S
C568   N576    1.367   .     A
C568   H569    1.082   .     S
C568   C628    1.417   .     S
C570   H571    1.082   .     S
C570   N572    1.366   .     A
C570   C684    1.417   1_455 S
N572   C573    1.379   .     A
C573   N577    1.430   .     S
C573   C690    1.415   1_455 S
C574   N576    1.359   .     A
C574   H575    1.080   .     S
C574   C631    1.415   .     S
N577   O578    1.299   .     A
N577   O579    1.301   .     A
O581   C583    1.285   .     A
O581   Zn587   1.998   .     S
O582   C583    1.283   .     A
O582   Zn588   1.995   .     S
C583   C625    1.417   .     S
O584   Zn587   1.959   .     S
O584   C586    1.297   .     A
O585   Zn588   1.921   .     S
O585   C586    1.291   .     A
C586   C611    1.465   .     S
Zn587  O591    1.921   .     S
Zn587  N630    2.013   .     S
Zn587  O589    1.995   .     S
Zn588  O592    1.959   .     S
Zn588  N634    2.013   .     S
Zn588  O590    1.998   .     S
O589   C593    1.283   .     A
O590   C593    1.284   .     A
O591   C594    1.288   .     A
O592   C594    1.297   .     A
C593   C620    1.417   .     S
C594   C599    1.457   .     S
C595   C610    1.399   .     A
H596   C610    1.082   .     S
H597   C607    1.083   .     S
H598   C73     1.083   1_556 S
C599   C610    1.403   .     A
C599   C609    1.404   .     A
C600   C601    1.387   .     A
C600   H612    1.083   .     S
C600   C611    1.402   .     A
C601   C80     1.390   1_556 S
C601   H92     1.082   1_556 S
C602   H613    1.080   .     S
C603   C604    1.410   .     A
C603   C80     1.415   1_556 S
C603   C83     1.414   1_556 S
C604   C611    1.420   .     A
C604   C608    1.417   .     A
C605   C609    1.387   .     A
C606   C607    1.391   .     A
C606   C73     1.404   1_556 S
C606   C83     1.413   1_556 S
C607   C608    1.391   .     A
C608   H615    1.078   .     S
C609   Br638   1.945   .     S
C616   C625    1.397   .     A
C616   H617    1.084   .     S
C616   C792    1.371   .     S
C618   C620    1.396   .     A
C618   H619    1.084   .     S
C618   C964    1.371   1_545 S
C620   C621    1.397   .     A
C621   H622    1.084   .     S
C621   C971    1.370   1_545 S
C623   C625    1.396   .     A
C623   H624    1.083   .     S
C623   C795    1.370   .     S
C626   N634    1.367   .     A
C626   H627    1.082   .     S
C626   C686    1.417   .     S
C628   H629    1.082   .     S
C628   N630    1.366   .     A
N630   C631    1.379   .     A
C631   N635    1.430   .     S
C632   N634    1.359   .     A
C632   H633    1.080   .     S
C632   C689    1.415   .     S
N635   O636    1.299   .     A
N635   O637    1.301   .     A
O639   C641    1.285   .     A
O639   Zn645   1.998   .     S
O640   C641    1.283   .     A
O640   Zn646   1.995   .     S
C641   C683    1.417   .     S
O642   Zn645   1.959   .     S
O642   C644    1.297   .     A
O643   Zn646   1.921   .     S
O643   C644    1.291   .     A
C644   C669    1.465   .     S
Zn645  O649    1.921   .     S
Zn645  N688    2.013   .     S
Zn645  O647    1.995   .     S
Zn646  O650    1.959   .     S
Zn646  N692    2.013   .     S
Zn646  O648    1.998   .     S
O647   C651    1.283   .     A
O648   C651    1.284   .     A
O649   C652    1.288   .     A
O650   C652    1.297   .     A
C651   C678    1.417   .     S
C652   C657    1.457   .     S
C653   C668    1.399   .     A
H654   C668    1.082   .     S
H655   C665    1.083   .     S
H656   C131    1.083   1_556 S
C657   C668    1.403   .     A
C657   C667    1.404   .     A
C658   C659    1.387   .     A
C658   H670    1.083   .     S
C658   C669    1.402   .     A
C659   C138    1.390   1_556 S
C659   H150    1.082   1_556 S
C660   H671    1.080   .     S
C661   C662    1.410   .     A
C661   C138    1.415   1_556 S
C661   C141    1.414   1_556 S
C662   C669    1.420   .     A
C662   C666    1.417   .     A
C663   C667    1.387   .     A
C664   C665    1.391   .     A
C664   C131    1.404   1_556 S
C664   C141    1.413   1_556 S
C665   C666    1.391   .     A
C666   H673    1.078   .     S
C667   Br696   1.945   .     S
C674   C683    1.397   .     A
C674   H675    1.084   .     S
C674   C850    1.371   .     S
C676   C678    1.396   .     A
C676   H677    1.084   .     S
C676   C1022   1.371   1_545 S
C678   C679    1.397   .     A
C679   H680    1.084   .     S
C679   C1029   1.370   1_545 S
C681   C683    1.396   .     A
C681   H682    1.083   .     S
C681   C853    1.370   .     S
C684   N692    1.367   .     A
C684   H685    1.082   .     S
C684   C570    1.417   1_655 S
C686   H687    1.082   .     S
C686   N688    1.366   .     A
N688   C689    1.379   .     A
C689   N693    1.430   .     S
C690   N692    1.359   .     A
C690   H691    1.080   .     S
C690   C573    1.415   1_655 S
N693   O694    1.299   .     A
N693   O695    1.301   .     A
O697   C699    1.285   .     A
O697   Zn703   1.998   .     S
O698   C699    1.283   .     A
O698   Zn704   1.995   .     S
C699   C741    1.417   .     S
O700   Zn703   1.959   .     S
O700   C702    1.297   .     A
O701   Zn704   1.921   .     S
O701   C702    1.291   .     A
C702   C727    1.465   .     S
Zn703  O707    1.921   .     S
Zn703  N746    2.013   .     S
Zn703  O705    1.995   .     S
Zn704  O708    1.959   .     S
Zn704  N750    2.013   .     S
Zn704  O706    1.998   .     S
O705   C709    1.283   .     A
O706   C709    1.284   .     A
O707   C710    1.288   .     A
O708   C710    1.297   .     A
C709   C736    1.417   .     S
C710   C715    1.457   .     S
C711   C726    1.399   .     A
H712   C726    1.082   .     S
H713   C723    1.083   .     S
H714   C189    1.083   1_556 S
C715   C726    1.403   .     A
C715   C725    1.404   .     A
C716   C717    1.387   .     A
C716   H728    1.083   .     S
C716   C727    1.402   .     A
C717   C196    1.390   1_556 S
C717   H208    1.082   1_556 S
C718   H729    1.080   .     S
C719   C720    1.410   .     A
C719   C196    1.415   1_556 S
C719   C199    1.414   1_556 S
C720   C727    1.420   .     A
C720   C724    1.417   .     A
C721   C725    1.387   .     A
C722   C723    1.391   .     A
C722   C189    1.404   1_556 S
C722   C199    1.413   1_556 S
C723   C724    1.391   .     A
C724   H731    1.078   .     S
C725   Br754   1.945   .     S
C732   C741    1.397   .     A
C732   H733    1.084   .     S
C732   C908    1.371   .     S
C734   C736    1.396   .     A
C734   H735    1.084   .     S
C736   C737    1.397   .     A
C737   H738    1.084   .     S
C739   C741    1.396   .     A
C739   H740    1.083   .     S
C739   C911    1.370   .     S
C742   N750    1.367   .     A
C742   H743    1.082   .     S
C742   C802    1.417   .     S
C744   H745    1.082   .     S
C744   N746    1.366   .     A
C744   C858    1.417   1_455 S
N746   C747    1.379   .     A
C747   N751    1.430   .     S
C747   C864    1.415   1_455 S
C748   N750    1.359   .     A
C748   H749    1.080   .     S
C748   C805    1.415   .     S
N751   O752    1.299   .     A
N751   O753    1.301   .     A
O755   C757    1.285   .     A
O755   Zn761   1.998   .     S
O756   C757    1.283   .     A
O756   Zn762   1.995   .     S
C757   C799    1.417   .     S
O758   Zn761   1.959   .     S
O758   C760    1.297   .     A
O759   Zn762   1.921   .     S
O759   C760    1.291   .     A
C760   C785    1.465   .     S
Zn761  O765    1.921   .     S
Zn761  N804    2.013   .     S
Zn761  O763    1.995   .     S
Zn762  O766    1.959   .     S
Zn762  N808    2.013   .     S
Zn762  O764    1.998   .     S
O763   C767    1.283   .     A
O764   C767    1.284   .     A
O765   C768    1.288   .     A
O766   C768    1.297   .     A
C767   C794    1.417   .     S
C768   C773    1.457   .     S
C769   C784    1.399   .     A
H770   C784    1.082   .     S
H771   C781    1.083   .     S
H772   C247    1.083   1_556 S
C773   C784    1.403   .     A
C773   C783    1.404   .     A
C774   C775    1.387   .     A
C774   H786    1.083   .     S
C774   C785    1.402   .     A
C775   C254    1.390   1_556 S
C775   H266    1.082   1_556 S
C776   H787    1.080   .     S
C777   C778    1.410   .     A
C777   C254    1.415   1_556 S
C777   C257    1.414   1_556 S
C778   C785    1.420   .     A
C778   C782    1.417   .     A
C779   C783    1.387   .     A
C780   C781    1.391   .     A
C780   C247    1.404   1_556 S
C780   C257    1.413   1_556 S
C781   C782    1.391   .     A
C782   H789    1.078   .     S
C783   Br812   1.945   .     S
C790   C799    1.397   .     A
C790   H791    1.084   .     S
C790   C966    1.371   .     S
C792   C794    1.396   .     A
C792   H793    1.084   .     S
C794   C795    1.397   .     A
C795   H796    1.084   .     S
C797   C799    1.396   .     A
C797   H798    1.083   .     S
C797   C969    1.370   .     S
C800   N808    1.367   .     A
C800   H801    1.082   .     S
C800   C860    1.417   .     S
C802   H803    1.082   .     S
C802   N804    1.366   .     A
N804   C805    1.379   .     A
C805   N809    1.430   .     S
C806   N808    1.359   .     A
C806   H807    1.080   .     S
C806   C863    1.415   .     S
N809   O810    1.299   .     A
N809   O811    1.301   .     A
O813   C815    1.285   .     A
O813   Zn819   1.998   .     S
O814   C815    1.283   .     A
O814   Zn820   1.995   .     S
C815   C857    1.417   .     S
O816   Zn819   1.959   .     S
O816   C818    1.297   .     A
O817   Zn820   1.921   .     S
O817   C818    1.291   .     A
C818   C843    1.465   .     S
Zn819  O823    1.921   .     S
Zn819  N862    2.013   .     S
Zn819  O821    1.995   .     S
Zn820  O824    1.959   .     S
Zn820  N866    2.013   .     S
Zn820  O822    1.998   .     S
O821   C825    1.283   .     A
O822   C825    1.284   .     A
O823   C826    1.288   .     A
O824   C826    1.297   .     A
C825   C852    1.417   .     S
C826   C831    1.457   .     S
C827   C842    1.399   .     A
H828   C842    1.082   .     S
H829   C839    1.083   .     S
H830   C305    1.083   1_556 S
C831   C842    1.403   .     A
C831   C841    1.404   .     A
C832   C833    1.387   .     A
C832   H844    1.083   .     S
C832   C843    1.402   .     A
C833   C312    1.390   1_556 S
C833   H324    1.082   1_556 S
C834   H845    1.080   .     S
C835   C836    1.410   .     A
C835   C312    1.415   1_556 S
C835   C315    1.414   1_556 S
C836   C843    1.420   .     A
C836   C840    1.417   .     A
C837   C841    1.387   .     A
C838   C839    1.391   .     A
C838   C305    1.404   1_556 S
C838   C315    1.413   1_556 S
C839   C840    1.391   .     A
C840   H847    1.078   .     S
C841   Br870   1.945   .     S
C848   C857    1.397   .     A
C848   H849    1.084   .     S
C848   C1024   1.371   .     S
C850   C852    1.396   .     A
C850   H851    1.084   .     S
C852   C853    1.397   .     A
C853   H854    1.084   .     S
C855   C857    1.396   .     A
C855   H856    1.083   .     S
C855   C1027   1.370   .     S
C858   N866    1.367   .     A
C858   H859    1.082   .     S
C858   C744    1.417   1_655 S
C860   H861    1.082   .     S
C860   N862    1.366   .     A
N862   C863    1.379   .     A
C863   N867    1.430   .     S
C864   N866    1.359   .     A
C864   H865    1.080   .     S
C864   C747    1.415   1_655 S
N867   O868    1.299   .     A
N867   O869    1.301   .     A
O871   C873    1.285   .     A
O871   Zn877   1.998   .     S
O872   C873    1.283   .     A
O872   Zn878   1.995   .     S
C873   C915    1.417   .     S
O874   Zn877   1.959   .     S
O874   C876    1.297   .     A
O875   Zn878   1.921   .     S
O875   C876    1.291   .     A
C876   C901    1.465   .     S
Zn877  O881    1.921   .     S
Zn877  N920    2.013   .     S
Zn877  O879    1.995   .     S
Zn878  O882    1.959   .     S
Zn878  N924    2.013   .     S
Zn878  O880    1.998   .     S
O879   C883    1.283   .     A
O880   C883    1.284   .     A
O881   C884    1.288   .     A
O882   C884    1.297   .     A
C883   C910    1.417   .     S
C884   C889    1.457   .     S
C885   C900    1.399   .     A
H886   C900    1.082   .     S
H887   C897    1.083   .     S
H888   C363    1.083   1_556 S
C889   C900    1.403   .     A
C889   C899    1.404   .     A
C890   C891    1.387   .     A
C890   H902    1.083   .     S
C890   C901    1.402   .     A
C891   C370    1.390   1_556 S
C891   H382    1.082   1_556 S
C892   H903    1.080   .     S
C893   C894    1.410   .     A
C893   C370    1.415   1_556 S
C893   C373    1.414   1_556 S
C894   C901    1.420   .     A
C894   C898    1.417   .     A
C895   C899    1.387   .     A
C896   C897    1.391   .     A
C896   C363    1.404   1_556 S
C896   C373    1.413   1_556 S
C897   C898    1.391   .     A
C898   H905    1.078   .     S
C899   Br928   1.945   .     S
C906   C915    1.397   .     A
C906   H907    1.084   .     S
C906   C560    1.371   1_565 S
C908   C910    1.396   .     A
C908   H909    1.084   .     S
C910   C911    1.397   .     A
C911   H912    1.084   .     S
C913   C915    1.396   .     A
C913   H914    1.083   .     S
C913   C563    1.370   1_565 S
C916   N924    1.367   .     A
C916   H917    1.082   .     S
C916   C976    1.417   .     S
C918   H919    1.082   .     S
C918   N920    1.366   .     A
C918   C1032   1.417   1_455 S
N920   C921    1.379   .     A
C921   N925    1.430   .     S
C921   C1038   1.415   1_455 S
C922   N924    1.359   .     A
C922   H923    1.080   .     S
C922   C979    1.415   .     S
N925   O926    1.299   .     A
N925   O927    1.301   .     A
O929   C931    1.285   .     A
O929   Zn935   1.998   .     S
O930   C931    1.283   .     A
O930   Zn936   1.995   .     S
C931   C973    1.417   .     S
O932   Zn935   1.959   .     S
O932   C934    1.297   .     A
O933   Zn936   1.921   .     S
O933   C934    1.291   .     A
C934   C959    1.465   .     S
Zn935  O939    1.921   .     S
Zn935  N978    2.013   .     S
Zn935  O937    1.995   .     S
Zn936  O940    1.959   .     S
Zn936  N982    2.013   .     S
Zn936  O938    1.998   .     S
O937   C941    1.283   .     A
O938   C941    1.284   .     A
O939   C942    1.288   .     A
O940   C942    1.297   .     A
C941   C968    1.417   .     S
C942   C947    1.457   .     S
C943   C958    1.399   .     A
H944   C958    1.082   .     S
H945   C955    1.083   .     S
H946   C421    1.083   1_556 S
C947   C958    1.403   .     A
C947   C957    1.404   .     A
C948   C949    1.387   .     A
C948   H960    1.083   .     S
C948   C959    1.402   .     A
C949   C428    1.390   1_556 S
C949   H440    1.082   1_556 S
C950   H961    1.080   .     S
C951   C952    1.410   .     A
C951   C428    1.415   1_556 S
C951   C431    1.414   1_556 S
C952   C959    1.420   .     A
C952   C956    1.417   .     A
C953   C957    1.387   .     A
C954   C955    1.391   .     A
C954   C421    1.404   1_556 S
C954   C431    1.413   1_556 S
C955   C956    1.391   .     A
C956   H963    1.078   .     S
C957   Br986   1.945   .     S
C964   C973    1.397   .     A
C964   H965    1.084   .     S
C964   C618    1.371   1_565 S
C966   C968    1.396   .     A
C966   H967    1.084   .     S
C968   C969    1.397   .     A
C969   H970    1.084   .     S
C971   C973    1.396   .     A
C971   H972    1.083   .     S
C971   C621    1.370   1_565 S
C974   N982    1.367   .     A
C974   H975    1.082   .     S
C974   C1034   1.417   .     S
C976   H977    1.082   .     S
C976   N978    1.366   .     A
N978   C979    1.379   .     A
C979   N983    1.430   .     S
C980   N982    1.359   .     A
C980   H981    1.080   .     S
C980   C1037   1.415   .     S
N983   O984    1.299   .     A
N983   O985    1.301   .     A
O987   C989    1.285   .     A
O987   Zn993   1.998   .     S
O988   C989    1.283   .     A
O988   Zn994   1.995   .     S
C989   C1031   1.417   .     S
O990   Zn993   1.959   .     S
O990   C992    1.297   .     A
O991   Zn994   1.921   .     S
O991   C992    1.291   .     A
C992   C1017   1.465   .     S
Zn993  O997    1.921   .     S
Zn993  N1036   2.013   .     S
Zn993  O995    1.995   .     S
Zn994  O998    1.959   .     S
Zn994  N1040   2.013   .     S
Zn994  O996    1.998   .     S
O995   C999    1.283   .     A
O996   C999    1.284   .     A
O997   C1000   1.288   .     A
O998   C1000   1.297   .     A
C999   C1026   1.417   .     S
C1000  C1005   1.457   .     S
C1001  C1016   1.399   .     A
H1002  C1016   1.082   .     S
H1003  C1013   1.083   .     S
H1004  C479    1.083   1_556 S
C1005  C1016   1.403   .     A
C1005  C1015   1.404   .     A
C1006  C1007   1.387   .     A
C1006  H1018   1.083   .     S
C1006  C1017   1.402   .     A
C1007  C486    1.390   1_556 S
C1007  H498    1.082   1_556 S
C1008  H1019   1.080   .     S
C1009  C1010   1.410   .     A
C1009  C486    1.415   1_556 S
C1009  C489    1.414   1_556 S
C1010  C1017   1.420   .     A
C1010  C1014   1.417   .     A
C1011  C1015   1.387   .     A
C1012  C1013   1.391   .     A
C1012  C479    1.404   1_556 S
C1012  C489    1.413   1_556 S
C1013  C1014   1.391   .     A
C1014  H1021   1.078   .     S
C1015  Br1044  1.945   .     S
C1022  C1031   1.397   .     A
C1022  H1023   1.084   .     S
C1022  C676    1.371   1_565 S
C1024  C1026   1.396   .     A
C1024  H1025   1.084   .     S
C1026  C1027   1.397   .     A
C1027  H1028   1.084   .     S
C1029  C1031   1.396   .     A
C1029  H1030   1.083   .     S
C1029  C679    1.370   1_565 S
C1032  N1040   1.367   .     A
C1032  H1033   1.082   .     S
C1032  C918    1.417   1_655 S
C1034  H1035   1.082   .     S
C1034  N1036   1.366   .     A
N1036  C1037   1.379   .     A
C1037  N1041   1.430   .     S
C1038  N1040   1.359   .     A
C1038  H1039   1.080   .     S
C1038  C921    1.415   1_655 S
N1041  O1042   1.299   .     A
N1041  O1043   1.301   .     A
