data_str_m3_o1_o10_pcu_sym.163
_audit_creation_date              2020-01-03
_audit_creation_method            'Materials Studio'
_symmetry_space_group_name_H-M    'P1'
_symmetry_Int_Tables_number       1
_symmetry_cell_setting            triclinic
loop_
_symmetry_equiv_pos_as_xyz
  x,y,z
_cell_length_a                    25.8454
_cell_length_b                    32.0509
_cell_length_c                    29.6540
_cell_angle_alpha                 90.2056
_cell_angle_beta                  97.8305
_cell_angle_gamma                 91.0504
loop_
_atom_site_label
_atom_site_type_symbol
_atom_site_fract_x
_atom_site_fract_y
_atom_site_fract_z
_atom_site_U_iso_or_equiv
_atom_site_adp_type
_atom_site_occupancy
C1     C     0.16553   0.08674   0.16652   0.00000  Uiso   1.00
C2     C     0.16780   0.24660   0.16682   0.00000  Uiso   1.00
C3     C     0.06726   0.16672   0.15517   0.00000  Uiso   1.00
C4     C     0.26607   0.16662   0.17816   0.00000  Uiso   1.00
C5     C     0.01365   0.17430   0.15072   0.00000  Uiso   1.00
C6     C     0.31968   0.15904   0.18261   0.00000  Uiso   1.00
C7     C     0.19397   0.02249   0.13680   0.00000  Uiso   1.00
C8     C     0.13937   0.31085   0.19653   0.00000  Uiso   1.00
C9     C     0.19602   0.31294   0.13685   0.00000  Uiso   1.00
C10    C     0.13731   0.02039   0.19649   0.00000  Uiso   1.00
C11    C     0.16828   0.29076   0.16681   0.00000  Uiso   1.00
C12    C     0.16505   0.04258   0.16652   0.00000  Uiso   1.00
C13    C     0.19746   0.19413   0.02797   0.00000  Uiso   1.00
C14    C     0.13588   0.13920   0.30537   0.00000  Uiso   1.00
C15    C     0.19789   0.19406   0.31364   0.00000  Uiso   1.00
C16    C     0.13544   0.13927   0.01969   0.00000  Uiso   1.00
H17    H     0.21583   0.04007   0.11428   0.00000  Uiso   1.00
H18    H     0.11750   0.29326   0.21905   0.00000  Uiso   1.00
H19    H     0.22168   0.21628   0.04920   0.00000  Uiso   1.00
H20    H     0.11165   0.11706   0.28414   0.00000  Uiso   1.00
N21    N     0.16665   0.16666   0.28573   0.00000  Uiso   1.00
N22    N     0.16668   0.16668   0.04760   0.00000  Uiso   1.00
O23    O     0.16666   0.10558   0.20487   0.00000  Uiso   1.00
O24    O     0.16667   0.22775   0.12846   0.00000  Uiso   1.00
O25    O     0.16666   0.10559   0.12843   0.00000  Uiso   1.00
O26    O     0.16667   0.22774   0.20490   0.00000  Uiso   1.00
O27    O     0.09058   0.16666   0.19595   0.00000  Uiso   1.00
O28    O     0.24275   0.16667   0.13739   0.00000  Uiso   1.00
O29    O     0.09058   0.16667   0.11950   0.00000  Uiso   1.00
O30    O     0.24275   0.16666   0.21383   0.00000  Uiso   1.00
Zn31   Zn    0.16667   0.16666   0.21771   0.00000  Uiso   1.00
Zn32   Zn    0.16667   0.16667   0.11563   0.00000  Uiso   1.00
Br33   Br    0.32331   0.21632   0.10626   0.00000  Uiso   1.00
Br34   Br    0.01003   0.11701   0.22708   0.00000  Uiso   1.00
N35    N     0.22722   0.29215   0.10756   0.00000  Uiso   1.00
H36    H     0.26565   0.30347   0.11506   0.00000  Uiso   1.00
H37    H     0.21355   0.30016   0.07395   0.00000  Uiso   1.00
N38    N     0.10611   0.04119   0.22578   0.00000  Uiso   1.00
H39    H     0.11979   0.03318   0.25939   0.00000  Uiso   1.00
H40    H     0.06769   0.02986   0.21828   0.00000  Uiso   1.00
Br41   Br    0.24428   0.23289   0.29011   0.00000  Uiso   1.00
Br42   Br    0.08905   0.10044   0.04322   0.00000  Uiso   1.00
C43    C     0.49886   0.08674   0.16652   0.00000  Uiso   1.00
C44    C     0.50114   0.24660   0.16682   0.00000  Uiso   1.00
C45    C     0.40059   0.16672   0.15517   0.00000  Uiso   1.00
C46    C     0.59941   0.16662   0.17816   0.00000  Uiso   1.00
C47    C     0.34699   0.17430   0.15072   0.00000  Uiso   1.00
C48    C     0.65301   0.15904   0.18261   0.00000  Uiso   1.00
C49    C     0.52730   0.02249   0.13680   0.00000  Uiso   1.00
C50    C     0.47270   0.31085   0.19653   0.00000  Uiso   1.00
C51    C     0.52936   0.31294   0.13685   0.00000  Uiso   1.00
C52    C     0.47064   0.02039   0.19649   0.00000  Uiso   1.00
C53    C     0.50162   0.29076   0.16681   0.00000  Uiso   1.00
C54    C     0.49838   0.04258   0.16652   0.00000  Uiso   1.00
C55    C     0.53079   0.19413   0.02797   0.00000  Uiso   1.00
C56    C     0.46921   0.13920   0.30537   0.00000  Uiso   1.00
C57    C     0.53123   0.19406   0.31364   0.00000  Uiso   1.00
C58    C     0.46877   0.13927   0.01969   0.00000  Uiso   1.00
H59    H     0.54916   0.04007   0.11428   0.00000  Uiso   1.00
H60    H     0.45084   0.29326   0.21905   0.00000  Uiso   1.00
H61    H     0.55501   0.21628   0.04920   0.00000  Uiso   1.00
H62    H     0.44499   0.11706   0.28414   0.00000  Uiso   1.00
N63    N     0.49999   0.16666   0.28573   0.00000  Uiso   1.00
N64    N     0.50001   0.16668   0.04760   0.00000  Uiso   1.00
O65    O     0.50000   0.10558   0.20487   0.00000  Uiso   1.00
O66    O     0.50000   0.22775   0.12846   0.00000  Uiso   1.00
O67    O     0.50000   0.10559   0.12843   0.00000  Uiso   1.00
O68    O     0.50000   0.22774   0.20490   0.00000  Uiso   1.00
O69    O     0.42392   0.16666   0.19595   0.00000  Uiso   1.00
O70    O     0.57608   0.16667   0.13739   0.00000  Uiso   1.00
O71    O     0.42392   0.16667   0.11950   0.00000  Uiso   1.00
O72    O     0.57608   0.16666   0.21383   0.00000  Uiso   1.00
Zn73   Zn    0.50000   0.16666   0.21771   0.00000  Uiso   1.00
Zn74   Zn    0.50000   0.16667   0.11563   0.00000  Uiso   1.00
Br75   Br    0.65664   0.21632   0.10626   0.00000  Uiso   1.00
Br76   Br    0.34336   0.11701   0.22708   0.00000  Uiso   1.00
N77    N     0.56056   0.29215   0.10756   0.00000  Uiso   1.00
H78    H     0.59898   0.30347   0.11506   0.00000  Uiso   1.00
H79    H     0.54688   0.30016   0.07395   0.00000  Uiso   1.00
N80    N     0.43944   0.04119   0.22578   0.00000  Uiso   1.00
H81    H     0.45312   0.03318   0.25939   0.00000  Uiso   1.00
H82    H     0.40102   0.02986   0.21828   0.00000  Uiso   1.00
Br83   Br    0.57762   0.23289   0.29011   0.00000  Uiso   1.00
Br84   Br    0.42238   0.10044   0.04322   0.00000  Uiso   1.00
C85    C     0.83220   0.08674   0.16652   0.00000  Uiso   1.00
C86    C     0.83447   0.24660   0.16682   0.00000  Uiso   1.00
C87    C     0.73393   0.16672   0.15517   0.00000  Uiso   1.00
C88    C     0.93274   0.16662   0.17816   0.00000  Uiso   1.00
C89    C     0.68032   0.17430   0.15072   0.00000  Uiso   1.00
C90    C     0.98635   0.15904   0.18261   0.00000  Uiso   1.00
C91    C     0.86063   0.02249   0.13680   0.00000  Uiso   1.00
C92    C     0.80603   0.31085   0.19653   0.00000  Uiso   1.00
C93    C     0.86269   0.31294   0.13685   0.00000  Uiso   1.00
C94    C     0.80398   0.02039   0.19649   0.00000  Uiso   1.00
C95    C     0.83495   0.29076   0.16681   0.00000  Uiso   1.00
C96    C     0.83172   0.04258   0.16652   0.00000  Uiso   1.00
C97    C     0.86412   0.19413   0.02797   0.00000  Uiso   1.00
C98    C     0.80254   0.13920   0.30537   0.00000  Uiso   1.00
C99    C     0.86456   0.19406   0.31364   0.00000  Uiso   1.00
C100   C     0.80211   0.13927   0.01969   0.00000  Uiso   1.00
H101   H     0.88250   0.04007   0.11428   0.00000  Uiso   1.00
H102   H     0.78417   0.29326   0.21905   0.00000  Uiso   1.00
H103   H     0.88835   0.21628   0.04920   0.00000  Uiso   1.00
H104   H     0.77832   0.11706   0.28414   0.00000  Uiso   1.00
N105   N     0.83332   0.16666   0.28573   0.00000  Uiso   1.00
N106   N     0.83335   0.16668   0.04760   0.00000  Uiso   1.00
O107   O     0.83333   0.10558   0.20487   0.00000  Uiso   1.00
O108   O     0.83334   0.22775   0.12846   0.00000  Uiso   1.00
O109   O     0.83333   0.10559   0.12843   0.00000  Uiso   1.00
O110   O     0.83334   0.22774   0.20490   0.00000  Uiso   1.00
O111   O     0.75725   0.16666   0.19595   0.00000  Uiso   1.00
O112   O     0.90942   0.16667   0.13739   0.00000  Uiso   1.00
O113   O     0.75725   0.16667   0.11950   0.00000  Uiso   1.00
O114   O     0.90942   0.16666   0.21383   0.00000  Uiso   1.00
Zn115  Zn    0.83333   0.16666   0.21771   0.00000  Uiso   1.00
Zn116  Zn    0.83333   0.16667   0.11563   0.00000  Uiso   1.00
Br117  Br    0.98997   0.21632   0.10626   0.00000  Uiso   1.00
Br118  Br    0.67669   0.11701   0.22708   0.00000  Uiso   1.00
N119   N     0.89389   0.29215   0.10756   0.00000  Uiso   1.00
H120   H     0.93231   0.30347   0.11506   0.00000  Uiso   1.00
H121   H     0.88021   0.30016   0.07395   0.00000  Uiso   1.00
N122   N     0.77278   0.04119   0.22578   0.00000  Uiso   1.00
H123   H     0.78646   0.03318   0.25939   0.00000  Uiso   1.00
H124   H     0.73436   0.02986   0.21828   0.00000  Uiso   1.00
Br125  Br    0.91095   0.23289   0.29011   0.00000  Uiso   1.00
Br126  Br    0.75572   0.10044   0.04322   0.00000  Uiso   1.00
C127   C     0.16553   0.42007   0.16652   0.00000  Uiso   1.00
C128   C     0.16780   0.57993   0.16682   0.00000  Uiso   1.00
C129   C     0.06726   0.50005   0.15517   0.00000  Uiso   1.00
C130   C     0.26607   0.49995   0.17816   0.00000  Uiso   1.00
C131   C     0.01365   0.50763   0.15072   0.00000  Uiso   1.00
C132   C     0.31968   0.49237   0.18261   0.00000  Uiso   1.00
C133   C     0.19397   0.35582   0.13680   0.00000  Uiso   1.00
C134   C     0.13937   0.64418   0.19653   0.00000  Uiso   1.00
C135   C     0.19602   0.64627   0.13685   0.00000  Uiso   1.00
C136   C     0.13731   0.35373   0.19649   0.00000  Uiso   1.00
C137   C     0.16828   0.62409   0.16681   0.00000  Uiso   1.00
C138   C     0.16505   0.37591   0.16652   0.00000  Uiso   1.00
C139   C     0.19746   0.52746   0.02797   0.00000  Uiso   1.00
C140   C     0.13588   0.47254   0.30537   0.00000  Uiso   1.00
C141   C     0.19789   0.52740   0.31364   0.00000  Uiso   1.00
C142   C     0.13544   0.47260   0.01969   0.00000  Uiso   1.00
H143   H     0.21583   0.37341   0.11428   0.00000  Uiso   1.00
H144   H     0.11750   0.62659   0.21905   0.00000  Uiso   1.00
H145   H     0.22168   0.54961   0.04920   0.00000  Uiso   1.00
H146   H     0.11165   0.45039   0.28414   0.00000  Uiso   1.00
N147   N     0.16665   0.49999   0.28573   0.00000  Uiso   1.00
N148   N     0.16668   0.50001   0.04760   0.00000  Uiso   1.00
O149   O     0.16666   0.43892   0.20487   0.00000  Uiso   1.00
O150   O     0.16667   0.56108   0.12846   0.00000  Uiso   1.00
O151   O     0.16666   0.43893   0.12843   0.00000  Uiso   1.00
O152   O     0.16667   0.56107   0.20490   0.00000  Uiso   1.00
O153   O     0.09058   0.50000   0.19595   0.00000  Uiso   1.00
O154   O     0.24275   0.50000   0.13739   0.00000  Uiso   1.00
O155   O     0.09058   0.50000   0.11950   0.00000  Uiso   1.00
O156   O     0.24275   0.50000   0.21383   0.00000  Uiso   1.00
Zn157  Zn    0.16667   0.49999   0.21771   0.00000  Uiso   1.00
Zn158  Zn    0.16667   0.50001   0.11563   0.00000  Uiso   1.00
Br159  Br    0.32331   0.54965   0.10626   0.00000  Uiso   1.00
Br160  Br    0.01003   0.45035   0.22708   0.00000  Uiso   1.00
N161   N     0.22722   0.62548   0.10756   0.00000  Uiso   1.00
H162   H     0.26565   0.63681   0.11506   0.00000  Uiso   1.00
H163   H     0.21355   0.63349   0.07395   0.00000  Uiso   1.00
N164   N     0.10611   0.37452   0.22578   0.00000  Uiso   1.00
H165   H     0.11979   0.36651   0.25939   0.00000  Uiso   1.00
H166   H     0.06769   0.36319   0.21828   0.00000  Uiso   1.00
Br167  Br    0.24428   0.56622   0.29011   0.00000  Uiso   1.00
Br168  Br    0.08905   0.43378   0.04322   0.00000  Uiso   1.00
C169   C     0.49886   0.42007   0.16652   0.00000  Uiso   1.00
C170   C     0.50114   0.57993   0.16682   0.00000  Uiso   1.00
C171   C     0.40059   0.50005   0.15517   0.00000  Uiso   1.00
C172   C     0.59941   0.49995   0.17816   0.00000  Uiso   1.00
C173   C     0.34699   0.50763   0.15072   0.00000  Uiso   1.00
C174   C     0.65301   0.49237   0.18261   0.00000  Uiso   1.00
C175   C     0.52730   0.35582   0.13680   0.00000  Uiso   1.00
C176   C     0.47270   0.64418   0.19653   0.00000  Uiso   1.00
C177   C     0.52936   0.64627   0.13685   0.00000  Uiso   1.00
C178   C     0.47064   0.35373   0.19649   0.00000  Uiso   1.00
C179   C     0.50162   0.62409   0.16681   0.00000  Uiso   1.00
C180   C     0.49838   0.37591   0.16652   0.00000  Uiso   1.00
C181   C     0.53079   0.52746   0.02797   0.00000  Uiso   1.00
C182   C     0.46921   0.47254   0.30537   0.00000  Uiso   1.00
C183   C     0.53123   0.52740   0.31364   0.00000  Uiso   1.00
C184   C     0.46877   0.47260   0.01969   0.00000  Uiso   1.00
H185   H     0.54916   0.37341   0.11428   0.00000  Uiso   1.00
H186   H     0.45084   0.62659   0.21905   0.00000  Uiso   1.00
H187   H     0.55501   0.54961   0.04920   0.00000  Uiso   1.00
H188   H     0.44499   0.45039   0.28414   0.00000  Uiso   1.00
N189   N     0.49999   0.49999   0.28573   0.00000  Uiso   1.00
N190   N     0.50001   0.50001   0.04760   0.00000  Uiso   1.00
O191   O     0.50000   0.43892   0.20487   0.00000  Uiso   1.00
O192   O     0.50000   0.56108   0.12846   0.00000  Uiso   1.00
O193   O     0.50000   0.43893   0.12843   0.00000  Uiso   1.00
O194   O     0.50000   0.56107   0.20490   0.00000  Uiso   1.00
O195   O     0.42392   0.50000   0.19595   0.00000  Uiso   1.00
O196   O     0.57608   0.50000   0.13739   0.00000  Uiso   1.00
O197   O     0.42392   0.50000   0.11950   0.00000  Uiso   1.00
O198   O     0.57608   0.50000   0.21383   0.00000  Uiso   1.00
Zn199  Zn    0.50000   0.49999   0.21771   0.00000  Uiso   1.00
Zn200  Zn    0.50000   0.50001   0.11563   0.00000  Uiso   1.00
Br201  Br    0.65664   0.54965   0.10626   0.00000  Uiso   1.00
Br202  Br    0.34336   0.45035   0.22708   0.00000  Uiso   1.00
N203   N     0.56056   0.62548   0.10756   0.00000  Uiso   1.00
H204   H     0.59898   0.63681   0.11506   0.00000  Uiso   1.00
H205   H     0.54688   0.63349   0.07395   0.00000  Uiso   1.00
N206   N     0.43944   0.37452   0.22578   0.00000  Uiso   1.00
H207   H     0.45312   0.36651   0.25939   0.00000  Uiso   1.00
H208   H     0.40102   0.36319   0.21828   0.00000  Uiso   1.00
Br209  Br    0.57762   0.56622   0.29011   0.00000  Uiso   1.00
Br210  Br    0.42238   0.43378   0.04322   0.00000  Uiso   1.00
C211   C     0.83220   0.42007   0.16652   0.00000  Uiso   1.00
C212   C     0.83447   0.57993   0.16682   0.00000  Uiso   1.00
C213   C     0.73393   0.50005   0.15517   0.00000  Uiso   1.00
C214   C     0.93274   0.49995   0.17816   0.00000  Uiso   1.00
C215   C     0.68032   0.50763   0.15072   0.00000  Uiso   1.00
C216   C     0.98635   0.49237   0.18261   0.00000  Uiso   1.00
C217   C     0.86063   0.35582   0.13680   0.00000  Uiso   1.00
C218   C     0.80603   0.64418   0.19653   0.00000  Uiso   1.00
C219   C     0.86269   0.64627   0.13685   0.00000  Uiso   1.00
C220   C     0.80398   0.35373   0.19649   0.00000  Uiso   1.00
C221   C     0.83495   0.62409   0.16681   0.00000  Uiso   1.00
C222   C     0.83172   0.37591   0.16652   0.00000  Uiso   1.00
C223   C     0.86412   0.52746   0.02797   0.00000  Uiso   1.00
C224   C     0.80254   0.47254   0.30537   0.00000  Uiso   1.00
C225   C     0.86456   0.52740   0.31364   0.00000  Uiso   1.00
C226   C     0.80211   0.47260   0.01969   0.00000  Uiso   1.00
H227   H     0.88250   0.37341   0.11428   0.00000  Uiso   1.00
H228   H     0.78417   0.62659   0.21905   0.00000  Uiso   1.00
H229   H     0.88835   0.54961   0.04920   0.00000  Uiso   1.00
H230   H     0.77832   0.45039   0.28414   0.00000  Uiso   1.00
N231   N     0.83332   0.49999   0.28573   0.00000  Uiso   1.00
N232   N     0.83335   0.50001   0.04760   0.00000  Uiso   1.00
O233   O     0.83333   0.43892   0.20487   0.00000  Uiso   1.00
O234   O     0.83334   0.56108   0.12846   0.00000  Uiso   1.00
O235   O     0.83333   0.43893   0.12843   0.00000  Uiso   1.00
O236   O     0.83334   0.56107   0.20490   0.00000  Uiso   1.00
O237   O     0.75725   0.50000   0.19595   0.00000  Uiso   1.00
O238   O     0.90942   0.50000   0.13739   0.00000  Uiso   1.00
O239   O     0.75725   0.50000   0.11950   0.00000  Uiso   1.00
O240   O     0.90942   0.50000   0.21383   0.00000  Uiso   1.00
Zn241  Zn    0.83333   0.49999   0.21771   0.00000  Uiso   1.00
Zn242  Zn    0.83333   0.50001   0.11563   0.00000  Uiso   1.00
Br243  Br    0.98997   0.54965   0.10626   0.00000  Uiso   1.00
Br244  Br    0.67669   0.45035   0.22708   0.00000  Uiso   1.00
N245   N     0.89389   0.62548   0.10756   0.00000  Uiso   1.00
H246   H     0.93231   0.63681   0.11506   0.00000  Uiso   1.00
H247   H     0.88021   0.63349   0.07395   0.00000  Uiso   1.00
N248   N     0.77278   0.37452   0.22578   0.00000  Uiso   1.00
H249   H     0.78646   0.36651   0.25939   0.00000  Uiso   1.00
H250   H     0.73436   0.36319   0.21828   0.00000  Uiso   1.00
Br251  Br    0.91095   0.56622   0.29011   0.00000  Uiso   1.00
Br252  Br    0.75572   0.43378   0.04322   0.00000  Uiso   1.00
C253   C     0.16553   0.75340   0.16652   0.00000  Uiso   1.00
C254   C     0.16780   0.91326   0.16682   0.00000  Uiso   1.00
C255   C     0.06726   0.83338   0.15517   0.00000  Uiso   1.00
C256   C     0.26607   0.83328   0.17816   0.00000  Uiso   1.00
C257   C     0.01365   0.84096   0.15072   0.00000  Uiso   1.00
C258   C     0.31968   0.82570   0.18261   0.00000  Uiso   1.00
C259   C     0.19397   0.68915   0.13680   0.00000  Uiso   1.00
C260   C     0.13937   0.97751   0.19653   0.00000  Uiso   1.00
C261   C     0.19602   0.97961   0.13685   0.00000  Uiso   1.00
C262   C     0.13731   0.68706   0.19649   0.00000  Uiso   1.00
C263   C     0.16828   0.95742   0.16681   0.00000  Uiso   1.00
C264   C     0.16505   0.70924   0.16652   0.00000  Uiso   1.00
C265   C     0.19746   0.86080   0.02797   0.00000  Uiso   1.00
C266   C     0.13588   0.80587   0.30537   0.00000  Uiso   1.00
C267   C     0.19789   0.86073   0.31364   0.00000  Uiso   1.00
C268   C     0.13544   0.80593   0.01969   0.00000  Uiso   1.00
H269   H     0.21583   0.70674   0.11428   0.00000  Uiso   1.00
H270   H     0.11750   0.95993   0.21905   0.00000  Uiso   1.00
H271   H     0.22168   0.88294   0.04920   0.00000  Uiso   1.00
H272   H     0.11165   0.78372   0.28414   0.00000  Uiso   1.00
N273   N     0.16665   0.83332   0.28573   0.00000  Uiso   1.00
N274   N     0.16668   0.83334   0.04760   0.00000  Uiso   1.00
O275   O     0.16666   0.77225   0.20487   0.00000  Uiso   1.00
O276   O     0.16667   0.89442   0.12846   0.00000  Uiso   1.00
O277   O     0.16666   0.77226   0.12843   0.00000  Uiso   1.00
O278   O     0.16667   0.89441   0.20490   0.00000  Uiso   1.00
O279   O     0.09058   0.83333   0.19595   0.00000  Uiso   1.00
O280   O     0.24275   0.83334   0.13739   0.00000  Uiso   1.00
O281   O     0.09058   0.83334   0.11950   0.00000  Uiso   1.00
O282   O     0.24275   0.83333   0.21383   0.00000  Uiso   1.00
Zn283  Zn    0.16667   0.83333   0.21771   0.00000  Uiso   1.00
Zn284  Zn    0.16667   0.83334   0.11563   0.00000  Uiso   1.00
Br285  Br    0.32331   0.88299   0.10626   0.00000  Uiso   1.00
Br286  Br    0.01003   0.78368   0.22708   0.00000  Uiso   1.00
N287   N     0.22722   0.95881   0.10756   0.00000  Uiso   1.00
H288   H     0.26565   0.97014   0.11506   0.00000  Uiso   1.00
H289   H     0.21355   0.96683   0.07395   0.00000  Uiso   1.00
N290   N     0.10611   0.70785   0.22578   0.00000  Uiso   1.00
H291   H     0.11979   0.69984   0.25939   0.00000  Uiso   1.00
H292   H     0.06769   0.69652   0.21828   0.00000  Uiso   1.00
Br293  Br    0.24428   0.89956   0.29011   0.00000  Uiso   1.00
Br294  Br    0.08905   0.76711   0.04322   0.00000  Uiso   1.00
C295   C     0.49886   0.75340   0.16652   0.00000  Uiso   1.00
C296   C     0.50114   0.91326   0.16682   0.00000  Uiso   1.00
C297   C     0.40059   0.83338   0.15517   0.00000  Uiso   1.00
C298   C     0.59941   0.83328   0.17816   0.00000  Uiso   1.00
C299   C     0.34699   0.84096   0.15072   0.00000  Uiso   1.00
C300   C     0.65301   0.82570   0.18261   0.00000  Uiso   1.00
C301   C     0.52730   0.68915   0.13680   0.00000  Uiso   1.00
C302   C     0.47270   0.97751   0.19653   0.00000  Uiso   1.00
C303   C     0.52936   0.97961   0.13685   0.00000  Uiso   1.00
C304   C     0.47064   0.68706   0.19649   0.00000  Uiso   1.00
C305   C     0.50162   0.95742   0.16681   0.00000  Uiso   1.00
C306   C     0.49838   0.70924   0.16652   0.00000  Uiso   1.00
C307   C     0.53079   0.86080   0.02797   0.00000  Uiso   1.00
C308   C     0.46921   0.80587   0.30537   0.00000  Uiso   1.00
C309   C     0.53123   0.86073   0.31364   0.00000  Uiso   1.00
C310   C     0.46877   0.80593   0.01969   0.00000  Uiso   1.00
H311   H     0.54916   0.70674   0.11428   0.00000  Uiso   1.00
H312   H     0.45084   0.95993   0.21905   0.00000  Uiso   1.00
H313   H     0.55501   0.88294   0.04920   0.00000  Uiso   1.00
H314   H     0.44499   0.78372   0.28414   0.00000  Uiso   1.00
N315   N     0.49999   0.83332   0.28573   0.00000  Uiso   1.00
N316   N     0.50001   0.83334   0.04760   0.00000  Uiso   1.00
O317   O     0.50000   0.77225   0.20487   0.00000  Uiso   1.00
O318   O     0.50000   0.89442   0.12846   0.00000  Uiso   1.00
O319   O     0.50000   0.77226   0.12843   0.00000  Uiso   1.00
O320   O     0.50000   0.89441   0.20490   0.00000  Uiso   1.00
O321   O     0.42392   0.83333   0.19595   0.00000  Uiso   1.00
O322   O     0.57608   0.83334   0.13739   0.00000  Uiso   1.00
O323   O     0.42392   0.83334   0.11950   0.00000  Uiso   1.00
O324   O     0.57608   0.83333   0.21383   0.00000  Uiso   1.00
Zn325  Zn    0.50000   0.83333   0.21771   0.00000  Uiso   1.00
Zn326  Zn    0.50000   0.83334   0.11563   0.00000  Uiso   1.00
Br327  Br    0.65664   0.88299   0.10626   0.00000  Uiso   1.00
Br328  Br    0.34336   0.78368   0.22708   0.00000  Uiso   1.00
N329   N     0.56056   0.95881   0.10756   0.00000  Uiso   1.00
H330   H     0.59898   0.97014   0.11506   0.00000  Uiso   1.00
H331   H     0.54688   0.96683   0.07395   0.00000  Uiso   1.00
N332   N     0.43944   0.70785   0.22578   0.00000  Uiso   1.00
H333   H     0.45312   0.69984   0.25939   0.00000  Uiso   1.00
H334   H     0.40102   0.69652   0.21828   0.00000  Uiso   1.00
Br335  Br    0.57762   0.89956   0.29011   0.00000  Uiso   1.00
Br336  Br    0.42238   0.76711   0.04322   0.00000  Uiso   1.00
C337   C     0.83220   0.75340   0.16652   0.00000  Uiso   1.00
C338   C     0.83447   0.91326   0.16682   0.00000  Uiso   1.00
C339   C     0.73393   0.83338   0.15517   0.00000  Uiso   1.00
C340   C     0.93274   0.83328   0.17816   0.00000  Uiso   1.00
C341   C     0.68032   0.84096   0.15072   0.00000  Uiso   1.00
C342   C     0.98635   0.82570   0.18261   0.00000  Uiso   1.00
C343   C     0.86063   0.68915   0.13680   0.00000  Uiso   1.00
C344   C     0.80603   0.97751   0.19653   0.00000  Uiso   1.00
C345   C     0.86269   0.97961   0.13685   0.00000  Uiso   1.00
C346   C     0.80398   0.68706   0.19649   0.00000  Uiso   1.00
C347   C     0.83495   0.95742   0.16681   0.00000  Uiso   1.00
C348   C     0.83172   0.70924   0.16652   0.00000  Uiso   1.00
C349   C     0.86412   0.86080   0.02797   0.00000  Uiso   1.00
C350   C     0.80254   0.80587   0.30537   0.00000  Uiso   1.00
C351   C     0.86456   0.86073   0.31364   0.00000  Uiso   1.00
C352   C     0.80211   0.80593   0.01969   0.00000  Uiso   1.00
H353   H     0.88250   0.70674   0.11428   0.00000  Uiso   1.00
H354   H     0.78417   0.95993   0.21905   0.00000  Uiso   1.00
H355   H     0.88835   0.88294   0.04920   0.00000  Uiso   1.00
H356   H     0.77832   0.78372   0.28414   0.00000  Uiso   1.00
N357   N     0.83332   0.83332   0.28573   0.00000  Uiso   1.00
N358   N     0.83335   0.83334   0.04760   0.00000  Uiso   1.00
O359   O     0.83333   0.77225   0.20487   0.00000  Uiso   1.00
O360   O     0.83334   0.89442   0.12846   0.00000  Uiso   1.00
O361   O     0.83333   0.77226   0.12843   0.00000  Uiso   1.00
O362   O     0.83334   0.89441   0.20490   0.00000  Uiso   1.00
O363   O     0.75725   0.83333   0.19595   0.00000  Uiso   1.00
O364   O     0.90942   0.83334   0.13739   0.00000  Uiso   1.00
O365   O     0.75725   0.83334   0.11950   0.00000  Uiso   1.00
O366   O     0.90942   0.83333   0.21383   0.00000  Uiso   1.00
Zn367  Zn    0.83333   0.83333   0.21771   0.00000  Uiso   1.00
Zn368  Zn    0.83333   0.83334   0.11563   0.00000  Uiso   1.00
Br369  Br    0.98997   0.88299   0.10626   0.00000  Uiso   1.00
Br370  Br    0.67669   0.78368   0.22708   0.00000  Uiso   1.00
N371   N     0.89389   0.95881   0.10756   0.00000  Uiso   1.00
H372   H     0.93231   0.97014   0.11506   0.00000  Uiso   1.00
H373   H     0.88021   0.96683   0.07395   0.00000  Uiso   1.00
N374   N     0.77278   0.70785   0.22578   0.00000  Uiso   1.00
H375   H     0.78646   0.69984   0.25939   0.00000  Uiso   1.00
H376   H     0.73436   0.69652   0.21828   0.00000  Uiso   1.00
Br377  Br    0.91095   0.89956   0.29011   0.00000  Uiso   1.00
Br378  Br    0.75572   0.76711   0.04322   0.00000  Uiso   1.00
C379   C     0.16553   0.08674   0.49985   0.00000  Uiso   1.00
C380   C     0.16780   0.24660   0.50015   0.00000  Uiso   1.00
C381   C     0.06726   0.16672   0.48851   0.00000  Uiso   1.00
C382   C     0.26607   0.16662   0.51149   0.00000  Uiso   1.00
C383   C     0.01365   0.17430   0.48405   0.00000  Uiso   1.00
C384   C     0.31968   0.15904   0.51595   0.00000  Uiso   1.00
C385   C     0.19397   0.02249   0.47014   0.00000  Uiso   1.00
C386   C     0.13937   0.31085   0.52986   0.00000  Uiso   1.00
C387   C     0.19602   0.31294   0.47018   0.00000  Uiso   1.00
C388   C     0.13731   0.02039   0.52982   0.00000  Uiso   1.00
C389   C     0.16828   0.29076   0.50015   0.00000  Uiso   1.00
C390   C     0.16505   0.04258   0.49985   0.00000  Uiso   1.00
C391   C     0.19746   0.19413   0.36130   0.00000  Uiso   1.00
C392   C     0.13588   0.13920   0.63870   0.00000  Uiso   1.00
C393   C     0.19789   0.19406   0.64697   0.00000  Uiso   1.00
C394   C     0.13544   0.13927   0.35302   0.00000  Uiso   1.00
H395   H     0.21583   0.04007   0.44761   0.00000  Uiso   1.00
H396   H     0.11750   0.29326   0.55239   0.00000  Uiso   1.00
H397   H     0.22168   0.21628   0.38253   0.00000  Uiso   1.00
H398   H     0.11165   0.11706   0.61747   0.00000  Uiso   1.00
N399   N     0.16665   0.16666   0.61907   0.00000  Uiso   1.00
N400   N     0.16668   0.16668   0.38093   0.00000  Uiso   1.00
O401   O     0.16666   0.10558   0.53821   0.00000  Uiso   1.00
O402   O     0.16667   0.22775   0.46179   0.00000  Uiso   1.00
O403   O     0.16666   0.10559   0.46176   0.00000  Uiso   1.00
O404   O     0.16667   0.22774   0.53824   0.00000  Uiso   1.00
O405   O     0.09058   0.16666   0.52928   0.00000  Uiso   1.00
O406   O     0.24275   0.16667   0.47072   0.00000  Uiso   1.00
O407   O     0.09058   0.16667   0.45284   0.00000  Uiso   1.00
O408   O     0.24275   0.16666   0.54716   0.00000  Uiso   1.00
Zn409  Zn    0.16667   0.16666   0.55104   0.00000  Uiso   1.00
Zn410  Zn    0.16667   0.16667   0.44896   0.00000  Uiso   1.00
Br411  Br    0.32331   0.21632   0.43959   0.00000  Uiso   1.00
Br412  Br    0.01003   0.11701   0.56041   0.00000  Uiso   1.00
N413   N     0.22722   0.29215   0.44089   0.00000  Uiso   1.00
H414   H     0.26565   0.30347   0.44839   0.00000  Uiso   1.00
H415   H     0.21355   0.30016   0.40728   0.00000  Uiso   1.00
N416   N     0.10611   0.04119   0.55911   0.00000  Uiso   1.00
H417   H     0.11979   0.03318   0.59272   0.00000  Uiso   1.00
H418   H     0.06769   0.02986   0.55161   0.00000  Uiso   1.00
Br419  Br    0.24428   0.23289   0.62344   0.00000  Uiso   1.00
Br420  Br    0.08905   0.10044   0.37656   0.00000  Uiso   1.00
C421   C     0.49886   0.08674   0.49985   0.00000  Uiso   1.00
C422   C     0.50114   0.24660   0.50015   0.00000  Uiso   1.00
C423   C     0.40059   0.16672   0.48851   0.00000  Uiso   1.00
C424   C     0.59941   0.16662   0.51149   0.00000  Uiso   1.00
C425   C     0.34699   0.17430   0.48405   0.00000  Uiso   1.00
C426   C     0.65301   0.15904   0.51595   0.00000  Uiso   1.00
C427   C     0.52730   0.02249   0.47014   0.00000  Uiso   1.00
C428   C     0.47270   0.31085   0.52986   0.00000  Uiso   1.00
C429   C     0.52936   0.31294   0.47018   0.00000  Uiso   1.00
C430   C     0.47064   0.02039   0.52982   0.00000  Uiso   1.00
C431   C     0.50162   0.29076   0.50015   0.00000  Uiso   1.00
C432   C     0.49838   0.04258   0.49985   0.00000  Uiso   1.00
C433   C     0.53079   0.19413   0.36130   0.00000  Uiso   1.00
C434   C     0.46921   0.13920   0.63870   0.00000  Uiso   1.00
C435   C     0.53123   0.19406   0.64697   0.00000  Uiso   1.00
C436   C     0.46877   0.13927   0.35302   0.00000  Uiso   1.00
H437   H     0.54916   0.04007   0.44761   0.00000  Uiso   1.00
H438   H     0.45084   0.29326   0.55239   0.00000  Uiso   1.00
H439   H     0.55501   0.21628   0.38253   0.00000  Uiso   1.00
H440   H     0.44499   0.11706   0.61747   0.00000  Uiso   1.00
N441   N     0.49999   0.16666   0.61907   0.00000  Uiso   1.00
N442   N     0.50001   0.16668   0.38093   0.00000  Uiso   1.00
O443   O     0.50000   0.10558   0.53821   0.00000  Uiso   1.00
O444   O     0.50000   0.22775   0.46179   0.00000  Uiso   1.00
O445   O     0.50000   0.10559   0.46176   0.00000  Uiso   1.00
O446   O     0.50000   0.22774   0.53824   0.00000  Uiso   1.00
O447   O     0.42392   0.16666   0.52928   0.00000  Uiso   1.00
O448   O     0.57608   0.16667   0.47072   0.00000  Uiso   1.00
O449   O     0.42392   0.16667   0.45284   0.00000  Uiso   1.00
O450   O     0.57608   0.16666   0.54716   0.00000  Uiso   1.00
Zn451  Zn    0.50000   0.16666   0.55104   0.00000  Uiso   1.00
Zn452  Zn    0.50000   0.16667   0.44896   0.00000  Uiso   1.00
Br453  Br    0.65664   0.21632   0.43959   0.00000  Uiso   1.00
Br454  Br    0.34336   0.11701   0.56041   0.00000  Uiso   1.00
N455   N     0.56056   0.29215   0.44089   0.00000  Uiso   1.00
H456   H     0.59898   0.30347   0.44839   0.00000  Uiso   1.00
H457   H     0.54688   0.30016   0.40728   0.00000  Uiso   1.00
N458   N     0.43944   0.04119   0.55911   0.00000  Uiso   1.00
H459   H     0.45312   0.03318   0.59272   0.00000  Uiso   1.00
H460   H     0.40102   0.02986   0.55161   0.00000  Uiso   1.00
Br461  Br    0.57762   0.23289   0.62344   0.00000  Uiso   1.00
Br462  Br    0.42238   0.10044   0.37656   0.00000  Uiso   1.00
C463   C     0.83220   0.08674   0.49985   0.00000  Uiso   1.00
C464   C     0.83447   0.24660   0.50015   0.00000  Uiso   1.00
C465   C     0.73393   0.16672   0.48851   0.00000  Uiso   1.00
C466   C     0.93274   0.16662   0.51149   0.00000  Uiso   1.00
C467   C     0.68032   0.17430   0.48405   0.00000  Uiso   1.00
C468   C     0.98635   0.15904   0.51595   0.00000  Uiso   1.00
C469   C     0.86063   0.02249   0.47014   0.00000  Uiso   1.00
C470   C     0.80603   0.31085   0.52986   0.00000  Uiso   1.00
C471   C     0.86269   0.31294   0.47018   0.00000  Uiso   1.00
C472   C     0.80398   0.02039   0.52982   0.00000  Uiso   1.00
C473   C     0.83495   0.29076   0.50015   0.00000  Uiso   1.00
C474   C     0.83172   0.04258   0.49985   0.00000  Uiso   1.00
C475   C     0.86412   0.19413   0.36130   0.00000  Uiso   1.00
C476   C     0.80254   0.13920   0.63870   0.00000  Uiso   1.00
C477   C     0.86456   0.19406   0.64697   0.00000  Uiso   1.00
C478   C     0.80211   0.13927   0.35302   0.00000  Uiso   1.00
H479   H     0.88250   0.04007   0.44761   0.00000  Uiso   1.00
H480   H     0.78417   0.29326   0.55239   0.00000  Uiso   1.00
H481   H     0.88835   0.21628   0.38253   0.00000  Uiso   1.00
H482   H     0.77832   0.11706   0.61747   0.00000  Uiso   1.00
N483   N     0.83332   0.16666   0.61907   0.00000  Uiso   1.00
N484   N     0.83335   0.16668   0.38093   0.00000  Uiso   1.00
O485   O     0.83333   0.10558   0.53821   0.00000  Uiso   1.00
O486   O     0.83334   0.22775   0.46179   0.00000  Uiso   1.00
O487   O     0.83333   0.10559   0.46176   0.00000  Uiso   1.00
O488   O     0.83334   0.22774   0.53824   0.00000  Uiso   1.00
O489   O     0.75725   0.16666   0.52928   0.00000  Uiso   1.00
O490   O     0.90942   0.16667   0.47072   0.00000  Uiso   1.00
O491   O     0.75725   0.16667   0.45284   0.00000  Uiso   1.00
O492   O     0.90942   0.16666   0.54716   0.00000  Uiso   1.00
Zn493  Zn    0.83333   0.16666   0.55104   0.00000  Uiso   1.00
Zn494  Zn    0.83333   0.16667   0.44896   0.00000  Uiso   1.00
Br495  Br    0.98997   0.21632   0.43959   0.00000  Uiso   1.00
Br496  Br    0.67669   0.11701   0.56041   0.00000  Uiso   1.00
N497   N     0.89389   0.29215   0.44089   0.00000  Uiso   1.00
H498   H     0.93231   0.30347   0.44839   0.00000  Uiso   1.00
H499   H     0.88021   0.30016   0.40728   0.00000  Uiso   1.00
N500   N     0.77278   0.04119   0.55911   0.00000  Uiso   1.00
H501   H     0.78646   0.03318   0.59272   0.00000  Uiso   1.00
H502   H     0.73436   0.02986   0.55161   0.00000  Uiso   1.00
Br503  Br    0.91095   0.23289   0.62344   0.00000  Uiso   1.00
Br504  Br    0.75572   0.10044   0.37656   0.00000  Uiso   1.00
C505   C     0.16553   0.42007   0.49985   0.00000  Uiso   1.00
C506   C     0.16780   0.57993   0.50015   0.00000  Uiso   1.00
C507   C     0.06726   0.50005   0.48851   0.00000  Uiso   1.00
C508   C     0.26607   0.49995   0.51149   0.00000  Uiso   1.00
C509   C     0.01365   0.50763   0.48405   0.00000  Uiso   1.00
C510   C     0.31968   0.49237   0.51595   0.00000  Uiso   1.00
C511   C     0.19397   0.35582   0.47014   0.00000  Uiso   1.00
C512   C     0.13937   0.64418   0.52986   0.00000  Uiso   1.00
C513   C     0.19602   0.64627   0.47018   0.00000  Uiso   1.00
C514   C     0.13731   0.35373   0.52982   0.00000  Uiso   1.00
C515   C     0.16828   0.62409   0.50015   0.00000  Uiso   1.00
C516   C     0.16505   0.37591   0.49985   0.00000  Uiso   1.00
C517   C     0.19746   0.52746   0.36130   0.00000  Uiso   1.00
C518   C     0.13588   0.47254   0.63870   0.00000  Uiso   1.00
C519   C     0.19789   0.52740   0.64697   0.00000  Uiso   1.00
C520   C     0.13544   0.47260   0.35302   0.00000  Uiso   1.00
H521   H     0.21583   0.37341   0.44761   0.00000  Uiso   1.00
H522   H     0.11750   0.62659   0.55239   0.00000  Uiso   1.00
H523   H     0.22168   0.54961   0.38253   0.00000  Uiso   1.00
H524   H     0.11165   0.45039   0.61747   0.00000  Uiso   1.00
N525   N     0.16665   0.49999   0.61907   0.00000  Uiso   1.00
N526   N     0.16668   0.50001   0.38093   0.00000  Uiso   1.00
O527   O     0.16666   0.43892   0.53821   0.00000  Uiso   1.00
O528   O     0.16667   0.56108   0.46179   0.00000  Uiso   1.00
O529   O     0.16666   0.43893   0.46176   0.00000  Uiso   1.00
O530   O     0.16667   0.56107   0.53824   0.00000  Uiso   1.00
O531   O     0.09058   0.50000   0.52928   0.00000  Uiso   1.00
O532   O     0.24275   0.50000   0.47072   0.00000  Uiso   1.00
O533   O     0.09058   0.50000   0.45284   0.00000  Uiso   1.00
O534   O     0.24275   0.50000   0.54716   0.00000  Uiso   1.00
Zn535  Zn    0.16667   0.49999   0.55104   0.00000  Uiso   1.00
Zn536  Zn    0.16667   0.50001   0.44896   0.00000  Uiso   1.00
Br537  Br    0.32331   0.54965   0.43959   0.00000  Uiso   1.00
Br538  Br    0.01003   0.45035   0.56041   0.00000  Uiso   1.00
N539   N     0.22722   0.62548   0.44089   0.00000  Uiso   1.00
H540   H     0.26565   0.63681   0.44839   0.00000  Uiso   1.00
H541   H     0.21355   0.63349   0.40728   0.00000  Uiso   1.00
N542   N     0.10611   0.37452   0.55911   0.00000  Uiso   1.00
H543   H     0.11979   0.36651   0.59272   0.00000  Uiso   1.00
H544   H     0.06769   0.36319   0.55161   0.00000  Uiso   1.00
Br545  Br    0.24428   0.56622   0.62344   0.00000  Uiso   1.00
Br546  Br    0.08905   0.43378   0.37656   0.00000  Uiso   1.00
C547   C     0.49886   0.42007   0.49985   0.00000  Uiso   1.00
C548   C     0.50114   0.57993   0.50015   0.00000  Uiso   1.00
C549   C     0.40059   0.50005   0.48851   0.00000  Uiso   1.00
C550   C     0.59941   0.49995   0.51149   0.00000  Uiso   1.00
C551   C     0.34699   0.50763   0.48405   0.00000  Uiso   1.00
C552   C     0.65301   0.49237   0.51595   0.00000  Uiso   1.00
C553   C     0.52730   0.35582   0.47014   0.00000  Uiso   1.00
C554   C     0.47270   0.64418   0.52986   0.00000  Uiso   1.00
C555   C     0.52936   0.64627   0.47018   0.00000  Uiso   1.00
C556   C     0.47064   0.35373   0.52982   0.00000  Uiso   1.00
C557   C     0.50162   0.62409   0.50015   0.00000  Uiso   1.00
C558   C     0.49838   0.37591   0.49985   0.00000  Uiso   1.00
C559   C     0.53079   0.52746   0.36130   0.00000  Uiso   1.00
C560   C     0.46921   0.47254   0.63870   0.00000  Uiso   1.00
C561   C     0.53123   0.52740   0.64697   0.00000  Uiso   1.00
C562   C     0.46877   0.47260   0.35302   0.00000  Uiso   1.00
H563   H     0.54916   0.37341   0.44761   0.00000  Uiso   1.00
H564   H     0.45084   0.62659   0.55239   0.00000  Uiso   1.00
H565   H     0.55501   0.54961   0.38253   0.00000  Uiso   1.00
H566   H     0.44499   0.45039   0.61747   0.00000  Uiso   1.00
N567   N     0.49999   0.49999   0.61907   0.00000  Uiso   1.00
N568   N     0.50001   0.50001   0.38093   0.00000  Uiso   1.00
O569   O     0.50000   0.43892   0.53821   0.00000  Uiso   1.00
O570   O     0.50000   0.56108   0.46179   0.00000  Uiso   1.00
O571   O     0.50000   0.43893   0.46176   0.00000  Uiso   1.00
O572   O     0.50000   0.56107   0.53824   0.00000  Uiso   1.00
O573   O     0.42392   0.50000   0.52928   0.00000  Uiso   1.00
O574   O     0.57608   0.50000   0.47072   0.00000  Uiso   1.00
O575   O     0.42392   0.50000   0.45284   0.00000  Uiso   1.00
O576   O     0.57608   0.50000   0.54716   0.00000  Uiso   1.00
Zn577  Zn    0.50000   0.49999   0.55104   0.00000  Uiso   1.00
Zn578  Zn    0.50000   0.50001   0.44896   0.00000  Uiso   1.00
Br579  Br    0.65664   0.54965   0.43959   0.00000  Uiso   1.00
Br580  Br    0.34336   0.45035   0.56041   0.00000  Uiso   1.00
N581   N     0.56056   0.62548   0.44089   0.00000  Uiso   1.00
H582   H     0.59898   0.63681   0.44839   0.00000  Uiso   1.00
H583   H     0.54688   0.63349   0.40728   0.00000  Uiso   1.00
N584   N     0.43944   0.37452   0.55911   0.00000  Uiso   1.00
H585   H     0.45312   0.36651   0.59272   0.00000  Uiso   1.00
H586   H     0.40102   0.36319   0.55161   0.00000  Uiso   1.00
Br587  Br    0.57762   0.56622   0.62344   0.00000  Uiso   1.00
Br588  Br    0.42238   0.43378   0.37656   0.00000  Uiso   1.00
C589   C     0.83220   0.42007   0.49985   0.00000  Uiso   1.00
C590   C     0.83447   0.57993   0.50015   0.00000  Uiso   1.00
C591   C     0.73393   0.50005   0.48851   0.00000  Uiso   1.00
C592   C     0.93274   0.49995   0.51149   0.00000  Uiso   1.00
C593   C     0.68032   0.50763   0.48405   0.00000  Uiso   1.00
C594   C     0.98635   0.49237   0.51595   0.00000  Uiso   1.00
C595   C     0.86063   0.35582   0.47014   0.00000  Uiso   1.00
C596   C     0.80603   0.64418   0.52986   0.00000  Uiso   1.00
C597   C     0.86269   0.64627   0.47018   0.00000  Uiso   1.00
C598   C     0.80398   0.35373   0.52982   0.00000  Uiso   1.00
C599   C     0.83495   0.62409   0.50015   0.00000  Uiso   1.00
C600   C     0.83172   0.37591   0.49985   0.00000  Uiso   1.00
C601   C     0.86412   0.52746   0.36130   0.00000  Uiso   1.00
C602   C     0.80254   0.47254   0.63870   0.00000  Uiso   1.00
C603   C     0.86456   0.52740   0.64697   0.00000  Uiso   1.00
C604   C     0.80211   0.47260   0.35302   0.00000  Uiso   1.00
H605   H     0.88250   0.37341   0.44761   0.00000  Uiso   1.00
H606   H     0.78417   0.62659   0.55239   0.00000  Uiso   1.00
H607   H     0.88835   0.54961   0.38253   0.00000  Uiso   1.00
H608   H     0.77832   0.45039   0.61747   0.00000  Uiso   1.00
N609   N     0.83332   0.49999   0.61907   0.00000  Uiso   1.00
N610   N     0.83335   0.50001   0.38093   0.00000  Uiso   1.00
O611   O     0.83333   0.43892   0.53821   0.00000  Uiso   1.00
O612   O     0.83334   0.56108   0.46179   0.00000  Uiso   1.00
O613   O     0.83333   0.43893   0.46176   0.00000  Uiso   1.00
O614   O     0.83334   0.56107   0.53824   0.00000  Uiso   1.00
O615   O     0.75725   0.50000   0.52928   0.00000  Uiso   1.00
O616   O     0.90942   0.50000   0.47072   0.00000  Uiso   1.00
O617   O     0.75725   0.50000   0.45284   0.00000  Uiso   1.00
O618   O     0.90942   0.50000   0.54716   0.00000  Uiso   1.00
Zn619  Zn    0.83333   0.49999   0.55104   0.00000  Uiso   1.00
Zn620  Zn    0.83333   0.50001   0.44896   0.00000  Uiso   1.00
Br621  Br    0.98997   0.54965   0.43959   0.00000  Uiso   1.00
Br622  Br    0.67669   0.45035   0.56041   0.00000  Uiso   1.00
N623   N     0.89389   0.62548   0.44089   0.00000  Uiso   1.00
H624   H     0.93231   0.63681   0.44839   0.00000  Uiso   1.00
H625   H     0.88021   0.63349   0.40728   0.00000  Uiso   1.00
N626   N     0.77278   0.37452   0.55911   0.00000  Uiso   1.00
H627   H     0.78646   0.36651   0.59272   0.00000  Uiso   1.00
H628   H     0.73436   0.36319   0.55161   0.00000  Uiso   1.00
Br629  Br    0.91095   0.56622   0.62344   0.00000  Uiso   1.00
Br630  Br    0.75572   0.43378   0.37656   0.00000  Uiso   1.00
C631   C     0.16553   0.75340   0.49985   0.00000  Uiso   1.00
C632   C     0.16780   0.91326   0.50015   0.00000  Uiso   1.00
C633   C     0.06726   0.83338   0.48851   0.00000  Uiso   1.00
C634   C     0.26607   0.83328   0.51149   0.00000  Uiso   1.00
C635   C     0.01365   0.84096   0.48405   0.00000  Uiso   1.00
C636   C     0.31968   0.82570   0.51595   0.00000  Uiso   1.00
C637   C     0.19397   0.68915   0.47014   0.00000  Uiso   1.00
C638   C     0.13937   0.97751   0.52986   0.00000  Uiso   1.00
C639   C     0.19602   0.97961   0.47018   0.00000  Uiso   1.00
C640   C     0.13731   0.68706   0.52982   0.00000  Uiso   1.00
C641   C     0.16828   0.95742   0.50015   0.00000  Uiso   1.00
C642   C     0.16505   0.70924   0.49985   0.00000  Uiso   1.00
C643   C     0.19746   0.86080   0.36130   0.00000  Uiso   1.00
C644   C     0.13588   0.80587   0.63870   0.00000  Uiso   1.00
C645   C     0.19789   0.86073   0.64697   0.00000  Uiso   1.00
C646   C     0.13544   0.80593   0.35302   0.00000  Uiso   1.00
H647   H     0.21583   0.70674   0.44761   0.00000  Uiso   1.00
H648   H     0.11750   0.95993   0.55239   0.00000  Uiso   1.00
H649   H     0.22168   0.88294   0.38253   0.00000  Uiso   1.00
H650   H     0.11165   0.78372   0.61747   0.00000  Uiso   1.00
N651   N     0.16665   0.83332   0.61907   0.00000  Uiso   1.00
N652   N     0.16668   0.83334   0.38093   0.00000  Uiso   1.00
O653   O     0.16666   0.77225   0.53821   0.00000  Uiso   1.00
O654   O     0.16667   0.89442   0.46179   0.00000  Uiso   1.00
O655   O     0.16666   0.77226   0.46176   0.00000  Uiso   1.00
O656   O     0.16667   0.89441   0.53824   0.00000  Uiso   1.00
O657   O     0.09058   0.83333   0.52928   0.00000  Uiso   1.00
O658   O     0.24275   0.83334   0.47072   0.00000  Uiso   1.00
O659   O     0.09058   0.83334   0.45284   0.00000  Uiso   1.00
O660   O     0.24275   0.83333   0.54716   0.00000  Uiso   1.00
Zn661  Zn    0.16667   0.83333   0.55104   0.00000  Uiso   1.00
Zn662  Zn    0.16667   0.83334   0.44896   0.00000  Uiso   1.00
Br663  Br    0.32331   0.88299   0.43959   0.00000  Uiso   1.00
Br664  Br    0.01003   0.78368   0.56041   0.00000  Uiso   1.00
N665   N     0.22722   0.95881   0.44089   0.00000  Uiso   1.00
H666   H     0.26565   0.97014   0.44839   0.00000  Uiso   1.00
H667   H     0.21355   0.96683   0.40728   0.00000  Uiso   1.00
N668   N     0.10611   0.70785   0.55911   0.00000  Uiso   1.00
H669   H     0.11979   0.69984   0.59272   0.00000  Uiso   1.00
H670   H     0.06769   0.69652   0.55161   0.00000  Uiso   1.00
Br671  Br    0.24428   0.89956   0.62344   0.00000  Uiso   1.00
Br672  Br    0.08905   0.76711   0.37656   0.00000  Uiso   1.00
C673   C     0.49886   0.75340   0.49985   0.00000  Uiso   1.00
C674   C     0.50114   0.91326   0.50015   0.00000  Uiso   1.00
C675   C     0.40059   0.83338   0.48851   0.00000  Uiso   1.00
C676   C     0.59941   0.83328   0.51149   0.00000  Uiso   1.00
C677   C     0.34699   0.84096   0.48405   0.00000  Uiso   1.00
C678   C     0.65301   0.82570   0.51595   0.00000  Uiso   1.00
C679   C     0.52730   0.68915   0.47014   0.00000  Uiso   1.00
C680   C     0.47270   0.97751   0.52986   0.00000  Uiso   1.00
C681   C     0.52936   0.97961   0.47018   0.00000  Uiso   1.00
C682   C     0.47064   0.68706   0.52982   0.00000  Uiso   1.00
C683   C     0.50162   0.95742   0.50015   0.00000  Uiso   1.00
C684   C     0.49838   0.70924   0.49985   0.00000  Uiso   1.00
C685   C     0.53079   0.86080   0.36130   0.00000  Uiso   1.00
C686   C     0.46921   0.80587   0.63870   0.00000  Uiso   1.00
C687   C     0.53123   0.86073   0.64697   0.00000  Uiso   1.00
C688   C     0.46877   0.80593   0.35302   0.00000  Uiso   1.00
H689   H     0.54916   0.70674   0.44761   0.00000  Uiso   1.00
H690   H     0.45084   0.95993   0.55239   0.00000  Uiso   1.00
H691   H     0.55501   0.88294   0.38253   0.00000  Uiso   1.00
H692   H     0.44499   0.78372   0.61747   0.00000  Uiso   1.00
N693   N     0.49999   0.83332   0.61907   0.00000  Uiso   1.00
N694   N     0.50001   0.83334   0.38093   0.00000  Uiso   1.00
O695   O     0.50000   0.77225   0.53821   0.00000  Uiso   1.00
O696   O     0.50000   0.89442   0.46179   0.00000  Uiso   1.00
O697   O     0.50000   0.77226   0.46176   0.00000  Uiso   1.00
O698   O     0.50000   0.89441   0.53824   0.00000  Uiso   1.00
O699   O     0.42392   0.83333   0.52928   0.00000  Uiso   1.00
O700   O     0.57608   0.83334   0.47072   0.00000  Uiso   1.00
O701   O     0.42392   0.83334   0.45284   0.00000  Uiso   1.00
O702   O     0.57608   0.83333   0.54716   0.00000  Uiso   1.00
Zn703  Zn    0.50000   0.83333   0.55104   0.00000  Uiso   1.00
Zn704  Zn    0.50000   0.83334   0.44896   0.00000  Uiso   1.00
Br705  Br    0.65664   0.88299   0.43959   0.00000  Uiso   1.00
Br706  Br    0.34336   0.78368   0.56041   0.00000  Uiso   1.00
N707   N     0.56056   0.95881   0.44089   0.00000  Uiso   1.00
H708   H     0.59898   0.97014   0.44839   0.00000  Uiso   1.00
H709   H     0.54688   0.96683   0.40728   0.00000  Uiso   1.00
N710   N     0.43944   0.70785   0.55911   0.00000  Uiso   1.00
H711   H     0.45312   0.69984   0.59272   0.00000  Uiso   1.00
H712   H     0.40102   0.69652   0.55161   0.00000  Uiso   1.00
Br713  Br    0.57762   0.89956   0.62344   0.00000  Uiso   1.00
Br714  Br    0.42238   0.76711   0.37656   0.00000  Uiso   1.00
C715   C     0.83220   0.75340   0.49985   0.00000  Uiso   1.00
C716   C     0.83447   0.91326   0.50015   0.00000  Uiso   1.00
C717   C     0.73393   0.83338   0.48851   0.00000  Uiso   1.00
C718   C     0.93274   0.83328   0.51149   0.00000  Uiso   1.00
C719   C     0.68032   0.84096   0.48405   0.00000  Uiso   1.00
C720   C     0.98635   0.82570   0.51595   0.00000  Uiso   1.00
C721   C     0.86063   0.68915   0.47014   0.00000  Uiso   1.00
C722   C     0.80603   0.97751   0.52986   0.00000  Uiso   1.00
C723   C     0.86269   0.97961   0.47018   0.00000  Uiso   1.00
C724   C     0.80398   0.68706   0.52982   0.00000  Uiso   1.00
C725   C     0.83495   0.95742   0.50015   0.00000  Uiso   1.00
C726   C     0.83172   0.70924   0.49985   0.00000  Uiso   1.00
C727   C     0.86412   0.86080   0.36130   0.00000  Uiso   1.00
C728   C     0.80254   0.80587   0.63870   0.00000  Uiso   1.00
C729   C     0.86456   0.86073   0.64697   0.00000  Uiso   1.00
C730   C     0.80211   0.80593   0.35302   0.00000  Uiso   1.00
H731   H     0.88250   0.70674   0.44761   0.00000  Uiso   1.00
H732   H     0.78417   0.95993   0.55239   0.00000  Uiso   1.00
H733   H     0.88835   0.88294   0.38253   0.00000  Uiso   1.00
H734   H     0.77832   0.78372   0.61747   0.00000  Uiso   1.00
N735   N     0.83332   0.83332   0.61907   0.00000  Uiso   1.00
N736   N     0.83335   0.83334   0.38093   0.00000  Uiso   1.00
O737   O     0.83333   0.77225   0.53821   0.00000  Uiso   1.00
O738   O     0.83334   0.89442   0.46179   0.00000  Uiso   1.00
O739   O     0.83333   0.77226   0.46176   0.00000  Uiso   1.00
O740   O     0.83334   0.89441   0.53824   0.00000  Uiso   1.00
O741   O     0.75725   0.83333   0.52928   0.00000  Uiso   1.00
O742   O     0.90942   0.83334   0.47072   0.00000  Uiso   1.00
O743   O     0.75725   0.83334   0.45284   0.00000  Uiso   1.00
O744   O     0.90942   0.83333   0.54716   0.00000  Uiso   1.00
Zn745  Zn    0.83333   0.83333   0.55104   0.00000  Uiso   1.00
Zn746  Zn    0.83333   0.83334   0.44896   0.00000  Uiso   1.00
Br747  Br    0.98997   0.88299   0.43959   0.00000  Uiso   1.00
Br748  Br    0.67669   0.78368   0.56041   0.00000  Uiso   1.00
N749   N     0.89389   0.95881   0.44089   0.00000  Uiso   1.00
H750   H     0.93231   0.97014   0.44839   0.00000  Uiso   1.00
H751   H     0.88021   0.96683   0.40728   0.00000  Uiso   1.00
N752   N     0.77278   0.70785   0.55911   0.00000  Uiso   1.00
H753   H     0.78646   0.69984   0.59272   0.00000  Uiso   1.00
H754   H     0.73436   0.69652   0.55161   0.00000  Uiso   1.00
Br755  Br    0.91095   0.89956   0.62344   0.00000  Uiso   1.00
Br756  Br    0.75572   0.76711   0.37656   0.00000  Uiso   1.00
C757   C     0.16553   0.08674   0.83318   0.00000  Uiso   1.00
C758   C     0.16780   0.24660   0.83348   0.00000  Uiso   1.00
C759   C     0.06726   0.16672   0.82184   0.00000  Uiso   1.00
C760   C     0.26607   0.16662   0.84483   0.00000  Uiso   1.00
C761   C     0.01365   0.17430   0.81739   0.00000  Uiso   1.00
C762   C     0.31968   0.15904   0.84928   0.00000  Uiso   1.00
C763   C     0.19397   0.02249   0.80347   0.00000  Uiso   1.00
C764   C     0.13937   0.31085   0.86320   0.00000  Uiso   1.00
C765   C     0.19602   0.31294   0.80351   0.00000  Uiso   1.00
C766   C     0.13731   0.02039   0.86315   0.00000  Uiso   1.00
C767   C     0.16828   0.29076   0.83348   0.00000  Uiso   1.00
C768   C     0.16505   0.04258   0.83319   0.00000  Uiso   1.00
C769   C     0.19746   0.19413   0.69463   0.00000  Uiso   1.00
C770   C     0.13588   0.13920   0.97203   0.00000  Uiso   1.00
C771   C     0.19789   0.19406   0.98031   0.00000  Uiso   1.00
C772   C     0.13544   0.13927   0.68636   0.00000  Uiso   1.00
H773   H     0.21583   0.04007   0.78095   0.00000  Uiso   1.00
H774   H     0.11750   0.29326   0.88572   0.00000  Uiso   1.00
H775   H     0.22168   0.21628   0.71586   0.00000  Uiso   1.00
H776   H     0.11165   0.11706   0.95080   0.00000  Uiso   1.00
N777   N     0.16665   0.16666   0.95240   0.00000  Uiso   1.00
N778   N     0.16668   0.16668   0.71427   0.00000  Uiso   1.00
O779   O     0.16666   0.10558   0.87154   0.00000  Uiso   1.00
O780   O     0.16667   0.22775   0.79513   0.00000  Uiso   1.00
O781   O     0.16666   0.10559   0.79510   0.00000  Uiso   1.00
O782   O     0.16667   0.22774   0.87157   0.00000  Uiso   1.00
O783   O     0.09058   0.16666   0.86261   0.00000  Uiso   1.00
O784   O     0.24275   0.16667   0.80405   0.00000  Uiso   1.00
O785   O     0.09058   0.16667   0.78617   0.00000  Uiso   1.00
O786   O     0.24275   0.16666   0.88050   0.00000  Uiso   1.00
Zn787  Zn    0.16667   0.16666   0.88437   0.00000  Uiso   1.00
Zn788  Zn    0.16667   0.16667   0.78229   0.00000  Uiso   1.00
Br789  Br    0.32331   0.21632   0.77292   0.00000  Uiso   1.00
Br790  Br    0.01003   0.11701   0.89374   0.00000  Uiso   1.00
N791   N     0.22722   0.29215   0.77422   0.00000  Uiso   1.00
H792   H     0.26565   0.30347   0.78173   0.00000  Uiso   1.00
H793   H     0.21355   0.30016   0.74061   0.00000  Uiso   1.00
N794   N     0.10611   0.04119   0.89244   0.00000  Uiso   1.00
H795   H     0.11979   0.03318   0.92605   0.00000  Uiso   1.00
H796   H     0.06769   0.02986   0.88494   0.00000  Uiso   1.00
Br797  Br    0.24428   0.23289   0.95678   0.00000  Uiso   1.00
Br798  Br    0.08905   0.10044   0.70989   0.00000  Uiso   1.00
C799   C     0.49886   0.08674   0.83318   0.00000  Uiso   1.00
C800   C     0.50114   0.24660   0.83348   0.00000  Uiso   1.00
C801   C     0.40059   0.16672   0.82184   0.00000  Uiso   1.00
C802   C     0.59941   0.16662   0.84483   0.00000  Uiso   1.00
C803   C     0.34699   0.17430   0.81739   0.00000  Uiso   1.00
C804   C     0.65301   0.15904   0.84928   0.00000  Uiso   1.00
C805   C     0.52730   0.02249   0.80347   0.00000  Uiso   1.00
C806   C     0.47270   0.31085   0.86320   0.00000  Uiso   1.00
C807   C     0.52936   0.31294   0.80351   0.00000  Uiso   1.00
C808   C     0.47064   0.02039   0.86315   0.00000  Uiso   1.00
C809   C     0.50162   0.29076   0.83348   0.00000  Uiso   1.00
C810   C     0.49838   0.04258   0.83319   0.00000  Uiso   1.00
C811   C     0.53079   0.19413   0.69463   0.00000  Uiso   1.00
C812   C     0.46921   0.13920   0.97203   0.00000  Uiso   1.00
C813   C     0.53123   0.19406   0.98031   0.00000  Uiso   1.00
C814   C     0.46877   0.13927   0.68636   0.00000  Uiso   1.00
H815   H     0.54916   0.04007   0.78095   0.00000  Uiso   1.00
H816   H     0.45084   0.29326   0.88572   0.00000  Uiso   1.00
H817   H     0.55501   0.21628   0.71586   0.00000  Uiso   1.00
H818   H     0.44499   0.11706   0.95080   0.00000  Uiso   1.00
N819   N     0.49999   0.16666   0.95240   0.00000  Uiso   1.00
N820   N     0.50001   0.16668   0.71427   0.00000  Uiso   1.00
O821   O     0.50000   0.10558   0.87154   0.00000  Uiso   1.00
O822   O     0.50000   0.22775   0.79513   0.00000  Uiso   1.00
O823   O     0.50000   0.10559   0.79510   0.00000  Uiso   1.00
O824   O     0.50000   0.22774   0.87157   0.00000  Uiso   1.00
O825   O     0.42392   0.16666   0.86261   0.00000  Uiso   1.00
O826   O     0.57608   0.16667   0.80405   0.00000  Uiso   1.00
O827   O     0.42392   0.16667   0.78617   0.00000  Uiso   1.00
O828   O     0.57608   0.16666   0.88050   0.00000  Uiso   1.00
Zn829  Zn    0.50000   0.16666   0.88437   0.00000  Uiso   1.00
Zn830  Zn    0.50000   0.16667   0.78229   0.00000  Uiso   1.00
Br831  Br    0.65664   0.21632   0.77292   0.00000  Uiso   1.00
Br832  Br    0.34336   0.11701   0.89374   0.00000  Uiso   1.00
N833   N     0.56056   0.29215   0.77422   0.00000  Uiso   1.00
H834   H     0.59898   0.30347   0.78173   0.00000  Uiso   1.00
H835   H     0.54688   0.30016   0.74061   0.00000  Uiso   1.00
N836   N     0.43944   0.04119   0.89244   0.00000  Uiso   1.00
H837   H     0.45312   0.03318   0.92605   0.00000  Uiso   1.00
H838   H     0.40102   0.02986   0.88494   0.00000  Uiso   1.00
Br839  Br    0.57762   0.23289   0.95678   0.00000  Uiso   1.00
Br840  Br    0.42238   0.10044   0.70989   0.00000  Uiso   1.00
C841   C     0.83220   0.08674   0.83318   0.00000  Uiso   1.00
C842   C     0.83447   0.24660   0.83348   0.00000  Uiso   1.00
C843   C     0.73393   0.16672   0.82184   0.00000  Uiso   1.00
C844   C     0.93274   0.16662   0.84483   0.00000  Uiso   1.00
C845   C     0.68032   0.17430   0.81739   0.00000  Uiso   1.00
C846   C     0.98635   0.15904   0.84928   0.00000  Uiso   1.00
C847   C     0.86063   0.02249   0.80347   0.00000  Uiso   1.00
C848   C     0.80603   0.31085   0.86320   0.00000  Uiso   1.00
C849   C     0.86269   0.31294   0.80351   0.00000  Uiso   1.00
C850   C     0.80398   0.02039   0.86315   0.00000  Uiso   1.00
C851   C     0.83495   0.29076   0.83348   0.00000  Uiso   1.00
C852   C     0.83172   0.04258   0.83319   0.00000  Uiso   1.00
C853   C     0.86412   0.19413   0.69463   0.00000  Uiso   1.00
C854   C     0.80254   0.13920   0.97203   0.00000  Uiso   1.00
C855   C     0.86456   0.19406   0.98031   0.00000  Uiso   1.00
C856   C     0.80211   0.13927   0.68636   0.00000  Uiso   1.00
H857   H     0.88250   0.04007   0.78095   0.00000  Uiso   1.00
H858   H     0.78417   0.29326   0.88572   0.00000  Uiso   1.00
H859   H     0.88835   0.21628   0.71586   0.00000  Uiso   1.00
H860   H     0.77832   0.11706   0.95080   0.00000  Uiso   1.00
N861   N     0.83332   0.16666   0.95240   0.00000  Uiso   1.00
N862   N     0.83335   0.16668   0.71427   0.00000  Uiso   1.00
O863   O     0.83333   0.10558   0.87154   0.00000  Uiso   1.00
O864   O     0.83334   0.22775   0.79513   0.00000  Uiso   1.00
O865   O     0.83333   0.10559   0.79510   0.00000  Uiso   1.00
O866   O     0.83334   0.22774   0.87157   0.00000  Uiso   1.00
O867   O     0.75725   0.16666   0.86261   0.00000  Uiso   1.00
O868   O     0.90942   0.16667   0.80405   0.00000  Uiso   1.00
O869   O     0.75725   0.16667   0.78617   0.00000  Uiso   1.00
O870   O     0.90942   0.16666   0.88050   0.00000  Uiso   1.00
Zn871  Zn    0.83333   0.16666   0.88437   0.00000  Uiso   1.00
Zn872  Zn    0.83333   0.16667   0.78229   0.00000  Uiso   1.00
Br873  Br    0.98997   0.21632   0.77292   0.00000  Uiso   1.00
Br874  Br    0.67669   0.11701   0.89374   0.00000  Uiso   1.00
N875   N     0.89389   0.29215   0.77422   0.00000  Uiso   1.00
H876   H     0.93231   0.30347   0.78173   0.00000  Uiso   1.00
H877   H     0.88021   0.30016   0.74061   0.00000  Uiso   1.00
N878   N     0.77278   0.04119   0.89244   0.00000  Uiso   1.00
H879   H     0.78646   0.03318   0.92605   0.00000  Uiso   1.00
H880   H     0.73436   0.02986   0.88494   0.00000  Uiso   1.00
Br881  Br    0.91095   0.23289   0.95678   0.00000  Uiso   1.00
Br882  Br    0.75572   0.10044   0.70989   0.00000  Uiso   1.00
C883   C     0.16553   0.42007   0.83318   0.00000  Uiso   1.00
C884   C     0.16780   0.57993   0.83348   0.00000  Uiso   1.00
C885   C     0.06726   0.50005   0.82184   0.00000  Uiso   1.00
C886   C     0.26607   0.49995   0.84483   0.00000  Uiso   1.00
C887   C     0.01365   0.50763   0.81739   0.00000  Uiso   1.00
C888   C     0.31968   0.49237   0.84928   0.00000  Uiso   1.00
C889   C     0.19397   0.35582   0.80347   0.00000  Uiso   1.00
C890   C     0.13937   0.64418   0.86320   0.00000  Uiso   1.00
C891   C     0.19602   0.64627   0.80351   0.00000  Uiso   1.00
C892   C     0.13731   0.35373   0.86315   0.00000  Uiso   1.00
C893   C     0.16828   0.62409   0.83348   0.00000  Uiso   1.00
C894   C     0.16505   0.37591   0.83319   0.00000  Uiso   1.00
C895   C     0.19746   0.52746   0.69463   0.00000  Uiso   1.00
C896   C     0.13588   0.47254   0.97203   0.00000  Uiso   1.00
C897   C     0.19789   0.52740   0.98031   0.00000  Uiso   1.00
C898   C     0.13544   0.47260   0.68636   0.00000  Uiso   1.00
H899   H     0.21583   0.37341   0.78095   0.00000  Uiso   1.00
H900   H     0.11750   0.62659   0.88572   0.00000  Uiso   1.00
H901   H     0.22168   0.54961   0.71586   0.00000  Uiso   1.00
H902   H     0.11165   0.45039   0.95080   0.00000  Uiso   1.00
N903   N     0.16665   0.49999   0.95240   0.00000  Uiso   1.00
N904   N     0.16668   0.50001   0.71427   0.00000  Uiso   1.00
O905   O     0.16666   0.43892   0.87154   0.00000  Uiso   1.00
O906   O     0.16667   0.56108   0.79513   0.00000  Uiso   1.00
O907   O     0.16666   0.43893   0.79510   0.00000  Uiso   1.00
O908   O     0.16667   0.56107   0.87157   0.00000  Uiso   1.00
O909   O     0.09058   0.50000   0.86261   0.00000  Uiso   1.00
O910   O     0.24275   0.50000   0.80405   0.00000  Uiso   1.00
O911   O     0.09058   0.50000   0.78617   0.00000  Uiso   1.00
O912   O     0.24275   0.50000   0.88050   0.00000  Uiso   1.00
Zn913  Zn    0.16667   0.49999   0.88437   0.00000  Uiso   1.00
Zn914  Zn    0.16667   0.50001   0.78229   0.00000  Uiso   1.00
Br915  Br    0.32331   0.54965   0.77292   0.00000  Uiso   1.00
Br916  Br    0.01003   0.45035   0.89374   0.00000  Uiso   1.00
N917   N     0.22722   0.62548   0.77422   0.00000  Uiso   1.00
H918   H     0.26565   0.63681   0.78173   0.00000  Uiso   1.00
H919   H     0.21355   0.63349   0.74061   0.00000  Uiso   1.00
N920   N     0.10611   0.37452   0.89244   0.00000  Uiso   1.00
H921   H     0.11979   0.36651   0.92605   0.00000  Uiso   1.00
H922   H     0.06769   0.36319   0.88494   0.00000  Uiso   1.00
Br923  Br    0.24428   0.56622   0.95678   0.00000  Uiso   1.00
Br924  Br    0.08905   0.43378   0.70989   0.00000  Uiso   1.00
C925   C     0.49886   0.42007   0.83318   0.00000  Uiso   1.00
C926   C     0.50114   0.57993   0.83348   0.00000  Uiso   1.00
C927   C     0.40059   0.50005   0.82184   0.00000  Uiso   1.00
C928   C     0.59941   0.49995   0.84483   0.00000  Uiso   1.00
C929   C     0.34699   0.50763   0.81739   0.00000  Uiso   1.00
C930   C     0.65301   0.49237   0.84928   0.00000  Uiso   1.00
C931   C     0.52730   0.35582   0.80347   0.00000  Uiso   1.00
C932   C     0.47270   0.64418   0.86320   0.00000  Uiso   1.00
C933   C     0.52936   0.64627   0.80351   0.00000  Uiso   1.00
C934   C     0.47064   0.35373   0.86315   0.00000  Uiso   1.00
C935   C     0.50162   0.62409   0.83348   0.00000  Uiso   1.00
C936   C     0.49838   0.37591   0.83319   0.00000  Uiso   1.00
C937   C     0.53079   0.52746   0.69463   0.00000  Uiso   1.00
C938   C     0.46921   0.47254   0.97203   0.00000  Uiso   1.00
C939   C     0.53123   0.52740   0.98031   0.00000  Uiso   1.00
C940   C     0.46877   0.47260   0.68636   0.00000  Uiso   1.00
H941   H     0.54916   0.37341   0.78095   0.00000  Uiso   1.00
H942   H     0.45084   0.62659   0.88572   0.00000  Uiso   1.00
H943   H     0.55501   0.54961   0.71586   0.00000  Uiso   1.00
H944   H     0.44499   0.45039   0.95080   0.00000  Uiso   1.00
N945   N     0.49999   0.49999   0.95240   0.00000  Uiso   1.00
N946   N     0.50001   0.50001   0.71427   0.00000  Uiso   1.00
O947   O     0.50000   0.43892   0.87154   0.00000  Uiso   1.00
O948   O     0.50000   0.56108   0.79513   0.00000  Uiso   1.00
O949   O     0.50000   0.43893   0.79510   0.00000  Uiso   1.00
O950   O     0.50000   0.56107   0.87157   0.00000  Uiso   1.00
O951   O     0.42392   0.50000   0.86261   0.00000  Uiso   1.00
O952   O     0.57608   0.50000   0.80405   0.00000  Uiso   1.00
O953   O     0.42392   0.50000   0.78617   0.00000  Uiso   1.00
O954   O     0.57608   0.50000   0.88050   0.00000  Uiso   1.00
Zn955  Zn    0.50000   0.49999   0.88437   0.00000  Uiso   1.00
Zn956  Zn    0.50000   0.50001   0.78229   0.00000  Uiso   1.00
Br957  Br    0.65664   0.54965   0.77292   0.00000  Uiso   1.00
Br958  Br    0.34336   0.45035   0.89374   0.00000  Uiso   1.00
N959   N     0.56056   0.62548   0.77422   0.00000  Uiso   1.00
H960   H     0.59898   0.63681   0.78173   0.00000  Uiso   1.00
H961   H     0.54688   0.63349   0.74061   0.00000  Uiso   1.00
N962   N     0.43944   0.37452   0.89244   0.00000  Uiso   1.00
H963   H     0.45312   0.36651   0.92605   0.00000  Uiso   1.00
H964   H     0.40102   0.36319   0.88494   0.00000  Uiso   1.00
Br965  Br    0.57762   0.56622   0.95678   0.00000  Uiso   1.00
Br966  Br    0.42238   0.43378   0.70989   0.00000  Uiso   1.00
C967   C     0.83220   0.42007   0.83318   0.00000  Uiso   1.00
C968   C     0.83447   0.57993   0.83348   0.00000  Uiso   1.00
C969   C     0.73393   0.50005   0.82184   0.00000  Uiso   1.00
C970   C     0.93274   0.49995   0.84483   0.00000  Uiso   1.00
C971   C     0.68032   0.50763   0.81739   0.00000  Uiso   1.00
C972   C     0.98635   0.49237   0.84928   0.00000  Uiso   1.00
C973   C     0.86063   0.35582   0.80347   0.00000  Uiso   1.00
C974   C     0.80603   0.64418   0.86320   0.00000  Uiso   1.00
C975   C     0.86269   0.64627   0.80351   0.00000  Uiso   1.00
C976   C     0.80398   0.35373   0.86315   0.00000  Uiso   1.00
C977   C     0.83495   0.62409   0.83348   0.00000  Uiso   1.00
C978   C     0.83172   0.37591   0.83319   0.00000  Uiso   1.00
C979   C     0.86412   0.52746   0.69463   0.00000  Uiso   1.00
C980   C     0.80254   0.47254   0.97203   0.00000  Uiso   1.00
C981   C     0.86456   0.52740   0.98031   0.00000  Uiso   1.00
C982   C     0.80211   0.47260   0.68636   0.00000  Uiso   1.00
H983   H     0.88250   0.37341   0.78095   0.00000  Uiso   1.00
H984   H     0.78417   0.62659   0.88572   0.00000  Uiso   1.00
H985   H     0.88835   0.54961   0.71586   0.00000  Uiso   1.00
H986   H     0.77832   0.45039   0.95080   0.00000  Uiso   1.00
N987   N     0.83332   0.49999   0.95240   0.00000  Uiso   1.00
N988   N     0.83335   0.50001   0.71427   0.00000  Uiso   1.00
O989   O     0.83333   0.43892   0.87154   0.00000  Uiso   1.00
O990   O     0.83334   0.56108   0.79513   0.00000  Uiso   1.00
O991   O     0.83333   0.43893   0.79510   0.00000  Uiso   1.00
O992   O     0.83334   0.56107   0.87157   0.00000  Uiso   1.00
O993   O     0.75725   0.50000   0.86261   0.00000  Uiso   1.00
O994   O     0.90942   0.50000   0.80405   0.00000  Uiso   1.00
O995   O     0.75725   0.50000   0.78617   0.00000  Uiso   1.00
O996   O     0.90942   0.50000   0.88050   0.00000  Uiso   1.00
Zn997  Zn    0.83333   0.49999   0.88437   0.00000  Uiso   1.00
Zn998  Zn    0.83333   0.50001   0.78229   0.00000  Uiso   1.00
Br999  Br    0.98997   0.54965   0.77292   0.00000  Uiso   1.00
Br1000 Br    0.67669   0.45035   0.89374   0.00000  Uiso   1.00
N1001  N     0.89389   0.62548   0.77422   0.00000  Uiso   1.00
H1002  H     0.93231   0.63681   0.78173   0.00000  Uiso   1.00
H1003  H     0.88021   0.63349   0.74061   0.00000  Uiso   1.00
N1004  N     0.77278   0.37452   0.89244   0.00000  Uiso   1.00
H1005  H     0.78646   0.36651   0.92605   0.00000  Uiso   1.00
H1006  H     0.73436   0.36319   0.88494   0.00000  Uiso   1.00
Br1007 Br    0.91095   0.56622   0.95678   0.00000  Uiso   1.00
Br1008 Br    0.75572   0.43378   0.70989   0.00000  Uiso   1.00
C1009  C     0.16553   0.75340   0.83318   0.00000  Uiso   1.00
C1010  C     0.16780   0.91326   0.83348   0.00000  Uiso   1.00
C1011  C     0.06726   0.83338   0.82184   0.00000  Uiso   1.00
C1012  C     0.26607   0.83328   0.84483   0.00000  Uiso   1.00
C1013  C     0.01365   0.84096   0.81739   0.00000  Uiso   1.00
C1014  C     0.31968   0.82570   0.84928   0.00000  Uiso   1.00
C1015  C     0.19397   0.68915   0.80347   0.00000  Uiso   1.00
C1016  C     0.13937   0.97751   0.86320   0.00000  Uiso   1.00
C1017  C     0.19602   0.97961   0.80351   0.00000  Uiso   1.00
C1018  C     0.13731   0.68706   0.86315   0.00000  Uiso   1.00
C1019  C     0.16828   0.95742   0.83348   0.00000  Uiso   1.00
C1020  C     0.16505   0.70924   0.83319   0.00000  Uiso   1.00
C1021  C     0.19746   0.86080   0.69463   0.00000  Uiso   1.00
C1022  C     0.13588   0.80587   0.97203   0.00000  Uiso   1.00
C1023  C     0.19789   0.86073   0.98031   0.00000  Uiso   1.00
C1024  C     0.13544   0.80593   0.68636   0.00000  Uiso   1.00
H1025  H     0.21583   0.70674   0.78095   0.00000  Uiso   1.00
H1026  H     0.11750   0.95993   0.88572   0.00000  Uiso   1.00
H1027  H     0.22168   0.88294   0.71586   0.00000  Uiso   1.00
H1028  H     0.11165   0.78372   0.95080   0.00000  Uiso   1.00
N1029  N     0.16665   0.83332   0.95240   0.00000  Uiso   1.00
N1030  N     0.16668   0.83334   0.71427   0.00000  Uiso   1.00
O1031  O     0.16666   0.77225   0.87154   0.00000  Uiso   1.00
O1032  O     0.16667   0.89442   0.79513   0.00000  Uiso   1.00
O1033  O     0.16666   0.77226   0.79510   0.00000  Uiso   1.00
O1034  O     0.16667   0.89441   0.87157   0.00000  Uiso   1.00
O1035  O     0.09058   0.83333   0.86261   0.00000  Uiso   1.00
O1036  O     0.24275   0.83334   0.80405   0.00000  Uiso   1.00
O1037  O     0.09058   0.83334   0.78617   0.00000  Uiso   1.00
O1038  O     0.24275   0.83333   0.88050   0.00000  Uiso   1.00
Zn1039 Zn    0.16667   0.83333   0.88437   0.00000  Uiso   1.00
Zn1040 Zn    0.16667   0.83334   0.78229   0.00000  Uiso   1.00
Br1041 Br    0.32331   0.88299   0.77292   0.00000  Uiso   1.00
Br1042 Br    0.01003   0.78368   0.89374   0.00000  Uiso   1.00
N1043  N     0.22722   0.95881   0.77422   0.00000  Uiso   1.00
H1044  H     0.26565   0.97014   0.78173   0.00000  Uiso   1.00
H1045  H     0.21355   0.96683   0.74061   0.00000  Uiso   1.00
N1046  N     0.10611   0.70785   0.89244   0.00000  Uiso   1.00
H1047  H     0.11979   0.69984   0.92605   0.00000  Uiso   1.00
H1048  H     0.06769   0.69652   0.88494   0.00000  Uiso   1.00
Br1049 Br    0.24428   0.89956   0.95678   0.00000  Uiso   1.00
Br1050 Br    0.08905   0.76711   0.70989   0.00000  Uiso   1.00
C1051  C     0.49886   0.75340   0.83318   0.00000  Uiso   1.00
C1052  C     0.50114   0.91326   0.83348   0.00000  Uiso   1.00
C1053  C     0.40059   0.83338   0.82184   0.00000  Uiso   1.00
C1054  C     0.59941   0.83328   0.84483   0.00000  Uiso   1.00
C1055  C     0.34699   0.84096   0.81739   0.00000  Uiso   1.00
C1056  C     0.65301   0.82570   0.84928   0.00000  Uiso   1.00
C1057  C     0.52730   0.68915   0.80347   0.00000  Uiso   1.00
C1058  C     0.47270   0.97751   0.86320   0.00000  Uiso   1.00
C1059  C     0.52936   0.97961   0.80351   0.00000  Uiso   1.00
C1060  C     0.47064   0.68706   0.86315   0.00000  Uiso   1.00
C1061  C     0.50162   0.95742   0.83348   0.00000  Uiso   1.00
C1062  C     0.49838   0.70924   0.83319   0.00000  Uiso   1.00
C1063  C     0.53079   0.86080   0.69463   0.00000  Uiso   1.00
C1064  C     0.46921   0.80587   0.97203   0.00000  Uiso   1.00
C1065  C     0.53123   0.86073   0.98031   0.00000  Uiso   1.00
C1066  C     0.46877   0.80593   0.68636   0.00000  Uiso   1.00
H1067  H     0.54916   0.70674   0.78095   0.00000  Uiso   1.00
H1068  H     0.45084   0.95993   0.88572   0.00000  Uiso   1.00
H1069  H     0.55501   0.88294   0.71586   0.00000  Uiso   1.00
H1070  H     0.44499   0.78372   0.95080   0.00000  Uiso   1.00
N1071  N     0.49999   0.83332   0.95240   0.00000  Uiso   1.00
N1072  N     0.50001   0.83334   0.71427   0.00000  Uiso   1.00
O1073  O     0.50000   0.77225   0.87154   0.00000  Uiso   1.00
O1074  O     0.50000   0.89442   0.79513   0.00000  Uiso   1.00
O1075  O     0.50000   0.77226   0.79510   0.00000  Uiso   1.00
O1076  O     0.50000   0.89441   0.87157   0.00000  Uiso   1.00
O1077  O     0.42392   0.83333   0.86261   0.00000  Uiso   1.00
O1078  O     0.57608   0.83334   0.80405   0.00000  Uiso   1.00
O1079  O     0.42392   0.83334   0.78617   0.00000  Uiso   1.00
O1080  O     0.57608   0.83333   0.88050   0.00000  Uiso   1.00
Zn1081 Zn    0.50000   0.83333   0.88437   0.00000  Uiso   1.00
Zn1082 Zn    0.50000   0.83334   0.78229   0.00000  Uiso   1.00
Br1083 Br    0.65664   0.88299   0.77292   0.00000  Uiso   1.00
Br1084 Br    0.34336   0.78368   0.89374   0.00000  Uiso   1.00
N1085  N     0.56056   0.95881   0.77422   0.00000  Uiso   1.00
H1086  H     0.59898   0.97014   0.78173   0.00000  Uiso   1.00
H1087  H     0.54688   0.96683   0.74061   0.00000  Uiso   1.00
N1088  N     0.43944   0.70785   0.89244   0.00000  Uiso   1.00
H1089  H     0.45312   0.69984   0.92605   0.00000  Uiso   1.00
H1090  H     0.40102   0.69652   0.88494   0.00000  Uiso   1.00
Br1091 Br    0.57762   0.89956   0.95678   0.00000  Uiso   1.00
Br1092 Br    0.42238   0.76711   0.70989   0.00000  Uiso   1.00
C1093  C     0.83220   0.75340   0.83318   0.00000  Uiso   1.00
C1094  C     0.83447   0.91326   0.83348   0.00000  Uiso   1.00
C1095  C     0.73393   0.83338   0.82184   0.00000  Uiso   1.00
C1096  C     0.93274   0.83328   0.84483   0.00000  Uiso   1.00
C1097  C     0.68032   0.84096   0.81739   0.00000  Uiso   1.00
C1098  C     0.98635   0.82570   0.84928   0.00000  Uiso   1.00
C1099  C     0.86063   0.68915   0.80347   0.00000  Uiso   1.00
C1100  C     0.80603   0.97751   0.86320   0.00000  Uiso   1.00
C1101  C     0.86269   0.97961   0.80351   0.00000  Uiso   1.00
C1102  C     0.80398   0.68706   0.86315   0.00000  Uiso   1.00
C1103  C     0.83495   0.95742   0.83348   0.00000  Uiso   1.00
C1104  C     0.83172   0.70924   0.83319   0.00000  Uiso   1.00
C1105  C     0.86412   0.86080   0.69463   0.00000  Uiso   1.00
C1106  C     0.80254   0.80587   0.97203   0.00000  Uiso   1.00
C1107  C     0.86456   0.86073   0.98031   0.00000  Uiso   1.00
C1108  C     0.80211   0.80593   0.68636   0.00000  Uiso   1.00
H1109  H     0.88250   0.70674   0.78095   0.00000  Uiso   1.00
H1110  H     0.78417   0.95993   0.88572   0.00000  Uiso   1.00
H1111  H     0.88835   0.88294   0.71586   0.00000  Uiso   1.00
H1112  H     0.77832   0.78372   0.95080   0.00000  Uiso   1.00
N1113  N     0.83332   0.83332   0.95240   0.00000  Uiso   1.00
N1114  N     0.83335   0.83334   0.71427   0.00000  Uiso   1.00
O1115  O     0.83333   0.77225   0.87154   0.00000  Uiso   1.00
O1116  O     0.83334   0.89442   0.79513   0.00000  Uiso   1.00
O1117  O     0.83333   0.77226   0.79510   0.00000  Uiso   1.00
O1118  O     0.83334   0.89441   0.87157   0.00000  Uiso   1.00
O1119  O     0.75725   0.83333   0.86261   0.00000  Uiso   1.00
O1120  O     0.90942   0.83334   0.80405   0.00000  Uiso   1.00
O1121  O     0.75725   0.83334   0.78617   0.00000  Uiso   1.00
O1122  O     0.90942   0.83333   0.88050   0.00000  Uiso   1.00
Zn1123 Zn    0.83333   0.83333   0.88437   0.00000  Uiso   1.00
Zn1124 Zn    0.83333   0.83334   0.78229   0.00000  Uiso   1.00
Br1125 Br    0.98997   0.88299   0.77292   0.00000  Uiso   1.00
Br1126 Br    0.67669   0.78368   0.89374   0.00000  Uiso   1.00
N1127  N     0.89389   0.95881   0.77422   0.00000  Uiso   1.00
H1128  H     0.93231   0.97014   0.78173   0.00000  Uiso   1.00
H1129  H     0.88021   0.96683   0.74061   0.00000  Uiso   1.00
N1130  N     0.77278   0.70785   0.89244   0.00000  Uiso   1.00
H1131  H     0.78646   0.69984   0.92605   0.00000  Uiso   1.00
H1132  H     0.73436   0.69652   0.88494   0.00000  Uiso   1.00
Br1133 Br    0.91095   0.89956   0.95678   0.00000  Uiso   1.00
Br1134 Br    0.75572   0.76711   0.70989   0.00000  Uiso   1.00
loop_
_geom_bond_atom_site_label_1
_geom_bond_atom_site_label_2
_geom_bond_distance
_geom_bond_site_symmetry_2
_ccdc_geom_bond_type
C1     O25     1.286   .     A
C1     C12     1.415   .     S
C1     O23     1.283   .     A
C2     O26     1.286   .     A
C2     C11     1.415   .     S
C2     O24     1.283   .     A
C3     O27     1.275   .     A
C3     O29     1.287   .     A
C3     C5      1.400   .     S
C4     O30     1.287   .     A
C4     C6      1.400   .     S
C4     O28     1.275   .     A
C5     C90     1.343   1_455 S
C5     Br117   1.937   1_455 S
C6     C47     1.343   .     S
C6     Br76    1.937   .     S
C7     H17     1.085   .     S
C7     C12     1.394   .     A
C7     C261    1.376   1_545 S
C8     C11     1.394   .     A
C8     H18     1.085   .     S
C8     C136    1.376   .     S
C9     C11     1.403   .     A
C9     N35     1.434   .     S
C9     C133    1.376   .     S
C10    N38     1.434   .     S
C10    C12     1.403   .     A
C10    C260    1.376   1_545 S
C13    N22     1.360   .     A
C13    H19     1.079   .     S
C13    C771    1.415   1_554 S
C14    N21     1.360   .     A
C14    H20     1.079   .     S
C14    C394    1.415   .     S
C15    N21     1.377   .     A
C15    Br41    1.911   .     S
C15    C391    1.415   .     S
C16    Br42    1.911   .     S
C16    N22     1.377   .     A
C16    C770    1.415   1_554 S
N21    Zn31    2.017   .     S
N22    Zn32    2.017   .     S
O23    Zn31    1.993   .     S
O24    Zn32    1.993   .     S
O25    Zn32    1.995   .     S
O26    Zn31    1.995   .     S
O27    Zn31    1.984   .     S
O28    Zn32    1.984   .     S
O29    Zn32    1.985   .     S
O30    Zn31    1.985   .     S
Br33   C47     1.937   .     S
Br34   C90     1.937   1_455 S
N35    H36     1.046   .     S
N35    H37     1.046   .     S
N38    H40     1.046   .     S
N38    H39     1.046   .     S
C43    O67     1.286   .     A
C43    C54     1.415   .     S
C43    O65     1.283   .     A
C44    O68     1.286   .     A
C44    C53     1.415   .     S
C44    O66     1.283   .     A
C45    O69     1.275   .     A
C45    O71     1.287   .     A
C45    C47     1.400   .     S
C46    O72     1.287   .     A
C46    C48     1.400   .     S
C46    O70     1.275   .     A
C48    C89     1.343   .     S
C48    Br118   1.937   .     S
C49    H59     1.085   .     S
C49    C54     1.394   .     A
C49    C303    1.376   1_545 S
C50    C53     1.394   .     A
C50    H60     1.085   .     S
C50    C178    1.376   .     S
C51    C53     1.403   .     A
C51    N77     1.434   .     S
C51    C175    1.376   .     S
C52    N80     1.434   .     S
C52    C54     1.403   .     A
C52    C302    1.376   1_545 S
C55    N64     1.360   .     A
C55    H61     1.079   .     S
C55    C813    1.415   1_554 S
C56    N63     1.360   .     A
C56    H62     1.079   .     S
C56    C436    1.415   .     S
C57    N63     1.377   .     A
C57    Br83    1.911   .     S
C57    C433    1.415   .     S
C58    Br84    1.911   .     S
C58    N64     1.377   .     A
C58    C812    1.415   1_554 S
N63    Zn73    2.017   .     S
N64    Zn74    2.017   .     S
O65    Zn73    1.993   .     S
O66    Zn74    1.993   .     S
O67    Zn74    1.995   .     S
O68    Zn73    1.995   .     S
O69    Zn73    1.984   .     S
O70    Zn74    1.984   .     S
O71    Zn74    1.985   .     S
O72    Zn73    1.985   .     S
Br75   C89     1.937   .     S
N77    H78     1.046   .     S
N77    H79     1.046   .     S
N80    H82     1.046   .     S
N80    H81     1.046   .     S
C85    O109    1.286   .     A
C85    C96     1.415   .     S
C85    O107    1.283   .     A
C86    O110    1.286   .     A
C86    C95     1.415   .     S
C86    O108    1.283   .     A
C87    O111    1.275   .     A
C87    O113    1.287   .     A
C87    C89     1.400   .     S
C88    O114    1.287   .     A
C88    C90     1.400   .     S
C88    O112    1.275   .     A
C90    C5      1.343   1_655 S
C90    Br34    1.937   1_655 S
C91    H101    1.085   .     S
C91    C96     1.394   .     A
C91    C345    1.376   1_545 S
C92    C95     1.394   .     A
C92    H102    1.085   .     S
C92    C220    1.376   .     S
C93    C95     1.403   .     A
C93    N119    1.434   .     S
C93    C217    1.376   .     S
C94    N122    1.434   .     S
C94    C96     1.403   .     A
C94    C344    1.376   1_545 S
C97    N106    1.360   .     A
C97    H103    1.079   .     S
C97    C855    1.415   1_554 S
C98    N105    1.360   .     A
C98    H104    1.079   .     S
C98    C478    1.415   .     S
C99    N105    1.377   .     A
C99    Br125   1.911   .     S
C99    C475    1.415   .     S
C100   Br126   1.911   .     S
C100   N106    1.377   .     A
C100   C854    1.415   1_554 S
N105   Zn115   2.017   .     S
N106   Zn116   2.017   .     S
O107   Zn115   1.993   .     S
O108   Zn116   1.993   .     S
O109   Zn116   1.995   .     S
O110   Zn115   1.995   .     S
O111   Zn115   1.984   .     S
O112   Zn116   1.984   .     S
O113   Zn116   1.985   .     S
O114   Zn115   1.985   .     S
Br117  C5      1.937   1_655 S
N119   H120    1.046   .     S
N119   H121    1.046   .     S
N122   H124    1.046   .     S
N122   H123    1.046   .     S
C127   O151    1.286   .     A
C127   C138    1.415   .     S
C127   O149    1.283   .     A
C128   O152    1.286   .     A
C128   C137    1.415   .     S
C128   O150    1.283   .     A
C129   O153    1.275   .     A
C129   O155    1.287   .     A
C129   C131    1.400   .     S
C130   O156    1.287   .     A
C130   C132    1.400   .     S
C130   O154    1.275   .     A
C131   C216    1.343   1_455 S
C131   Br243   1.937   1_455 S
C132   C173    1.343   .     S
C132   Br202   1.937   .     S
C133   H143    1.085   .     S
C133   C138    1.394   .     A
C134   C137    1.394   .     A
C134   H144    1.085   .     S
C134   C262    1.376   .     S
C135   C137    1.403   .     A
C135   N161    1.434   .     S
C135   C259    1.376   .     S
C136   N164    1.434   .     S
C136   C138    1.403   .     A
C139   N148    1.360   .     A
C139   H145    1.079   .     S
C139   C897    1.415   1_554 S
C140   N147    1.360   .     A
C140   H146    1.079   .     S
C140   C520    1.415   .     S
C141   N147    1.377   .     A
C141   Br167   1.911   .     S
C141   C517    1.415   .     S
C142   Br168   1.911   .     S
C142   N148    1.377   .     A
C142   C896    1.415   1_554 S
N147   Zn157   2.017   .     S
N148   Zn158   2.017   .     S
O149   Zn157   1.993   .     S
O150   Zn158   1.993   .     S
O151   Zn158   1.995   .     S
O152   Zn157   1.995   .     S
O153   Zn157   1.984   .     S
O154   Zn158   1.984   .     S
O155   Zn158   1.985   .     S
O156   Zn157   1.985   .     S
Br159  C173    1.937   .     S
Br160  C216    1.937   1_455 S
N161   H162    1.046   .     S
N161   H163    1.046   .     S
N164   H166    1.046   .     S
N164   H165    1.046   .     S
C169   O193    1.286   .     A
C169   C180    1.415   .     S
C169   O191    1.283   .     A
C170   O194    1.286   .     A
C170   C179    1.415   .     S
C170   O192    1.283   .     A
C171   O195    1.275   .     A
C171   O197    1.287   .     A
C171   C173    1.400   .     S
C172   O198    1.287   .     A
C172   C174    1.400   .     S
C172   O196    1.275   .     A
C174   C215    1.343   .     S
C174   Br244   1.937   .     S
C175   H185    1.085   .     S
C175   C180    1.394   .     A
C176   C179    1.394   .     A
C176   H186    1.085   .     S
C176   C304    1.376   .     S
C177   C179    1.403   .     A
C177   N203    1.434   .     S
C177   C301    1.376   .     S
C178   N206    1.434   .     S
C178   C180    1.403   .     A
C181   N190    1.360   .     A
C181   H187    1.079   .     S
C181   C939    1.415   1_554 S
C182   N189    1.360   .     A
C182   H188    1.079   .     S
C182   C562    1.415   .     S
C183   N189    1.377   .     A
C183   Br209   1.911   .     S
C183   C559    1.415   .     S
C184   Br210   1.911   .     S
C184   N190    1.377   .     A
C184   C938    1.415   1_554 S
N189   Zn199   2.017   .     S
N190   Zn200   2.017   .     S
O191   Zn199   1.993   .     S
O192   Zn200   1.993   .     S
O193   Zn200   1.995   .     S
O194   Zn199   1.995   .     S
O195   Zn199   1.984   .     S
O196   Zn200   1.984   .     S
O197   Zn200   1.985   .     S
O198   Zn199   1.985   .     S
Br201  C215    1.937   .     S
N203   H204    1.046   .     S
N203   H205    1.046   .     S
N206   H208    1.046   .     S
N206   H207    1.046   .     S
C211   O235    1.286   .     A
C211   C222    1.415   .     S
C211   O233    1.283   .     A
C212   O236    1.286   .     A
C212   C221    1.415   .     S
C212   O234    1.283   .     A
C213   O237    1.275   .     A
C213   O239    1.287   .     A
C213   C215    1.400   .     S
C214   O240    1.287   .     A
C214   C216    1.400   .     S
C214   O238    1.275   .     A
C216   C131    1.343   1_655 S
C216   Br160   1.937   1_655 S
C217   H227    1.085   .     S
C217   C222    1.394   .     A
C218   C221    1.394   .     A
C218   H228    1.085   .     S
C218   C346    1.376   .     S
C219   C221    1.403   .     A
C219   N245    1.434   .     S
C219   C343    1.376   .     S
C220   N248    1.434   .     S
C220   C222    1.403   .     A
C223   N232    1.360   .     A
C223   H229    1.079   .     S
C223   C981    1.415   1_554 S
C224   N231    1.360   .     A
C224   H230    1.079   .     S
C224   C604    1.415   .     S
C225   N231    1.377   .     A
C225   Br251   1.911   .     S
C225   C601    1.415   .     S
C226   Br252   1.911   .     S
C226   N232    1.377   .     A
C226   C980    1.415   1_554 S
N231   Zn241   2.017   .     S
N232   Zn242   2.017   .     S
O233   Zn241   1.993   .     S
O234   Zn242   1.993   .     S
O235   Zn242   1.995   .     S
O236   Zn241   1.995   .     S
O237   Zn241   1.984   .     S
O238   Zn242   1.984   .     S
O239   Zn242   1.985   .     S
O240   Zn241   1.985   .     S
Br243  C131    1.937   1_655 S
N245   H246    1.046   .     S
N245   H247    1.046   .     S
N248   H250    1.046   .     S
N248   H249    1.046   .     S
C253   O277    1.286   .     A
C253   C264    1.415   .     S
C253   O275    1.283   .     A
C254   O278    1.286   .     A
C254   C263    1.415   .     S
C254   O276    1.283   .     A
C255   O279    1.275   .     A
C255   O281    1.287   .     A
C255   C257    1.400   .     S
C256   O282    1.287   .     A
C256   C258    1.400   .     S
C256   O280    1.275   .     A
C257   C342    1.343   1_455 S
C257   Br369   1.937   1_455 S
C258   C299    1.343   .     S
C258   Br328   1.937   .     S
C259   H269    1.085   .     S
C259   C264    1.394   .     A
C260   C263    1.394   .     A
C260   H270    1.085   .     S
C260   C10     1.376   1_565 S
C261   C263    1.403   .     A
C261   N287    1.434   .     S
C261   C7      1.376   1_565 S
C262   N290    1.434   .     S
C262   C264    1.403   .     A
C265   N274    1.360   .     A
C265   H271    1.079   .     S
C265   C1023   1.415   1_554 S
C266   N273    1.360   .     A
C266   H272    1.079   .     S
C266   C646    1.415   .     S
C267   N273    1.377   .     A
C267   Br293   1.911   .     S
C267   C643    1.415   .     S
C268   Br294   1.911   .     S
C268   N274    1.377   .     A
C268   C1022   1.415   1_554 S
N273   Zn283   2.017   .     S
N274   Zn284   2.017   .     S
O275   Zn283   1.993   .     S
O276   Zn284   1.993   .     S
O277   Zn284   1.995   .     S
O278   Zn283   1.995   .     S
O279   Zn283   1.984   .     S
O280   Zn284   1.984   .     S
O281   Zn284   1.985   .     S
O282   Zn283   1.985   .     S
Br285  C299    1.937   .     S
Br286  C342    1.937   1_455 S
N287   H288    1.046   .     S
N287   H289    1.046   .     S
N290   H292    1.046   .     S
N290   H291    1.046   .     S
C295   O319    1.286   .     A
C295   C306    1.415   .     S
C295   O317    1.283   .     A
C296   O320    1.286   .     A
C296   C305    1.415   .     S
C296   O318    1.283   .     A
C297   O321    1.275   .     A
C297   O323    1.287   .     A
C297   C299    1.400   .     S
C298   O324    1.287   .     A
C298   C300    1.400   .     S
C298   O322    1.275   .     A
C300   C341    1.343   .     S
C300   Br370   1.937   .     S
C301   H311    1.085   .     S
C301   C306    1.394   .     A
C302   C305    1.394   .     A
C302   H312    1.085   .     S
C302   C52     1.376   1_565 S
C303   C305    1.403   .     A
C303   N329    1.434   .     S
C303   C49     1.376   1_565 S
C304   N332    1.434   .     S
C304   C306    1.403   .     A
C307   N316    1.360   .     A
C307   H313    1.079   .     S
C307   C1065   1.415   1_554 S
C308   N315    1.360   .     A
C308   H314    1.079   .     S
C308   C688    1.415   .     S
C309   N315    1.377   .     A
C309   Br335   1.911   .     S
C309   C685    1.415   .     S
C310   Br336   1.911   .     S
C310   N316    1.377   .     A
C310   C1064   1.415   1_554 S
N315   Zn325   2.017   .     S
N316   Zn326   2.017   .     S
O317   Zn325   1.993   .     S
O318   Zn326   1.993   .     S
O319   Zn326   1.995   .     S
O320   Zn325   1.995   .     S
O321   Zn325   1.984   .     S
O322   Zn326   1.984   .     S
O323   Zn326   1.985   .     S
O324   Zn325   1.985   .     S
Br327  C341    1.937   .     S
N329   H330    1.046   .     S
N329   H331    1.046   .     S
N332   H334    1.046   .     S
N332   H333    1.046   .     S
C337   O361    1.286   .     A
C337   C348    1.415   .     S
C337   O359    1.283   .     A
C338   O362    1.286   .     A
C338   C347    1.415   .     S
C338   O360    1.283   .     A
C339   O363    1.275   .     A
C339   O365    1.287   .     A
C339   C341    1.400   .     S
C340   O366    1.287   .     A
C340   C342    1.400   .     S
C340   O364    1.275   .     A
C342   C257    1.343   1_655 S
C342   Br286   1.937   1_655 S
C343   H353    1.085   .     S
C343   C348    1.394   .     A
C344   C347    1.394   .     A
C344   H354    1.085   .     S
C344   C94     1.376   1_565 S
C345   C347    1.403   .     A
C345   N371    1.434   .     S
C345   C91     1.376   1_565 S
C346   N374    1.434   .     S
C346   C348    1.403   .     A
C349   N358    1.360   .     A
C349   H355    1.079   .     S
C349   C1107   1.415   1_554 S
C350   N357    1.360   .     A
C350   H356    1.079   .     S
C350   C730    1.415   .     S
C351   N357    1.377   .     A
C351   Br377   1.911   .     S
C351   C727    1.415   .     S
C352   Br378   1.911   .     S
C352   N358    1.377   .     A
C352   C1106   1.415   1_554 S
N357   Zn367   2.017   .     S
N358   Zn368   2.017   .     S
O359   Zn367   1.993   .     S
O360   Zn368   1.993   .     S
O361   Zn368   1.995   .     S
O362   Zn367   1.995   .     S
O363   Zn367   1.984   .     S
O364   Zn368   1.984   .     S
O365   Zn368   1.985   .     S
O366   Zn367   1.985   .     S
Br369  C257    1.937   1_655 S
N371   H372    1.046   .     S
N371   H373    1.046   .     S
N374   H376    1.046   .     S
N374   H375    1.046   .     S
C379   O403    1.286   .     A
C379   C390    1.415   .     S
C379   O401    1.283   .     A
C380   O404    1.286   .     A
C380   C389    1.415   .     S
C380   O402    1.283   .     A
C381   O405    1.275   .     A
C381   O407    1.287   .     A
C381   C383    1.400   .     S
C382   O408    1.287   .     A
C382   C384    1.400   .     S
C382   O406    1.275   .     A
C383   C468    1.343   1_455 S
C383   Br495   1.937   1_455 S
C384   C425    1.343   .     S
C384   Br454   1.937   .     S
C385   H395    1.085   .     S
C385   C390    1.394   .     A
C385   C639    1.376   1_545 S
C386   C389    1.394   .     A
C386   H396    1.085   .     S
C386   C514    1.376   .     S
C387   C389    1.403   .     A
C387   N413    1.434   .     S
C387   C511    1.376   .     S
C388   N416    1.434   .     S
C388   C390    1.403   .     A
C388   C638    1.376   1_545 S
C391   N400    1.360   .     A
C391   H397    1.079   .     S
C392   N399    1.360   .     A
C392   H398    1.079   .     S
C392   C772    1.415   .     S
C393   N399    1.377   .     A
C393   Br419   1.911   .     S
C393   C769    1.415   .     S
C394   Br420   1.911   .     S
C394   N400    1.377   .     A
N399   Zn409   2.017   .     S
N400   Zn410   2.017   .     S
O401   Zn409   1.993   .     S
O402   Zn410   1.993   .     S
O403   Zn410   1.995   .     S
O404   Zn409   1.995   .     S
O405   Zn409   1.984   .     S
O406   Zn410   1.984   .     S
O407   Zn410   1.985   .     S
O408   Zn409   1.985   .     S
Br411  C425    1.937   .     S
Br412  C468    1.937   1_455 S
N413   H414    1.046   .     S
N413   H415    1.046   .     S
N416   H418    1.046   .     S
N416   H417    1.046   .     S
C421   O445    1.286   .     A
C421   C432    1.415   .     S
C421   O443    1.283   .     A
C422   O446    1.286   .     A
C422   C431    1.415   .     S
C422   O444    1.283   .     A
C423   O447    1.275   .     A
C423   O449    1.287   .     A
C423   C425    1.400   .     S
C424   O450    1.287   .     A
C424   C426    1.400   .     S
C424   O448    1.275   .     A
C426   C467    1.343   .     S
C426   Br496   1.937   .     S
C427   H437    1.085   .     S
C427   C432    1.394   .     A
C427   C681    1.376   1_545 S
C428   C431    1.394   .     A
C428   H438    1.085   .     S
C428   C556    1.376   .     S
C429   C431    1.403   .     A
C429   N455    1.434   .     S
C429   C553    1.376   .     S
C430   N458    1.434   .     S
C430   C432    1.403   .     A
C430   C680    1.376   1_545 S
C433   N442    1.360   .     A
C433   H439    1.079   .     S
C434   N441    1.360   .     A
C434   H440    1.079   .     S
C434   C814    1.415   .     S
C435   N441    1.377   .     A
C435   Br461   1.911   .     S
C435   C811    1.415   .     S
C436   Br462   1.911   .     S
C436   N442    1.377   .     A
N441   Zn451   2.017   .     S
N442   Zn452   2.017   .     S
O443   Zn451   1.993   .     S
O444   Zn452   1.993   .     S
O445   Zn452   1.995   .     S
O446   Zn451   1.995   .     S
O447   Zn451   1.984   .     S
O448   Zn452   1.984   .     S
O449   Zn452   1.985   .     S
O450   Zn451   1.985   .     S
Br453  C467    1.937   .     S
N455   H456    1.046   .     S
N455   H457    1.046   .     S
N458   H460    1.046   .     S
N458   H459    1.046   .     S
C463   O487    1.286   .     A
C463   C474    1.415   .     S
C463   O485    1.283   .     A
C464   O488    1.286   .     A
C464   C473    1.415   .     S
C464   O486    1.283   .     A
C465   O489    1.275   .     A
C465   O491    1.287   .     A
C465   C467    1.400   .     S
C466   O492    1.287   .     A
C466   C468    1.400   .     S
C466   O490    1.275   .     A
C468   C383    1.343   1_655 S
C468   Br412   1.937   1_655 S
C469   H479    1.085   .     S
C469   C474    1.394   .     A
C469   C723    1.376   1_545 S
C470   C473    1.394   .     A
C470   H480    1.085   .     S
C470   C598    1.376   .     S
C471   C473    1.403   .     A
C471   N497    1.434   .     S
C471   C595    1.376   .     S
C472   N500    1.434   .     S
C472   C474    1.403   .     A
C472   C722    1.376   1_545 S
C475   N484    1.360   .     A
C475   H481    1.079   .     S
C476   N483    1.360   .     A
C476   H482    1.079   .     S
C476   C856    1.415   .     S
C477   N483    1.377   .     A
C477   Br503   1.911   .     S
C477   C853    1.415   .     S
C478   Br504   1.911   .     S
C478   N484    1.377   .     A
N483   Zn493   2.017   .     S
N484   Zn494   2.017   .     S
O485   Zn493   1.993   .     S
O486   Zn494   1.993   .     S
O487   Zn494   1.995   .     S
O488   Zn493   1.995   .     S
O489   Zn493   1.984   .     S
O490   Zn494   1.984   .     S
O491   Zn494   1.985   .     S
O492   Zn493   1.985   .     S
Br495  C383    1.937   1_655 S
N497   H498    1.046   .     S
N497   H499    1.046   .     S
N500   H502    1.046   .     S
N500   H501    1.046   .     S
C505   O529    1.286   .     A
C505   C516    1.415   .     S
C505   O527    1.283   .     A
C506   O530    1.286   .     A
C506   C515    1.415   .     S
C506   O528    1.283   .     A
C507   O531    1.275   .     A
C507   O533    1.287   .     A
C507   C509    1.400   .     S
C508   O534    1.287   .     A
C508   C510    1.400   .     S
C508   O532    1.275   .     A
C509   C594    1.343   1_455 S
C509   Br621   1.937   1_455 S
C510   C551    1.343   .     S
C510   Br580   1.937   .     S
C511   H521    1.085   .     S
C511   C516    1.394   .     A
C512   C515    1.394   .     A
C512   H522    1.085   .     S
C512   C640    1.376   .     S
C513   C515    1.403   .     A
C513   N539    1.434   .     S
C513   C637    1.376   .     S
C514   N542    1.434   .     S
C514   C516    1.403   .     A
C517   N526    1.360   .     A
C517   H523    1.079   .     S
C518   N525    1.360   .     A
C518   H524    1.079   .     S
C518   C898    1.415   .     S
C519   N525    1.377   .     A
C519   Br545   1.911   .     S
C519   C895    1.415   .     S
C520   Br546   1.911   .     S
C520   N526    1.377   .     A
N525   Zn535   2.017   .     S
N526   Zn536   2.017   .     S
O527   Zn535   1.993   .     S
O528   Zn536   1.993   .     S
O529   Zn536   1.995   .     S
O530   Zn535   1.995   .     S
O531   Zn535   1.984   .     S
O532   Zn536   1.984   .     S
O533   Zn536   1.985   .     S
O534   Zn535   1.985   .     S
Br537  C551    1.937   .     S
Br538  C594    1.937   1_455 S
N539   H540    1.046   .     S
N539   H541    1.046   .     S
N542   H544    1.046   .     S
N542   H543    1.046   .     S
C547   O571    1.286   .     A
C547   C558    1.415   .     S
C547   O569    1.283   .     A
C548   O572    1.286   .     A
C548   C557    1.415   .     S
C548   O570    1.283   .     A
C549   O573    1.275   .     A
C549   O575    1.287   .     A
C549   C551    1.400   .     S
C550   O576    1.287   .     A
C550   C552    1.400   .     S
C550   O574    1.275   .     A
C552   C593    1.343   .     S
C552   Br622   1.937   .     S
C553   H563    1.085   .     S
C553   C558    1.394   .     A
C554   C557    1.394   .     A
C554   H564    1.085   .     S
C554   C682    1.376   .     S
C555   C557    1.403   .     A
C555   N581    1.434   .     S
C555   C679    1.376   .     S
C556   N584    1.434   .     S
C556   C558    1.403   .     A
C559   N568    1.360   .     A
C559   H565    1.079   .     S
C560   N567    1.360   .     A
C560   H566    1.079   .     S
C560   C940    1.415   .     S
C561   N567    1.377   .     A
C561   Br587   1.911   .     S
C561   C937    1.415   .     S
C562   Br588   1.911   .     S
C562   N568    1.377   .     A
N567   Zn577   2.017   .     S
N568   Zn578   2.017   .     S
O569   Zn577   1.993   .     S
O570   Zn578   1.993   .     S
O571   Zn578   1.995   .     S
O572   Zn577   1.995   .     S
O573   Zn577   1.984   .     S
O574   Zn578   1.984   .     S
O575   Zn578   1.985   .     S
O576   Zn577   1.985   .     S
Br579  C593    1.937   .     S
N581   H582    1.046   .     S
N581   H583    1.046   .     S
N584   H586    1.046   .     S
N584   H585    1.046   .     S
C589   O613    1.286   .     A
C589   C600    1.415   .     S
C589   O611    1.283   .     A
C590   O614    1.286   .     A
C590   C599    1.415   .     S
C590   O612    1.283   .     A
C591   O615    1.275   .     A
C591   O617    1.287   .     A
C591   C593    1.400   .     S
C592   O618    1.287   .     A
C592   C594    1.400   .     S
C592   O616    1.275   .     A
C594   C509    1.343   1_655 S
C594   Br538   1.937   1_655 S
C595   H605    1.085   .     S
C595   C600    1.394   .     A
C596   C599    1.394   .     A
C596   H606    1.085   .     S
C596   C724    1.376   .     S
C597   C599    1.403   .     A
C597   N623    1.434   .     S
C597   C721    1.376   .     S
C598   N626    1.434   .     S
C598   C600    1.403   .     A
C601   N610    1.360   .     A
C601   H607    1.079   .     S
C602   N609    1.360   .     A
C602   H608    1.079   .     S
C602   C982    1.415   .     S
C603   N609    1.377   .     A
C603   Br629   1.911   .     S
C603   C979    1.415   .     S
C604   Br630   1.911   .     S
C604   N610    1.377   .     A
N609   Zn619   2.017   .     S
N610   Zn620   2.017   .     S
O611   Zn619   1.993   .     S
O612   Zn620   1.993   .     S
O613   Zn620   1.995   .     S
O614   Zn619   1.995   .     S
O615   Zn619   1.984   .     S
O616   Zn620   1.984   .     S
O617   Zn620   1.985   .     S
O618   Zn619   1.985   .     S
Br621  C509    1.937   1_655 S
N623   H624    1.046   .     S
N623   H625    1.046   .     S
N626   H628    1.046   .     S
N626   H627    1.046   .     S
C631   O655    1.286   .     A
C631   C642    1.415   .     S
C631   O653    1.283   .     A
C632   O656    1.286   .     A
C632   C641    1.415   .     S
C632   O654    1.283   .     A
C633   O657    1.275   .     A
C633   O659    1.287   .     A
C633   C635    1.400   .     S
C634   O660    1.287   .     A
C634   C636    1.400   .     S
C634   O658    1.275   .     A
C635   C720    1.343   1_455 S
C635   Br747   1.937   1_455 S
C636   C677    1.343   .     S
C636   Br706   1.937   .     S
C637   H647    1.085   .     S
C637   C642    1.394   .     A
C638   C641    1.394   .     A
C638   H648    1.085   .     S
C638   C388    1.376   1_565 S
C639   C641    1.403   .     A
C639   N665    1.434   .     S
C639   C385    1.376   1_565 S
C640   N668    1.434   .     S
C640   C642    1.403   .     A
C643   N652    1.360   .     A
C643   H649    1.079   .     S
C644   N651    1.360   .     A
C644   H650    1.079   .     S
C644   C1024   1.415   .     S
C645   N651    1.377   .     A
C645   Br671   1.911   .     S
C645   C1021   1.415   .     S
C646   Br672   1.911   .     S
C646   N652    1.377   .     A
N651   Zn661   2.017   .     S
N652   Zn662   2.017   .     S
O653   Zn661   1.993   .     S
O654   Zn662   1.993   .     S
O655   Zn662   1.995   .     S
O656   Zn661   1.995   .     S
O657   Zn661   1.984   .     S
O658   Zn662   1.984   .     S
O659   Zn662   1.985   .     S
O660   Zn661   1.985   .     S
Br663  C677    1.937   .     S
Br664  C720    1.937   1_455 S
N665   H666    1.046   .     S
N665   H667    1.046   .     S
N668   H670    1.046   .     S
N668   H669    1.046   .     S
C673   O697    1.286   .     A
C673   C684    1.415   .     S
C673   O695    1.283   .     A
C674   O698    1.286   .     A
C674   C683    1.415   .     S
C674   O696    1.283   .     A
C675   O699    1.275   .     A
C675   O701    1.287   .     A
C675   C677    1.400   .     S
C676   O702    1.287   .     A
C676   C678    1.400   .     S
C676   O700    1.275   .     A
C678   C719    1.343   .     S
C678   Br748   1.937   .     S
C679   H689    1.085   .     S
C679   C684    1.394   .     A
C680   C683    1.394   .     A
C680   H690    1.085   .     S
C680   C430    1.376   1_565 S
C681   C683    1.403   .     A
C681   N707    1.434   .     S
C681   C427    1.376   1_565 S
C682   N710    1.434   .     S
C682   C684    1.403   .     A
C685   N694    1.360   .     A
C685   H691    1.079   .     S
C686   N693    1.360   .     A
C686   H692    1.079   .     S
C686   C1066   1.415   .     S
C687   N693    1.377   .     A
C687   Br713   1.911   .     S
C687   C1063   1.415   .     S
C688   Br714   1.911   .     S
C688   N694    1.377   .     A
N693   Zn703   2.017   .     S
N694   Zn704   2.017   .     S
O695   Zn703   1.993   .     S
O696   Zn704   1.993   .     S
O697   Zn704   1.995   .     S
O698   Zn703   1.995   .     S
O699   Zn703   1.984   .     S
O700   Zn704   1.984   .     S
O701   Zn704   1.985   .     S
O702   Zn703   1.985   .     S
Br705  C719    1.937   .     S
N707   H708    1.046   .     S
N707   H709    1.046   .     S
N710   H712    1.046   .     S
N710   H711    1.046   .     S
C715   O739    1.286   .     A
C715   C726    1.415   .     S
C715   O737    1.283   .     A
C716   O740    1.286   .     A
C716   C725    1.415   .     S
C716   O738    1.283   .     A
C717   O741    1.275   .     A
C717   O743    1.287   .     A
C717   C719    1.400   .     S
C718   O744    1.287   .     A
C718   C720    1.400   .     S
C718   O742    1.275   .     A
C720   C635    1.343   1_655 S
C720   Br664   1.937   1_655 S
C721   H731    1.085   .     S
C721   C726    1.394   .     A
C722   C725    1.394   .     A
C722   H732    1.085   .     S
C722   C472    1.376   1_565 S
C723   C725    1.403   .     A
C723   N749    1.434   .     S
C723   C469    1.376   1_565 S
C724   N752    1.434   .     S
C724   C726    1.403   .     A
C727   N736    1.360   .     A
C727   H733    1.079   .     S
C728   N735    1.360   .     A
C728   H734    1.079   .     S
C728   C1108   1.415   .     S
C729   N735    1.377   .     A
C729   Br755   1.911   .     S
C729   C1105   1.415   .     S
C730   Br756   1.911   .     S
C730   N736    1.377   .     A
N735   Zn745   2.017   .     S
N736   Zn746   2.017   .     S
O737   Zn745   1.993   .     S
O738   Zn746   1.993   .     S
O739   Zn746   1.995   .     S
O740   Zn745   1.995   .     S
O741   Zn745   1.984   .     S
O742   Zn746   1.984   .     S
O743   Zn746   1.985   .     S
O744   Zn745   1.985   .     S
Br747  C635    1.937   1_655 S
N749   H750    1.046   .     S
N749   H751    1.046   .     S
N752   H754    1.046   .     S
N752   H753    1.046   .     S
C757   O781    1.286   .     A
C757   C768    1.415   .     S
C757   O779    1.283   .     A
C758   O782    1.286   .     A
C758   C767    1.415   .     S
C758   O780    1.283   .     A
C759   O783    1.275   .     A
C759   O785    1.287   .     A
C759   C761    1.400   .     S
C760   O786    1.287   .     A
C760   C762    1.400   .     S
C760   O784    1.275   .     A
C761   C846    1.343   1_455 S
C761   Br873   1.937   1_455 S
C762   C803    1.343   .     S
C762   Br832   1.937   .     S
C763   H773    1.085   .     S
C763   C768    1.394   .     A
C763   C1017   1.376   1_545 S
C764   C767    1.394   .     A
C764   H774    1.085   .     S
C764   C892    1.376   .     S
C765   C767    1.403   .     A
C765   N791    1.434   .     S
C765   C889    1.376   .     S
C766   N794    1.434   .     S
C766   C768    1.403   .     A
C766   C1016   1.376   1_545 S
C769   N778    1.360   .     A
C769   H775    1.079   .     S
C770   N777    1.360   .     A
C770   H776    1.079   .     S
C770   C16     1.415   1_556 S
C771   N777    1.377   .     A
C771   Br797   1.911   .     S
C771   C13     1.415   1_556 S
C772   Br798   1.911   .     S
C772   N778    1.377   .     A
N777   Zn787   2.017   .     S
N778   Zn788   2.017   .     S
O779   Zn787   1.993   .     S
O780   Zn788   1.993   .     S
O781   Zn788   1.995   .     S
O782   Zn787   1.995   .     S
O783   Zn787   1.984   .     S
O784   Zn788   1.984   .     S
O785   Zn788   1.985   .     S
O786   Zn787   1.985   .     S
Br789  C803    1.937   .     S
Br790  C846    1.937   1_455 S
N791   H792    1.046   .     S
N791   H793    1.046   .     S
N794   H796    1.046   .     S
N794   H795    1.046   .     S
C799   O823    1.286   .     A
C799   C810    1.415   .     S
C799   O821    1.283   .     A
C800   O824    1.286   .     A
C800   C809    1.415   .     S
C800   O822    1.283   .     A
C801   O825    1.275   .     A
C801   O827    1.287   .     A
C801   C803    1.400   .     S
C802   O828    1.287   .     A
C802   C804    1.400   .     S
C802   O826    1.275   .     A
C804   C845    1.343   .     S
C804   Br874   1.937   .     S
C805   H815    1.085   .     S
C805   C810    1.394   .     A
C805   C1059   1.376   1_545 S
C806   C809    1.394   .     A
C806   H816    1.085   .     S
C806   C934    1.376   .     S
C807   C809    1.403   .     A
C807   N833    1.434   .     S
C807   C931    1.376   .     S
C808   N836    1.434   .     S
C808   C810    1.403   .     A
C808   C1058   1.376   1_545 S
C811   N820    1.360   .     A
C811   H817    1.079   .     S
C812   N819    1.360   .     A
C812   H818    1.079   .     S
C812   C58     1.415   1_556 S
C813   N819    1.377   .     A
C813   Br839   1.911   .     S
C813   C55     1.415   1_556 S
C814   Br840   1.911   .     S
C814   N820    1.377   .     A
N819   Zn829   2.017   .     S
N820   Zn830   2.017   .     S
O821   Zn829   1.993   .     S
O822   Zn830   1.993   .     S
O823   Zn830   1.995   .     S
O824   Zn829   1.995   .     S
O825   Zn829   1.984   .     S
O826   Zn830   1.984   .     S
O827   Zn830   1.985   .     S
O828   Zn829   1.985   .     S
Br831  C845    1.937   .     S
N833   H834    1.046   .     S
N833   H835    1.046   .     S
N836   H838    1.046   .     S
N836   H837    1.046   .     S
C841   O865    1.286   .     A
C841   C852    1.415   .     S
C841   O863    1.283   .     A
C842   O866    1.286   .     A
C842   C851    1.415   .     S
C842   O864    1.283   .     A
C843   O867    1.275   .     A
C843   O869    1.287   .     A
C843   C845    1.400   .     S
C844   O870    1.287   .     A
C844   C846    1.400   .     S
C844   O868    1.275   .     A
C846   C761    1.343   1_655 S
C846   Br790   1.937   1_655 S
C847   H857    1.085   .     S
C847   C852    1.394   .     A
C847   C1101   1.376   1_545 S
C848   C851    1.394   .     A
C848   H858    1.085   .     S
C848   C976    1.376   .     S
C849   C851    1.403   .     A
C849   N875    1.434   .     S
C849   C973    1.376   .     S
C850   N878    1.434   .     S
C850   C852    1.403   .     A
C850   C1100   1.376   1_545 S
C853   N862    1.360   .     A
C853   H859    1.079   .     S
C854   N861    1.360   .     A
C854   H860    1.079   .     S
C854   C100    1.415   1_556 S
C855   N861    1.377   .     A
C855   Br881   1.911   .     S
C855   C97     1.415   1_556 S
C856   Br882   1.911   .     S
C856   N862    1.377   .     A
N861   Zn871   2.017   .     S
N862   Zn872   2.017   .     S
O863   Zn871   1.993   .     S
O864   Zn872   1.993   .     S
O865   Zn872   1.995   .     S
O866   Zn871   1.995   .     S
O867   Zn871   1.984   .     S
O868   Zn872   1.984   .     S
O869   Zn872   1.985   .     S
O870   Zn871   1.985   .     S
Br873  C761    1.937   1_655 S
N875   H876    1.046   .     S
N875   H877    1.046   .     S
N878   H880    1.046   .     S
N878   H879    1.046   .     S
C883   O907    1.286   .     A
C883   C894    1.415   .     S
C883   O905    1.283   .     A
C884   O908    1.286   .     A
C884   C893    1.415   .     S
C884   O906    1.283   .     A
C885   O909    1.275   .     A
C885   O911    1.287   .     A
C885   C887    1.400   .     S
C886   O912    1.287   .     A
C886   C888    1.400   .     S
C886   O910    1.275   .     A
C887   C972    1.343   1_455 S
C887   Br999   1.937   1_455 S
C888   C929    1.343   .     S
C888   Br958   1.937   .     S
C889   H899    1.085   .     S
C889   C894    1.394   .     A
C890   C893    1.394   .     A
C890   H900    1.085   .     S
C890   C1018   1.376   .     S
C891   C893    1.403   .     A
C891   N917    1.434   .     S
C891   C1015   1.376   .     S
C892   N920    1.434   .     S
C892   C894    1.403   .     A
C895   N904    1.360   .     A
C895   H901    1.079   .     S
C896   N903    1.360   .     A
C896   H902    1.079   .     S
C896   C142    1.415   1_556 S
C897   N903    1.377   .     A
C897   Br923   1.911   .     S
C897   C139    1.415   1_556 S
C898   Br924   1.911   .     S
C898   N904    1.377   .     A
N903   Zn913   2.017   .     S
N904   Zn914   2.017   .     S
O905   Zn913   1.993   .     S
O906   Zn914   1.993   .     S
O907   Zn914   1.995   .     S
O908   Zn913   1.995   .     S
O909   Zn913   1.984   .     S
O910   Zn914   1.984   .     S
O911   Zn914   1.985   .     S
O912   Zn913   1.985   .     S
Br915  C929    1.937   .     S
Br916  C972    1.937   1_455 S
N917   H918    1.046   .     S
N917   H919    1.046   .     S
N920   H922    1.046   .     S
N920   H921    1.046   .     S
C925   O949    1.286   .     A
C925   C936    1.415   .     S
C925   O947    1.283   .     A
C926   O950    1.286   .     A
C926   C935    1.415   .     S
C926   O948    1.283   .     A
C927   O951    1.275   .     A
C927   O953    1.287   .     A
C927   C929    1.400   .     S
C928   O954    1.287   .     A
C928   C930    1.400   .     S
C928   O952    1.275   .     A
C930   C971    1.343   .     S
C930   Br1000  1.937   .     S
C931   H941    1.085   .     S
C931   C936    1.394   .     A
C932   C935    1.394   .     A
C932   H942    1.085   .     S
C932   C1060   1.376   .     S
C933   C935    1.403   .     A
C933   N959    1.434   .     S
C933   C1057   1.376   .     S
C934   N962    1.434   .     S
C934   C936    1.403   .     A
C937   N946    1.360   .     A
C937   H943    1.079   .     S
C938   N945    1.360   .     A
C938   H944    1.079   .     S
C938   C184    1.415   1_556 S
C939   N945    1.377   .     A
C939   Br965   1.911   .     S
C939   C181    1.415   1_556 S
C940   Br966   1.911   .     S
C940   N946    1.377   .     A
N945   Zn955   2.017   .     S
N946   Zn956   2.017   .     S
O947   Zn955   1.993   .     S
O948   Zn956   1.993   .     S
O949   Zn956   1.995   .     S
O950   Zn955   1.995   .     S
O951   Zn955   1.984   .     S
O952   Zn956   1.984   .     S
O953   Zn956   1.985   .     S
O954   Zn955   1.985   .     S
Br957  C971    1.937   .     S
N959   H960    1.046   .     S
N959   H961    1.046   .     S
N962   H964    1.046   .     S
N962   H963    1.046   .     S
C967   O991    1.286   .     A
C967   C978    1.415   .     S
C967   O989    1.283   .     A
C968   O992    1.286   .     A
C968   C977    1.415   .     S
C968   O990    1.283   .     A
C969   O993    1.275   .     A
C969   O995    1.287   .     A
C969   C971    1.400   .     S
C970   O996    1.287   .     A
C970   C972    1.400   .     S
C970   O994    1.275   .     A
C972   C887    1.343   1_655 S
C972   Br916   1.937   1_655 S
C973   H983    1.085   .     S
C973   C978    1.394   .     A
C974   C977    1.394   .     A
C974   H984    1.085   .     S
C974   C1102   1.376   .     S
C975   C977    1.403   .     A
C975   N1001   1.434   .     S
C975   C1099   1.376   .     S
C976   N1004   1.434   .     S
C976   C978    1.403   .     A
C979   N988    1.360   .     A
C979   H985    1.079   .     S
C980   N987    1.360   .     A
C980   H986    1.079   .     S
C980   C226    1.415   1_556 S
C981   N987    1.377   .     A
C981   Br1007  1.911   .     S
C981   C223    1.415   1_556 S
C982   Br1008  1.911   .     S
C982   N988    1.377   .     A
N987   Zn997   2.017   .     S
N988   Zn998   2.017   .     S
O989   Zn997   1.993   .     S
O990   Zn998   1.993   .     S
O991   Zn998   1.995   .     S
O992   Zn997   1.995   .     S
O993   Zn997   1.984   .     S
O994   Zn998   1.984   .     S
O995   Zn998   1.985   .     S
O996   Zn997   1.985   .     S
Br999  C887    1.937   1_655 S
N1001  H1002   1.046   .     S
N1001  H1003   1.046   .     S
N1004  H1006   1.046   .     S
N1004  H1005   1.046   .     S
C1009  O1033   1.286   .     A
C1009  C1020   1.415   .     S
C1009  O1031   1.283   .     A
C1010  O1034   1.286   .     A
C1010  C1019   1.415   .     S
C1010  O1032   1.283   .     A
C1011  O1035   1.275   .     A
C1011  O1037   1.287   .     A
C1011  C1013   1.400   .     S
C1012  O1038   1.287   .     A
C1012  C1014   1.400   .     S
C1012  O1036   1.275   .     A
C1013  C1098   1.343   1_455 S
C1013  Br1125  1.937   1_455 S
C1014  C1055   1.343   .     S
C1014  Br1084  1.937   .     S
C1015  H1025   1.085   .     S
C1015  C1020   1.394   .     A
C1016  C1019   1.394   .     A
C1016  H1026   1.085   .     S
C1016  C766    1.376   1_565 S
C1017  C1019   1.403   .     A
C1017  N1043   1.434   .     S
C1017  C763    1.376   1_565 S
C1018  N1046   1.434   .     S
C1018  C1020   1.403   .     A
C1021  N1030   1.360   .     A
C1021  H1027   1.079   .     S
C1022  N1029   1.360   .     A
C1022  H1028   1.079   .     S
C1022  C268    1.415   1_556 S
C1023  N1029   1.377   .     A
C1023  Br1049  1.911   .     S
C1023  C265    1.415   1_556 S
C1024  Br1050  1.911   .     S
C1024  N1030   1.377   .     A
N1029  Zn1039  2.017   .     S
N1030  Zn1040  2.017   .     S
O1031  Zn1039  1.993   .     S
O1032  Zn1040  1.993   .     S
O1033  Zn1040  1.995   .     S
O1034  Zn1039  1.995   .     S
O1035  Zn1039  1.984   .     S
O1036  Zn1040  1.984   .     S
O1037  Zn1040  1.985   .     S
O1038  Zn1039  1.985   .     S
Br1041 C1055   1.937   .     S
Br1042 C1098   1.937   1_455 S
N1043  H1044   1.046   .     S
N1043  H1045   1.046   .     S
N1046  H1048   1.046   .     S
N1046  H1047   1.046   .     S
C1051  O1075   1.286   .     A
C1051  C1062   1.415   .     S
C1051  O1073   1.283   .     A
C1052  O1076   1.286   .     A
C1052  C1061   1.415   .     S
C1052  O1074   1.283   .     A
C1053  O1077   1.275   .     A
C1053  O1079   1.287   .     A
C1053  C1055   1.400   .     S
C1054  O1080   1.287   .     A
C1054  C1056   1.400   .     S
C1054  O1078   1.275   .     A
C1056  C1097   1.343   .     S
C1056  Br1126  1.937   .     S
C1057  H1067   1.085   .     S
C1057  C1062   1.394   .     A
C1058  C1061   1.394   .     A
C1058  H1068   1.085   .     S
C1058  C808    1.376   1_565 S
C1059  C1061   1.403   .     A
C1059  N1085   1.434   .     S
C1059  C805    1.376   1_565 S
C1060  N1088   1.434   .     S
C1060  C1062   1.403   .     A
C1063  N1072   1.360   .     A
C1063  H1069   1.079   .     S
C1064  N1071   1.360   .     A
C1064  H1070   1.079   .     S
C1064  C310    1.415   1_556 S
C1065  N1071   1.377   .     A
C1065  Br1091  1.911   .     S
C1065  C307    1.415   1_556 S
C1066  Br1092  1.911   .     S
C1066  N1072   1.377   .     A
N1071  Zn1081  2.017   .     S
N1072  Zn1082  2.017   .     S
O1073  Zn1081  1.993   .     S
O1074  Zn1082  1.993   .     S
O1075  Zn1082  1.995   .     S
O1076  Zn1081  1.995   .     S
O1077  Zn1081  1.984   .     S
O1078  Zn1082  1.984   .     S
O1079  Zn1082  1.985   .     S
O1080  Zn1081  1.985   .     S
Br1083 C1097   1.937   .     S
N1085  H1086   1.046   .     S
N1085  H1087   1.046   .     S
N1088  H1090   1.046   .     S
N1088  H1089   1.046   .     S
C1093  O1117   1.286   .     A
C1093  C1104   1.415   .     S
C1093  O1115   1.283   .     A
C1094  O1118   1.286   .     A
C1094  C1103   1.415   .     S
C1094  O1116   1.283   .     A
C1095  O1119   1.275   .     A
C1095  O1121   1.287   .     A
C1095  C1097   1.400   .     S
C1096  O1122   1.287   .     A
C1096  C1098   1.400   .     S
C1096  O1120   1.275   .     A
C1098  C1013   1.343   1_655 S
C1098  Br1042  1.937   1_655 S
C1099  H1109   1.085   .     S
C1099  C1104   1.394   .     A
C1100  C1103   1.394   .     A
C1100  H1110   1.085   .     S
C1100  C850    1.376   1_565 S
C1101  C1103   1.403   .     A
C1101  N1127   1.434   .     S
C1101  C847    1.376   1_565 S
C1102  N1130   1.434   .     S
C1102  C1104   1.403   .     A
C1105  N1114   1.360   .     A
C1105  H1111   1.079   .     S
C1106  N1113   1.360   .     A
C1106  H1112   1.079   .     S
C1106  C352    1.415   1_556 S
C1107  N1113   1.377   .     A
C1107  Br1133  1.911   .     S
C1107  C349    1.415   1_556 S
C1108  Br1134  1.911   .     S
C1108  N1114   1.377   .     A
N1113  Zn1123  2.017   .     S
N1114  Zn1124  2.017   .     S
O1115  Zn1123  1.993   .     S
O1116  Zn1124  1.993   .     S
O1117  Zn1124  1.995   .     S
O1118  Zn1123  1.995   .     S
O1119  Zn1123  1.984   .     S
O1120  Zn1124  1.984   .     S
O1121  Zn1124  1.985   .     S
O1122  Zn1123  1.985   .     S
Br1125 C1013   1.937   1_655 S
N1127  H1128   1.046   .     S
N1127  H1129   1.046   .     S
N1130  H1132   1.046   .     S
N1130  H1131   1.046   .     S
