data_str_m3_o1_o17_pcu_sym.103
_audit_creation_date              2020-01-03
_audit_creation_method            'Materials Studio'
_symmetry_space_group_name_H-M    'P1'
_symmetry_Int_Tables_number       1
_symmetry_cell_setting            triclinic
loop_
_symmetry_equiv_pos_as_xyz
  x,y,z
_cell_length_a                    32.3301
_cell_length_b                    29.7952
_cell_length_c                    30.0107
_cell_angle_alpha                 89.9999
_cell_angle_beta                  93.1668
_cell_angle_gamma                 90.0000
loop_
_atom_site_label
_atom_site_type_symbol
_atom_site_fract_x
_atom_site_fract_y
_atom_site_fract_z
_atom_site_U_iso_or_equiv
_atom_site_adp_type
_atom_site_occupancy
C1     C     0.08699   0.16667   0.25408   0.00000  Uiso   1.00
C2     C     0.24634   0.16667   0.24592   0.00000  Uiso   1.00
C3     C     0.16706   0.08471   0.02317   0.00000  Uiso   1.00
C4     C     0.16627   0.24863   0.47683   0.00000  Uiso   1.00
C5     C     0.02088   0.12557   0.25629   0.00000  Uiso   1.00
C6     C     0.31246   0.20777   0.24371   0.00000  Uiso   1.00
C7     C     0.31246   0.12557   0.24371   0.00000  Uiso   1.00
C8     C     0.02088   0.20777   0.25629   0.00000  Uiso   1.00
C9     C     0.29081   0.16667   0.24191   0.00000  Uiso   1.00
C10    C     0.04252   0.16667   0.25809   0.00000  Uiso   1.00
C11    C     0.19271   0.02393   0.27918   0.00000  Uiso   1.00
C12    C     0.14062   0.30941   0.22082   0.00000  Uiso   1.00
C13    C     0.14062   0.02393   0.22082   0.00000  Uiso   1.00
C14    C     0.19271   0.30941   0.27918   0.00000  Uiso   1.00
C15    C     0.16699   0.16667   0.16339   0.00000  Uiso   1.00
C16    C     0.16634   0.16667   0.33661   0.00000  Uiso   1.00
C17    C     0.16539   0.20754   0.40751   0.00000  Uiso   1.00
C18    C     0.16794   0.12579   0.09249   0.00000  Uiso   1.00
C19    C     0.16563   0.16667   0.38458   0.00000  Uiso   1.00
C20    C     0.16770   0.16667   0.11542   0.00000  Uiso   1.00
C21    C     0.16539   0.12579   0.40751   0.00000  Uiso   1.00
C22    C     0.16794   0.20754   0.09249   0.00000  Uiso   1.00
C23    C     0.16591   0.12547   0.45361   0.00000  Uiso   1.00
C24    C     0.16742   0.20786   0.04639   0.00000  Uiso   1.00
C25    C     0.16629   0.16667   0.47681   0.00000  Uiso   1.00
C26    C     0.16704   0.16667   0.02319   0.00000  Uiso   1.00
C27    C     0.16591   0.20786   0.45361   0.00000  Uiso   1.00
C28    C     0.16742   0.12547   0.04639   0.00000  Uiso   1.00
C29    C     0.16627   0.08471   0.47683   0.00000  Uiso   1.00
C30    C     0.16706   0.24863   0.02317   0.00000  Uiso   1.00
H31    H     0.16498   0.23916   0.38962   0.00000  Uiso   1.00
H32    H     0.16836   0.09418   0.11037   0.00000  Uiso   1.00
H33    H     0.16498   0.09418   0.38963   0.00000  Uiso   1.00
H34    H     0.16836   0.23916   0.11037   0.00000  Uiso   1.00
H35    H     0.16602   0.05295   0.45919   0.00000  Uiso   1.00
H36    H     0.16732   0.28038   0.04081   0.00000  Uiso   1.00
H37    H     0.16732   0.05295   0.04081   0.00000  Uiso   1.00
H38    H     0.16602   0.28038   0.45919   0.00000  Uiso   1.00
N39    N     0.16667   0.28573   0.25000   0.00000  Uiso   1.00
N40    N     0.16667   0.04760   0.25000   0.00000  Uiso   1.00
O41    O     0.10559   0.20487   0.25000   0.00000  Uiso   1.00
O42    O     0.22774   0.12846   0.25000   0.00000  Uiso   1.00
O43    O     0.22774   0.20487   0.25000   0.00000  Uiso   1.00
O44    O     0.10559   0.12846   0.25000   0.00000  Uiso   1.00
O45    O     0.16666   0.20489   0.18392   0.00000  Uiso   1.00
O46    O     0.16667   0.12844   0.31608   0.00000  Uiso   1.00
O47    O     0.16667   0.20489   0.31608   0.00000  Uiso   1.00
O48    O     0.16666   0.12844   0.18392   0.00000  Uiso   1.00
Zn49   Zn    0.16667   0.21771   0.25000   0.00000  Uiso   1.00
Zn50   Zn    0.16667   0.11563   0.25000   0.00000  Uiso   1.00
C51    C     0.04001   0.08361   0.27111   0.00000  Uiso   1.00
N52    N     0.05516   0.05031   0.28328   0.00000  Uiso   1.00
C53    C     0.29332   0.24972   0.22889   0.00000  Uiso   1.00
N54    N     0.27818   0.28303   0.21672   0.00000  Uiso   1.00
C55    C     0.29332   0.08361   0.22889   0.00000  Uiso   1.00
N56    N     0.27818   0.05031   0.21672   0.00000  Uiso   1.00
C57    C     0.04001   0.24972   0.27111   0.00000  Uiso   1.00
N58    N     0.05516   0.28303   0.28328   0.00000  Uiso   1.00
I59    I     0.23417   0.05846   0.32545   0.00000  Uiso   1.00
I60    I     0.09917   0.27487   0.17455   0.00000  Uiso   1.00
I61    I     0.09917   0.05846   0.17455   0.00000  Uiso   1.00
I62    I     0.23417   0.27487   0.32545   0.00000  Uiso   1.00
C63    C     0.42033   0.16667   0.25408   0.00000  Uiso   1.00
C64    C     0.57967   0.16667   0.24592   0.00000  Uiso   1.00
C65    C     0.50040   0.08471   0.02317   0.00000  Uiso   1.00
C66    C     0.49960   0.24863   0.47683   0.00000  Uiso   1.00
C67    C     0.35421   0.12557   0.25629   0.00000  Uiso   1.00
C68    C     0.64579   0.20777   0.24371   0.00000  Uiso   1.00
C69    C     0.64579   0.12557   0.24371   0.00000  Uiso   1.00
C70    C     0.35421   0.20777   0.25629   0.00000  Uiso   1.00
C71    C     0.62415   0.16667   0.24191   0.00000  Uiso   1.00
C72    C     0.37585   0.16667   0.25809   0.00000  Uiso   1.00
C73    C     0.52605   0.02393   0.27918   0.00000  Uiso   1.00
C74    C     0.47396   0.30941   0.22082   0.00000  Uiso   1.00
C75    C     0.47396   0.02393   0.22082   0.00000  Uiso   1.00
C76    C     0.52605   0.30941   0.27918   0.00000  Uiso   1.00
C77    C     0.50033   0.16667   0.16339   0.00000  Uiso   1.00
C78    C     0.49967   0.16667   0.33661   0.00000  Uiso   1.00
C79    C     0.49873   0.20754   0.40751   0.00000  Uiso   1.00
C80    C     0.50127   0.12579   0.09249   0.00000  Uiso   1.00
C81    C     0.49897   0.16667   0.38458   0.00000  Uiso   1.00
C82    C     0.50103   0.16667   0.11542   0.00000  Uiso   1.00
C83    C     0.49873   0.12579   0.40751   0.00000  Uiso   1.00
C84    C     0.50127   0.20754   0.09249   0.00000  Uiso   1.00
C85    C     0.49924   0.12547   0.45361   0.00000  Uiso   1.00
C86    C     0.50076   0.20786   0.04639   0.00000  Uiso   1.00
C87    C     0.49962   0.16667   0.47681   0.00000  Uiso   1.00
C88    C     0.50038   0.16667   0.02319   0.00000  Uiso   1.00
C89    C     0.49924   0.20786   0.45361   0.00000  Uiso   1.00
C90    C     0.50076   0.12547   0.04639   0.00000  Uiso   1.00
C91    C     0.49960   0.08471   0.47683   0.00000  Uiso   1.00
C92    C     0.50040   0.24863   0.02317   0.00000  Uiso   1.00
H93    H     0.49831   0.23916   0.38962   0.00000  Uiso   1.00
H94    H     0.50169   0.09418   0.11037   0.00000  Uiso   1.00
H95    H     0.49831   0.09418   0.38963   0.00000  Uiso   1.00
H96    H     0.50169   0.23916   0.11037   0.00000  Uiso   1.00
H97    H     0.49935   0.05295   0.45919   0.00000  Uiso   1.00
H98    H     0.50065   0.28038   0.04081   0.00000  Uiso   1.00
H99    H     0.50065   0.05295   0.04081   0.00000  Uiso   1.00
H100   H     0.49935   0.28038   0.45919   0.00000  Uiso   1.00
N101   N     0.50000   0.28573   0.25000   0.00000  Uiso   1.00
N102   N     0.50000   0.04760   0.25000   0.00000  Uiso   1.00
O103   O     0.43892   0.20487   0.25000   0.00000  Uiso   1.00
O104   O     0.56108   0.12846   0.25000   0.00000  Uiso   1.00
O105   O     0.56108   0.20487   0.25000   0.00000  Uiso   1.00
O106   O     0.43892   0.12846   0.25000   0.00000  Uiso   1.00
O107   O     0.49999   0.20489   0.18392   0.00000  Uiso   1.00
O108   O     0.50001   0.12844   0.31608   0.00000  Uiso   1.00
O109   O     0.50001   0.20489   0.31608   0.00000  Uiso   1.00
O110   O     0.49999   0.12844   0.18392   0.00000  Uiso   1.00
Zn111  Zn    0.50000   0.21771   0.25000   0.00000  Uiso   1.00
Zn112  Zn    0.50000   0.11563   0.25000   0.00000  Uiso   1.00
C113   C     0.37334   0.08361   0.27111   0.00000  Uiso   1.00
N114   N     0.38849   0.05031   0.28328   0.00000  Uiso   1.00
C115   C     0.62666   0.24972   0.22889   0.00000  Uiso   1.00
N116   N     0.61151   0.28303   0.21672   0.00000  Uiso   1.00
C117   C     0.62666   0.08361   0.22889   0.00000  Uiso   1.00
N118   N     0.61151   0.05031   0.21672   0.00000  Uiso   1.00
C119   C     0.37334   0.24972   0.27111   0.00000  Uiso   1.00
N120   N     0.38849   0.28303   0.28328   0.00000  Uiso   1.00
I121   I     0.56750   0.05846   0.32545   0.00000  Uiso   1.00
I122   I     0.43250   0.27487   0.17455   0.00000  Uiso   1.00
I123   I     0.43250   0.05846   0.17455   0.00000  Uiso   1.00
I124   I     0.56750   0.27487   0.32545   0.00000  Uiso   1.00
C125   C     0.75366   0.16667   0.25408   0.00000  Uiso   1.00
C126   C     0.91301   0.16667   0.24592   0.00000  Uiso   1.00
C127   C     0.83373   0.08471   0.02317   0.00000  Uiso   1.00
C128   C     0.83294   0.24863   0.47683   0.00000  Uiso   1.00
C129   C     0.68754   0.12557   0.25629   0.00000  Uiso   1.00
C130   C     0.97912   0.20777   0.24371   0.00000  Uiso   1.00
C131   C     0.97912   0.12557   0.24371   0.00000  Uiso   1.00
C132   C     0.68754   0.20777   0.25629   0.00000  Uiso   1.00
C133   C     0.95748   0.16667   0.24191   0.00000  Uiso   1.00
C134   C     0.70919   0.16667   0.25809   0.00000  Uiso   1.00
C135   C     0.85938   0.02393   0.27918   0.00000  Uiso   1.00
C136   C     0.80729   0.30941   0.22082   0.00000  Uiso   1.00
C137   C     0.80729   0.02393   0.22082   0.00000  Uiso   1.00
C138   C     0.85938   0.30941   0.27918   0.00000  Uiso   1.00
C139   C     0.83366   0.16667   0.16339   0.00000  Uiso   1.00
C140   C     0.83301   0.16667   0.33661   0.00000  Uiso   1.00
C141   C     0.83206   0.20754   0.40751   0.00000  Uiso   1.00
C142   C     0.83461   0.12579   0.09249   0.00000  Uiso   1.00
C143   C     0.83230   0.16667   0.38458   0.00000  Uiso   1.00
C144   C     0.83437   0.16667   0.11542   0.00000  Uiso   1.00
C145   C     0.83206   0.12579   0.40751   0.00000  Uiso   1.00
C146   C     0.83461   0.20754   0.09249   0.00000  Uiso   1.00
C147   C     0.83258   0.12547   0.45361   0.00000  Uiso   1.00
C148   C     0.83409   0.20786   0.04639   0.00000  Uiso   1.00
C149   C     0.83296   0.16667   0.47681   0.00000  Uiso   1.00
C150   C     0.83371   0.16667   0.02319   0.00000  Uiso   1.00
C151   C     0.83258   0.20786   0.45361   0.00000  Uiso   1.00
C152   C     0.83409   0.12547   0.04639   0.00000  Uiso   1.00
C153   C     0.83294   0.08471   0.47683   0.00000  Uiso   1.00
C154   C     0.83373   0.24863   0.02317   0.00000  Uiso   1.00
H155   H     0.83164   0.23916   0.38962   0.00000  Uiso   1.00
H156   H     0.83502   0.09418   0.11037   0.00000  Uiso   1.00
H157   H     0.83164   0.09418   0.38963   0.00000  Uiso   1.00
H158   H     0.83502   0.23916   0.11037   0.00000  Uiso   1.00
H159   H     0.83268   0.05295   0.45919   0.00000  Uiso   1.00
H160   H     0.83398   0.28038   0.04081   0.00000  Uiso   1.00
H161   H     0.83398   0.05295   0.04081   0.00000  Uiso   1.00
H162   H     0.83268   0.28038   0.45919   0.00000  Uiso   1.00
N163   N     0.83333   0.28573   0.25000   0.00000  Uiso   1.00
N164   N     0.83333   0.04760   0.25000   0.00000  Uiso   1.00
O165   O     0.77226   0.20487   0.25000   0.00000  Uiso   1.00
O166   O     0.89441   0.12846   0.25000   0.00000  Uiso   1.00
O167   O     0.89441   0.20487   0.25000   0.00000  Uiso   1.00
O168   O     0.77226   0.12846   0.25000   0.00000  Uiso   1.00
O169   O     0.83333   0.20489   0.18392   0.00000  Uiso   1.00
O170   O     0.83334   0.12844   0.31608   0.00000  Uiso   1.00
O171   O     0.83334   0.20489   0.31608   0.00000  Uiso   1.00
O172   O     0.83333   0.12844   0.18392   0.00000  Uiso   1.00
Zn173  Zn    0.83333   0.21771   0.25000   0.00000  Uiso   1.00
Zn174  Zn    0.83333   0.11563   0.25000   0.00000  Uiso   1.00
C175   C     0.70668   0.08361   0.27111   0.00000  Uiso   1.00
N176   N     0.72182   0.05031   0.28328   0.00000  Uiso   1.00
C177   C     0.95999   0.24972   0.22889   0.00000  Uiso   1.00
N178   N     0.94484   0.28303   0.21672   0.00000  Uiso   1.00
C179   C     0.95999   0.08361   0.22889   0.00000  Uiso   1.00
N180   N     0.94484   0.05031   0.21672   0.00000  Uiso   1.00
C181   C     0.70668   0.24972   0.27111   0.00000  Uiso   1.00
N182   N     0.72182   0.28303   0.28328   0.00000  Uiso   1.00
I183   I     0.90083   0.05846   0.32545   0.00000  Uiso   1.00
I184   I     0.76583   0.27487   0.17455   0.00000  Uiso   1.00
I185   I     0.76583   0.05846   0.17455   0.00000  Uiso   1.00
I186   I     0.90083   0.27487   0.32545   0.00000  Uiso   1.00
C187   C     0.08699   0.50000   0.25408   0.00000  Uiso   1.00
C188   C     0.24634   0.50000   0.24592   0.00000  Uiso   1.00
C189   C     0.16706   0.41804   0.02317   0.00000  Uiso   1.00
C190   C     0.16627   0.58196   0.47683   0.00000  Uiso   1.00
C191   C     0.02088   0.45890   0.25629   0.00000  Uiso   1.00
C192   C     0.31246   0.54110   0.24371   0.00000  Uiso   1.00
C193   C     0.31246   0.45890   0.24371   0.00000  Uiso   1.00
C194   C     0.02088   0.54110   0.25629   0.00000  Uiso   1.00
C195   C     0.29081   0.50000   0.24191   0.00000  Uiso   1.00
C196   C     0.04252   0.50000   0.25809   0.00000  Uiso   1.00
C197   C     0.19271   0.35726   0.27918   0.00000  Uiso   1.00
C198   C     0.14062   0.64274   0.22082   0.00000  Uiso   1.00
C199   C     0.14062   0.35726   0.22082   0.00000  Uiso   1.00
C200   C     0.19271   0.64274   0.27918   0.00000  Uiso   1.00
C201   C     0.16699   0.50000   0.16339   0.00000  Uiso   1.00
C202   C     0.16634   0.50000   0.33661   0.00000  Uiso   1.00
C203   C     0.16539   0.54087   0.40751   0.00000  Uiso   1.00
C204   C     0.16794   0.45913   0.09249   0.00000  Uiso   1.00
C205   C     0.16563   0.50000   0.38458   0.00000  Uiso   1.00
C206   C     0.16770   0.50000   0.11542   0.00000  Uiso   1.00
C207   C     0.16539   0.45913   0.40751   0.00000  Uiso   1.00
C208   C     0.16794   0.54087   0.09249   0.00000  Uiso   1.00
C209   C     0.16591   0.45881   0.45361   0.00000  Uiso   1.00
C210   C     0.16742   0.54119   0.04639   0.00000  Uiso   1.00
C211   C     0.16629   0.50000   0.47681   0.00000  Uiso   1.00
C212   C     0.16704   0.50000   0.02319   0.00000  Uiso   1.00
C213   C     0.16591   0.54119   0.45361   0.00000  Uiso   1.00
C214   C     0.16742   0.45881   0.04639   0.00000  Uiso   1.00
C215   C     0.16627   0.41804   0.47683   0.00000  Uiso   1.00
C216   C     0.16706   0.58196   0.02317   0.00000  Uiso   1.00
H217   H     0.16498   0.57249   0.38962   0.00000  Uiso   1.00
H218   H     0.16836   0.42751   0.11037   0.00000  Uiso   1.00
H219   H     0.16498   0.42751   0.38963   0.00000  Uiso   1.00
H220   H     0.16836   0.57249   0.11037   0.00000  Uiso   1.00
H221   H     0.16602   0.38628   0.45919   0.00000  Uiso   1.00
H222   H     0.16732   0.61372   0.04081   0.00000  Uiso   1.00
H223   H     0.16732   0.38628   0.04081   0.00000  Uiso   1.00
H224   H     0.16602   0.61372   0.45919   0.00000  Uiso   1.00
N225   N     0.16667   0.61907   0.25000   0.00000  Uiso   1.00
N226   N     0.16667   0.38093   0.25000   0.00000  Uiso   1.00
O227   O     0.10559   0.53821   0.25000   0.00000  Uiso   1.00
O228   O     0.22774   0.46179   0.25000   0.00000  Uiso   1.00
O229   O     0.22774   0.53821   0.25000   0.00000  Uiso   1.00
O230   O     0.10559   0.46179   0.25000   0.00000  Uiso   1.00
O231   O     0.16666   0.53823   0.18392   0.00000  Uiso   1.00
O232   O     0.16667   0.46177   0.31608   0.00000  Uiso   1.00
O233   O     0.16667   0.53823   0.31608   0.00000  Uiso   1.00
O234   O     0.16666   0.46177   0.18392   0.00000  Uiso   1.00
Zn235  Zn    0.16667   0.55104   0.25000   0.00000  Uiso   1.00
Zn236  Zn    0.16667   0.44896   0.25000   0.00000  Uiso   1.00
C237   C     0.04001   0.41695   0.27111   0.00000  Uiso   1.00
N238   N     0.05516   0.38364   0.28328   0.00000  Uiso   1.00
C239   C     0.29332   0.58305   0.22889   0.00000  Uiso   1.00
N240   N     0.27818   0.61636   0.21672   0.00000  Uiso   1.00
C241   C     0.29332   0.41695   0.22889   0.00000  Uiso   1.00
N242   N     0.27818   0.38364   0.21672   0.00000  Uiso   1.00
C243   C     0.04001   0.58305   0.27111   0.00000  Uiso   1.00
N244   N     0.05516   0.61636   0.28328   0.00000  Uiso   1.00
I245   I     0.23417   0.39180   0.32545   0.00000  Uiso   1.00
I246   I     0.09917   0.60820   0.17455   0.00000  Uiso   1.00
I247   I     0.09917   0.39180   0.17455   0.00000  Uiso   1.00
I248   I     0.23417   0.60820   0.32545   0.00000  Uiso   1.00
C249   C     0.42033   0.50000   0.25408   0.00000  Uiso   1.00
C250   C     0.57967   0.50000   0.24592   0.00000  Uiso   1.00
C251   C     0.50040   0.41804   0.02317   0.00000  Uiso   1.00
C252   C     0.49960   0.58196   0.47683   0.00000  Uiso   1.00
C253   C     0.35421   0.45890   0.25629   0.00000  Uiso   1.00
C254   C     0.64579   0.54110   0.24371   0.00000  Uiso   1.00
C255   C     0.64579   0.45890   0.24371   0.00000  Uiso   1.00
C256   C     0.35421   0.54110   0.25629   0.00000  Uiso   1.00
C257   C     0.62415   0.50000   0.24191   0.00000  Uiso   1.00
C258   C     0.37585   0.50000   0.25809   0.00000  Uiso   1.00
C259   C     0.52605   0.35726   0.27918   0.00000  Uiso   1.00
C260   C     0.47396   0.64274   0.22082   0.00000  Uiso   1.00
C261   C     0.47396   0.35726   0.22082   0.00000  Uiso   1.00
C262   C     0.52605   0.64274   0.27918   0.00000  Uiso   1.00
C263   C     0.50033   0.50000   0.16339   0.00000  Uiso   1.00
C264   C     0.49967   0.50000   0.33661   0.00000  Uiso   1.00
C265   C     0.49873   0.54087   0.40751   0.00000  Uiso   1.00
C266   C     0.50127   0.45913   0.09249   0.00000  Uiso   1.00
C267   C     0.49897   0.50000   0.38458   0.00000  Uiso   1.00
C268   C     0.50103   0.50000   0.11542   0.00000  Uiso   1.00
C269   C     0.49873   0.45913   0.40751   0.00000  Uiso   1.00
C270   C     0.50127   0.54087   0.09249   0.00000  Uiso   1.00
C271   C     0.49924   0.45881   0.45361   0.00000  Uiso   1.00
C272   C     0.50076   0.54119   0.04639   0.00000  Uiso   1.00
C273   C     0.49962   0.50000   0.47681   0.00000  Uiso   1.00
C274   C     0.50038   0.50000   0.02319   0.00000  Uiso   1.00
C275   C     0.49924   0.54119   0.45361   0.00000  Uiso   1.00
C276   C     0.50076   0.45881   0.04639   0.00000  Uiso   1.00
C277   C     0.49960   0.41804   0.47683   0.00000  Uiso   1.00
C278   C     0.50040   0.58196   0.02317   0.00000  Uiso   1.00
H279   H     0.49831   0.57249   0.38962   0.00000  Uiso   1.00
H280   H     0.50169   0.42751   0.11037   0.00000  Uiso   1.00
H281   H     0.49831   0.42751   0.38963   0.00000  Uiso   1.00
H282   H     0.50169   0.57249   0.11037   0.00000  Uiso   1.00
H283   H     0.49935   0.38628   0.45919   0.00000  Uiso   1.00
H284   H     0.50065   0.61372   0.04081   0.00000  Uiso   1.00
H285   H     0.50065   0.38628   0.04081   0.00000  Uiso   1.00
H286   H     0.49935   0.61372   0.45919   0.00000  Uiso   1.00
N287   N     0.50000   0.61907   0.25000   0.00000  Uiso   1.00
N288   N     0.50000   0.38093   0.25000   0.00000  Uiso   1.00
O289   O     0.43892   0.53821   0.25000   0.00000  Uiso   1.00
O290   O     0.56108   0.46179   0.25000   0.00000  Uiso   1.00
O291   O     0.56108   0.53821   0.25000   0.00000  Uiso   1.00
O292   O     0.43892   0.46179   0.25000   0.00000  Uiso   1.00
O293   O     0.49999   0.53823   0.18392   0.00000  Uiso   1.00
O294   O     0.50001   0.46177   0.31608   0.00000  Uiso   1.00
O295   O     0.50001   0.53823   0.31608   0.00000  Uiso   1.00
O296   O     0.49999   0.46177   0.18392   0.00000  Uiso   1.00
Zn297  Zn    0.50000   0.55104   0.25000   0.00000  Uiso   1.00
Zn298  Zn    0.50000   0.44896   0.25000   0.00000  Uiso   1.00
C299   C     0.37334   0.41695   0.27111   0.00000  Uiso   1.00
N300   N     0.38849   0.38364   0.28328   0.00000  Uiso   1.00
C301   C     0.62666   0.58305   0.22889   0.00000  Uiso   1.00
N302   N     0.61151   0.61636   0.21672   0.00000  Uiso   1.00
C303   C     0.62666   0.41695   0.22889   0.00000  Uiso   1.00
N304   N     0.61151   0.38364   0.21672   0.00000  Uiso   1.00
C305   C     0.37334   0.58305   0.27111   0.00000  Uiso   1.00
N306   N     0.38849   0.61636   0.28328   0.00000  Uiso   1.00
I307   I     0.56750   0.39180   0.32545   0.00000  Uiso   1.00
I308   I     0.43250   0.60820   0.17455   0.00000  Uiso   1.00
I309   I     0.43250   0.39180   0.17455   0.00000  Uiso   1.00
I310   I     0.56750   0.60820   0.32545   0.00000  Uiso   1.00
C311   C     0.75366   0.50000   0.25408   0.00000  Uiso   1.00
C312   C     0.91301   0.50000   0.24592   0.00000  Uiso   1.00
C313   C     0.83373   0.41804   0.02317   0.00000  Uiso   1.00
C314   C     0.83294   0.58196   0.47683   0.00000  Uiso   1.00
C315   C     0.68754   0.45890   0.25629   0.00000  Uiso   1.00
C316   C     0.97912   0.54110   0.24371   0.00000  Uiso   1.00
C317   C     0.97912   0.45890   0.24371   0.00000  Uiso   1.00
C318   C     0.68754   0.54110   0.25629   0.00000  Uiso   1.00
C319   C     0.95748   0.50000   0.24191   0.00000  Uiso   1.00
C320   C     0.70919   0.50000   0.25809   0.00000  Uiso   1.00
C321   C     0.85938   0.35726   0.27918   0.00000  Uiso   1.00
C322   C     0.80729   0.64274   0.22082   0.00000  Uiso   1.00
C323   C     0.80729   0.35726   0.22082   0.00000  Uiso   1.00
C324   C     0.85938   0.64274   0.27918   0.00000  Uiso   1.00
C325   C     0.83366   0.50000   0.16339   0.00000  Uiso   1.00
C326   C     0.83301   0.50000   0.33661   0.00000  Uiso   1.00
C327   C     0.83206   0.54087   0.40751   0.00000  Uiso   1.00
C328   C     0.83461   0.45913   0.09249   0.00000  Uiso   1.00
C329   C     0.83230   0.50000   0.38458   0.00000  Uiso   1.00
C330   C     0.83437   0.50000   0.11542   0.00000  Uiso   1.00
C331   C     0.83206   0.45913   0.40751   0.00000  Uiso   1.00
C332   C     0.83461   0.54087   0.09249   0.00000  Uiso   1.00
C333   C     0.83258   0.45881   0.45361   0.00000  Uiso   1.00
C334   C     0.83409   0.54119   0.04639   0.00000  Uiso   1.00
C335   C     0.83296   0.50000   0.47681   0.00000  Uiso   1.00
C336   C     0.83371   0.50000   0.02319   0.00000  Uiso   1.00
C337   C     0.83258   0.54119   0.45361   0.00000  Uiso   1.00
C338   C     0.83409   0.45881   0.04639   0.00000  Uiso   1.00
C339   C     0.83294   0.41804   0.47683   0.00000  Uiso   1.00
C340   C     0.83373   0.58196   0.02317   0.00000  Uiso   1.00
H341   H     0.83164   0.57249   0.38962   0.00000  Uiso   1.00
H342   H     0.83502   0.42751   0.11037   0.00000  Uiso   1.00
H343   H     0.83164   0.42751   0.38963   0.00000  Uiso   1.00
H344   H     0.83502   0.57249   0.11037   0.00000  Uiso   1.00
H345   H     0.83268   0.38628   0.45919   0.00000  Uiso   1.00
H346   H     0.83398   0.61372   0.04081   0.00000  Uiso   1.00
H347   H     0.83398   0.38628   0.04081   0.00000  Uiso   1.00
H348   H     0.83268   0.61372   0.45919   0.00000  Uiso   1.00
N349   N     0.83333   0.61907   0.25000   0.00000  Uiso   1.00
N350   N     0.83333   0.38093   0.25000   0.00000  Uiso   1.00
O351   O     0.77226   0.53821   0.25000   0.00000  Uiso   1.00
O352   O     0.89441   0.46179   0.25000   0.00000  Uiso   1.00
O353   O     0.89441   0.53821   0.25000   0.00000  Uiso   1.00
O354   O     0.77226   0.46179   0.25000   0.00000  Uiso   1.00
O355   O     0.83333   0.53823   0.18392   0.00000  Uiso   1.00
O356   O     0.83334   0.46177   0.31608   0.00000  Uiso   1.00
O357   O     0.83334   0.53823   0.31608   0.00000  Uiso   1.00
O358   O     0.83333   0.46177   0.18392   0.00000  Uiso   1.00
Zn359  Zn    0.83333   0.55104   0.25000   0.00000  Uiso   1.00
Zn360  Zn    0.83333   0.44896   0.25000   0.00000  Uiso   1.00
C361   C     0.70668   0.41695   0.27111   0.00000  Uiso   1.00
N362   N     0.72182   0.38364   0.28328   0.00000  Uiso   1.00
C363   C     0.95999   0.58305   0.22889   0.00000  Uiso   1.00
N364   N     0.94484   0.61636   0.21672   0.00000  Uiso   1.00
C365   C     0.95999   0.41695   0.22889   0.00000  Uiso   1.00
N366   N     0.94484   0.38364   0.21672   0.00000  Uiso   1.00
C367   C     0.70668   0.58305   0.27111   0.00000  Uiso   1.00
N368   N     0.72182   0.61636   0.28328   0.00000  Uiso   1.00
I369   I     0.90083   0.39180   0.32545   0.00000  Uiso   1.00
I370   I     0.76583   0.60820   0.17455   0.00000  Uiso   1.00
I371   I     0.76583   0.39180   0.17455   0.00000  Uiso   1.00
I372   I     0.90083   0.60820   0.32545   0.00000  Uiso   1.00
C373   C     0.08699   0.83333   0.25408   0.00000  Uiso   1.00
C374   C     0.24634   0.83333   0.24592   0.00000  Uiso   1.00
C375   C     0.16706   0.75137   0.02317   0.00000  Uiso   1.00
C376   C     0.16627   0.91529   0.47683   0.00000  Uiso   1.00
C377   C     0.02088   0.79223   0.25629   0.00000  Uiso   1.00
C378   C     0.31246   0.87443   0.24371   0.00000  Uiso   1.00
C379   C     0.31246   0.79223   0.24371   0.00000  Uiso   1.00
C380   C     0.02088   0.87443   0.25629   0.00000  Uiso   1.00
C381   C     0.29081   0.83333   0.24191   0.00000  Uiso   1.00
C382   C     0.04252   0.83333   0.25809   0.00000  Uiso   1.00
C383   C     0.19271   0.69059   0.27918   0.00000  Uiso   1.00
C384   C     0.14062   0.97607   0.22082   0.00000  Uiso   1.00
C385   C     0.14062   0.69059   0.22082   0.00000  Uiso   1.00
C386   C     0.19271   0.97607   0.27918   0.00000  Uiso   1.00
C387   C     0.16699   0.83333   0.16339   0.00000  Uiso   1.00
C388   C     0.16634   0.83333   0.33661   0.00000  Uiso   1.00
C389   C     0.16539   0.87421   0.40751   0.00000  Uiso   1.00
C390   C     0.16794   0.79246   0.09249   0.00000  Uiso   1.00
C391   C     0.16563   0.83333   0.38458   0.00000  Uiso   1.00
C392   C     0.16770   0.83333   0.11542   0.00000  Uiso   1.00
C393   C     0.16539   0.79246   0.40751   0.00000  Uiso   1.00
C394   C     0.16794   0.87421   0.09249   0.00000  Uiso   1.00
C395   C     0.16591   0.79214   0.45361   0.00000  Uiso   1.00
C396   C     0.16742   0.87452   0.04639   0.00000  Uiso   1.00
C397   C     0.16629   0.83333   0.47681   0.00000  Uiso   1.00
C398   C     0.16704   0.83333   0.02319   0.00000  Uiso   1.00
C399   C     0.16591   0.87452   0.45361   0.00000  Uiso   1.00
C400   C     0.16742   0.79214   0.04639   0.00000  Uiso   1.00
C401   C     0.16627   0.75137   0.47683   0.00000  Uiso   1.00
C402   C     0.16706   0.91529   0.02317   0.00000  Uiso   1.00
H403   H     0.16498   0.90582   0.38962   0.00000  Uiso   1.00
H404   H     0.16836   0.76084   0.11037   0.00000  Uiso   1.00
H405   H     0.16498   0.76084   0.38963   0.00000  Uiso   1.00
H406   H     0.16836   0.90582   0.11037   0.00000  Uiso   1.00
H407   H     0.16602   0.71962   0.45919   0.00000  Uiso   1.00
H408   H     0.16732   0.94705   0.04081   0.00000  Uiso   1.00
H409   H     0.16732   0.71962   0.04081   0.00000  Uiso   1.00
H410   H     0.16602   0.94705   0.45919   0.00000  Uiso   1.00
N411   N     0.16667   0.95240   0.25000   0.00000  Uiso   1.00
N412   N     0.16667   0.71427   0.25000   0.00000  Uiso   1.00
O413   O     0.10559   0.87154   0.25000   0.00000  Uiso   1.00
O414   O     0.22774   0.79513   0.25000   0.00000  Uiso   1.00
O415   O     0.22774   0.87154   0.25000   0.00000  Uiso   1.00
O416   O     0.10559   0.79513   0.25000   0.00000  Uiso   1.00
O417   O     0.16666   0.87156   0.18392   0.00000  Uiso   1.00
O418   O     0.16667   0.79511   0.31608   0.00000  Uiso   1.00
O419   O     0.16667   0.87156   0.31608   0.00000  Uiso   1.00
O420   O     0.16666   0.79511   0.18392   0.00000  Uiso   1.00
Zn421  Zn    0.16667   0.88437   0.25000   0.00000  Uiso   1.00
Zn422  Zn    0.16667   0.78229   0.25000   0.00000  Uiso   1.00
C423   C     0.04001   0.75028   0.27111   0.00000  Uiso   1.00
N424   N     0.05516   0.71697   0.28328   0.00000  Uiso   1.00
C425   C     0.29332   0.91638   0.22889   0.00000  Uiso   1.00
N426   N     0.27818   0.94969   0.21672   0.00000  Uiso   1.00
C427   C     0.29332   0.75028   0.22889   0.00000  Uiso   1.00
N428   N     0.27818   0.71697   0.21672   0.00000  Uiso   1.00
C429   C     0.04001   0.91639   0.27111   0.00000  Uiso   1.00
N430   N     0.05516   0.94969   0.28328   0.00000  Uiso   1.00
I431   I     0.23417   0.72513   0.32545   0.00000  Uiso   1.00
I432   I     0.09917   0.94154   0.17455   0.00000  Uiso   1.00
I433   I     0.09917   0.72513   0.17455   0.00000  Uiso   1.00
I434   I     0.23417   0.94153   0.32545   0.00000  Uiso   1.00
C435   C     0.42033   0.83333   0.25408   0.00000  Uiso   1.00
C436   C     0.57967   0.83333   0.24592   0.00000  Uiso   1.00
C437   C     0.50040   0.75137   0.02317   0.00000  Uiso   1.00
C438   C     0.49960   0.91529   0.47683   0.00000  Uiso   1.00
C439   C     0.35421   0.79223   0.25629   0.00000  Uiso   1.00
C440   C     0.64579   0.87443   0.24371   0.00000  Uiso   1.00
C441   C     0.64579   0.79223   0.24371   0.00000  Uiso   1.00
C442   C     0.35421   0.87443   0.25629   0.00000  Uiso   1.00
C443   C     0.62415   0.83333   0.24191   0.00000  Uiso   1.00
C444   C     0.37585   0.83333   0.25809   0.00000  Uiso   1.00
C445   C     0.52605   0.69059   0.27918   0.00000  Uiso   1.00
C446   C     0.47396   0.97607   0.22082   0.00000  Uiso   1.00
C447   C     0.47396   0.69059   0.22082   0.00000  Uiso   1.00
C448   C     0.52605   0.97607   0.27918   0.00000  Uiso   1.00
C449   C     0.50033   0.83333   0.16339   0.00000  Uiso   1.00
C450   C     0.49967   0.83333   0.33661   0.00000  Uiso   1.00
C451   C     0.49873   0.87421   0.40751   0.00000  Uiso   1.00
C452   C     0.50127   0.79246   0.09249   0.00000  Uiso   1.00
C453   C     0.49897   0.83333   0.38458   0.00000  Uiso   1.00
C454   C     0.50103   0.83333   0.11542   0.00000  Uiso   1.00
C455   C     0.49873   0.79246   0.40751   0.00000  Uiso   1.00
C456   C     0.50127   0.87421   0.09249   0.00000  Uiso   1.00
C457   C     0.49924   0.79214   0.45361   0.00000  Uiso   1.00
C458   C     0.50076   0.87452   0.04639   0.00000  Uiso   1.00
C459   C     0.49962   0.83333   0.47681   0.00000  Uiso   1.00
C460   C     0.50038   0.83333   0.02319   0.00000  Uiso   1.00
C461   C     0.49924   0.87452   0.45361   0.00000  Uiso   1.00
C462   C     0.50076   0.79214   0.04639   0.00000  Uiso   1.00
C463   C     0.49960   0.75137   0.47683   0.00000  Uiso   1.00
C464   C     0.50040   0.91529   0.02317   0.00000  Uiso   1.00
H465   H     0.49831   0.90582   0.38962   0.00000  Uiso   1.00
H466   H     0.50169   0.76084   0.11037   0.00000  Uiso   1.00
H467   H     0.49831   0.76084   0.38963   0.00000  Uiso   1.00
H468   H     0.50169   0.90582   0.11037   0.00000  Uiso   1.00
H469   H     0.49935   0.71962   0.45919   0.00000  Uiso   1.00
H470   H     0.50065   0.94705   0.04081   0.00000  Uiso   1.00
H471   H     0.50065   0.71962   0.04081   0.00000  Uiso   1.00
H472   H     0.49935   0.94705   0.45919   0.00000  Uiso   1.00
N473   N     0.50000   0.95240   0.25000   0.00000  Uiso   1.00
N474   N     0.50000   0.71427   0.25000   0.00000  Uiso   1.00
O475   O     0.43892   0.87154   0.25000   0.00000  Uiso   1.00
O476   O     0.56108   0.79513   0.25000   0.00000  Uiso   1.00
O477   O     0.56108   0.87154   0.25000   0.00000  Uiso   1.00
O478   O     0.43892   0.79513   0.25000   0.00000  Uiso   1.00
O479   O     0.49999   0.87156   0.18392   0.00000  Uiso   1.00
O480   O     0.50001   0.79511   0.31608   0.00000  Uiso   1.00
O481   O     0.50001   0.87156   0.31608   0.00000  Uiso   1.00
O482   O     0.49999   0.79511   0.18392   0.00000  Uiso   1.00
Zn483  Zn    0.50000   0.88437   0.25000   0.00000  Uiso   1.00
Zn484  Zn    0.50000   0.78229   0.25000   0.00000  Uiso   1.00
C485   C     0.37334   0.75028   0.27111   0.00000  Uiso   1.00
N486   N     0.38849   0.71697   0.28328   0.00000  Uiso   1.00
C487   C     0.62666   0.91638   0.22889   0.00000  Uiso   1.00
N488   N     0.61151   0.94969   0.21672   0.00000  Uiso   1.00
C489   C     0.62666   0.75028   0.22889   0.00000  Uiso   1.00
N490   N     0.61151   0.71697   0.21672   0.00000  Uiso   1.00
C491   C     0.37334   0.91639   0.27111   0.00000  Uiso   1.00
N492   N     0.38849   0.94969   0.28328   0.00000  Uiso   1.00
I493   I     0.56750   0.72513   0.32545   0.00000  Uiso   1.00
I494   I     0.43250   0.94154   0.17455   0.00000  Uiso   1.00
I495   I     0.43250   0.72513   0.17455   0.00000  Uiso   1.00
I496   I     0.56750   0.94153   0.32545   0.00000  Uiso   1.00
C497   C     0.75366   0.83333   0.25408   0.00000  Uiso   1.00
C498   C     0.91301   0.83333   0.24592   0.00000  Uiso   1.00
C499   C     0.83373   0.75137   0.02317   0.00000  Uiso   1.00
C500   C     0.83294   0.91529   0.47683   0.00000  Uiso   1.00
C501   C     0.68754   0.79223   0.25629   0.00000  Uiso   1.00
C502   C     0.97912   0.87443   0.24371   0.00000  Uiso   1.00
C503   C     0.97912   0.79223   0.24371   0.00000  Uiso   1.00
C504   C     0.68754   0.87443   0.25629   0.00000  Uiso   1.00
C505   C     0.95748   0.83333   0.24191   0.00000  Uiso   1.00
C506   C     0.70919   0.83333   0.25809   0.00000  Uiso   1.00
C507   C     0.85938   0.69059   0.27918   0.00000  Uiso   1.00
C508   C     0.80729   0.97607   0.22082   0.00000  Uiso   1.00
C509   C     0.80729   0.69059   0.22082   0.00000  Uiso   1.00
C510   C     0.85938   0.97607   0.27918   0.00000  Uiso   1.00
C511   C     0.83366   0.83333   0.16339   0.00000  Uiso   1.00
C512   C     0.83301   0.83333   0.33661   0.00000  Uiso   1.00
C513   C     0.83206   0.87421   0.40751   0.00000  Uiso   1.00
C514   C     0.83461   0.79246   0.09249   0.00000  Uiso   1.00
C515   C     0.83230   0.83333   0.38458   0.00000  Uiso   1.00
C516   C     0.83437   0.83333   0.11542   0.00000  Uiso   1.00
C517   C     0.83206   0.79246   0.40751   0.00000  Uiso   1.00
C518   C     0.83461   0.87421   0.09249   0.00000  Uiso   1.00
C519   C     0.83258   0.79214   0.45361   0.00000  Uiso   1.00
C520   C     0.83409   0.87452   0.04639   0.00000  Uiso   1.00
C521   C     0.83296   0.83333   0.47681   0.00000  Uiso   1.00
C522   C     0.83371   0.83333   0.02319   0.00000  Uiso   1.00
C523   C     0.83258   0.87452   0.45361   0.00000  Uiso   1.00
C524   C     0.83409   0.79214   0.04639   0.00000  Uiso   1.00
C525   C     0.83294   0.75137   0.47683   0.00000  Uiso   1.00
C526   C     0.83373   0.91529   0.02317   0.00000  Uiso   1.00
H527   H     0.83164   0.90582   0.38962   0.00000  Uiso   1.00
H528   H     0.83502   0.76084   0.11037   0.00000  Uiso   1.00
H529   H     0.83164   0.76084   0.38963   0.00000  Uiso   1.00
H530   H     0.83502   0.90582   0.11037   0.00000  Uiso   1.00
H531   H     0.83268   0.71962   0.45919   0.00000  Uiso   1.00
H532   H     0.83398   0.94705   0.04081   0.00000  Uiso   1.00
H533   H     0.83398   0.71962   0.04081   0.00000  Uiso   1.00
H534   H     0.83268   0.94705   0.45919   0.00000  Uiso   1.00
N535   N     0.83333   0.95240   0.25000   0.00000  Uiso   1.00
N536   N     0.83333   0.71427   0.25000   0.00000  Uiso   1.00
O537   O     0.77226   0.87154   0.25000   0.00000  Uiso   1.00
O538   O     0.89441   0.79513   0.25000   0.00000  Uiso   1.00
O539   O     0.89441   0.87154   0.25000   0.00000  Uiso   1.00
O540   O     0.77226   0.79513   0.25000   0.00000  Uiso   1.00
O541   O     0.83333   0.87156   0.18392   0.00000  Uiso   1.00
O542   O     0.83334   0.79511   0.31608   0.00000  Uiso   1.00
O543   O     0.83334   0.87156   0.31608   0.00000  Uiso   1.00
O544   O     0.83333   0.79511   0.18392   0.00000  Uiso   1.00
Zn545  Zn    0.83333   0.88437   0.25000   0.00000  Uiso   1.00
Zn546  Zn    0.83333   0.78229   0.25000   0.00000  Uiso   1.00
C547   C     0.70668   0.75028   0.27111   0.00000  Uiso   1.00
N548   N     0.72182   0.71697   0.28328   0.00000  Uiso   1.00
C549   C     0.95999   0.91638   0.22889   0.00000  Uiso   1.00
N550   N     0.94484   0.94969   0.21672   0.00000  Uiso   1.00
C551   C     0.95999   0.75028   0.22889   0.00000  Uiso   1.00
N552   N     0.94484   0.71697   0.21672   0.00000  Uiso   1.00
C553   C     0.70668   0.91639   0.27111   0.00000  Uiso   1.00
N554   N     0.72182   0.94969   0.28328   0.00000  Uiso   1.00
I555   I     0.90083   0.72513   0.32545   0.00000  Uiso   1.00
I556   I     0.76583   0.94154   0.17455   0.00000  Uiso   1.00
I557   I     0.76583   0.72513   0.17455   0.00000  Uiso   1.00
I558   I     0.90083   0.94153   0.32545   0.00000  Uiso   1.00
C559   C     0.08699   0.16667   0.75408   0.00000  Uiso   1.00
C560   C     0.24634   0.16667   0.74592   0.00000  Uiso   1.00
C561   C     0.16706   0.08471   0.52317   0.00000  Uiso   1.00
C562   C     0.16627   0.24863   0.97683   0.00000  Uiso   1.00
C563   C     0.02088   0.12557   0.75629   0.00000  Uiso   1.00
C564   C     0.31246   0.20777   0.74371   0.00000  Uiso   1.00
C565   C     0.31246   0.12557   0.74371   0.00000  Uiso   1.00
C566   C     0.02088   0.20777   0.75629   0.00000  Uiso   1.00
C567   C     0.29081   0.16667   0.74191   0.00000  Uiso   1.00
C568   C     0.04252   0.16667   0.75809   0.00000  Uiso   1.00
C569   C     0.19271   0.02393   0.77918   0.00000  Uiso   1.00
C570   C     0.14062   0.30941   0.72082   0.00000  Uiso   1.00
C571   C     0.14062   0.02393   0.72082   0.00000  Uiso   1.00
C572   C     0.19271   0.30941   0.77918   0.00000  Uiso   1.00
C573   C     0.16699   0.16667   0.66339   0.00000  Uiso   1.00
C574   C     0.16634   0.16667   0.83661   0.00000  Uiso   1.00
C575   C     0.16539   0.20754   0.90751   0.00000  Uiso   1.00
C576   C     0.16794   0.12579   0.59249   0.00000  Uiso   1.00
C577   C     0.16563   0.16667   0.88458   0.00000  Uiso   1.00
C578   C     0.16770   0.16667   0.61542   0.00000  Uiso   1.00
C579   C     0.16539   0.12579   0.90751   0.00000  Uiso   1.00
C580   C     0.16794   0.20754   0.59249   0.00000  Uiso   1.00
C581   C     0.16591   0.12547   0.95361   0.00000  Uiso   1.00
C582   C     0.16742   0.20786   0.54639   0.00000  Uiso   1.00
C583   C     0.16629   0.16667   0.97681   0.00000  Uiso   1.00
C584   C     0.16704   0.16667   0.52319   0.00000  Uiso   1.00
C585   C     0.16591   0.20786   0.95361   0.00000  Uiso   1.00
C586   C     0.16742   0.12547   0.54639   0.00000  Uiso   1.00
C587   C     0.16627   0.08471   0.97683   0.00000  Uiso   1.00
C588   C     0.16706   0.24863   0.52317   0.00000  Uiso   1.00
H589   H     0.16498   0.23916   0.88962   0.00000  Uiso   1.00
H590   H     0.16836   0.09418   0.61037   0.00000  Uiso   1.00
H591   H     0.16498   0.09418   0.88963   0.00000  Uiso   1.00
H592   H     0.16836   0.23916   0.61037   0.00000  Uiso   1.00
H593   H     0.16602   0.05295   0.95919   0.00000  Uiso   1.00
H594   H     0.16732   0.28038   0.54081   0.00000  Uiso   1.00
H595   H     0.16732   0.05295   0.54081   0.00000  Uiso   1.00
H596   H     0.16602   0.28038   0.95919   0.00000  Uiso   1.00
N597   N     0.16667   0.28573   0.75000   0.00000  Uiso   1.00
N598   N     0.16667   0.04760   0.75000   0.00000  Uiso   1.00
O599   O     0.10559   0.20487   0.75000   0.00000  Uiso   1.00
O600   O     0.22774   0.12846   0.75000   0.00000  Uiso   1.00
O601   O     0.22774   0.20487   0.75000   0.00000  Uiso   1.00
O602   O     0.10559   0.12846   0.75000   0.00000  Uiso   1.00
O603   O     0.16666   0.20489   0.68392   0.00000  Uiso   1.00
O604   O     0.16667   0.12844   0.81608   0.00000  Uiso   1.00
O605   O     0.16667   0.20489   0.81608   0.00000  Uiso   1.00
O606   O     0.16666   0.12844   0.68392   0.00000  Uiso   1.00
Zn607  Zn    0.16667   0.21771   0.75000   0.00000  Uiso   1.00
Zn608  Zn    0.16667   0.11563   0.75000   0.00000  Uiso   1.00
C609   C     0.04001   0.08361   0.77111   0.00000  Uiso   1.00
N610   N     0.05516   0.05031   0.78328   0.00000  Uiso   1.00
C611   C     0.29332   0.24972   0.72889   0.00000  Uiso   1.00
N612   N     0.27818   0.28303   0.71672   0.00000  Uiso   1.00
C613   C     0.29332   0.08361   0.72889   0.00000  Uiso   1.00
N614   N     0.27818   0.05031   0.71672   0.00000  Uiso   1.00
C615   C     0.04001   0.24972   0.77111   0.00000  Uiso   1.00
N616   N     0.05516   0.28303   0.78328   0.00000  Uiso   1.00
I617   I     0.23417   0.05846   0.82545   0.00000  Uiso   1.00
I618   I     0.09917   0.27487   0.67455   0.00000  Uiso   1.00
I619   I     0.09917   0.05846   0.67455   0.00000  Uiso   1.00
I620   I     0.23417   0.27487   0.82545   0.00000  Uiso   1.00
C621   C     0.42033   0.16667   0.75408   0.00000  Uiso   1.00
C622   C     0.57967   0.16667   0.74592   0.00000  Uiso   1.00
C623   C     0.50040   0.08471   0.52317   0.00000  Uiso   1.00
C624   C     0.49960   0.24863   0.97683   0.00000  Uiso   1.00
C625   C     0.35421   0.12557   0.75629   0.00000  Uiso   1.00
C626   C     0.64579   0.20777   0.74371   0.00000  Uiso   1.00
C627   C     0.64579   0.12557   0.74371   0.00000  Uiso   1.00
C628   C     0.35421   0.20777   0.75629   0.00000  Uiso   1.00
C629   C     0.62415   0.16667   0.74191   0.00000  Uiso   1.00
C630   C     0.37585   0.16667   0.75809   0.00000  Uiso   1.00
C631   C     0.52605   0.02393   0.77918   0.00000  Uiso   1.00
C632   C     0.47396   0.30941   0.72082   0.00000  Uiso   1.00
C633   C     0.47396   0.02393   0.72082   0.00000  Uiso   1.00
C634   C     0.52605   0.30941   0.77918   0.00000  Uiso   1.00
C635   C     0.50033   0.16667   0.66339   0.00000  Uiso   1.00
C636   C     0.49967   0.16667   0.83661   0.00000  Uiso   1.00
C637   C     0.49873   0.20754   0.90751   0.00000  Uiso   1.00
C638   C     0.50127   0.12579   0.59249   0.00000  Uiso   1.00
C639   C     0.49897   0.16667   0.88458   0.00000  Uiso   1.00
C640   C     0.50103   0.16667   0.61542   0.00000  Uiso   1.00
C641   C     0.49873   0.12579   0.90751   0.00000  Uiso   1.00
C642   C     0.50127   0.20754   0.59249   0.00000  Uiso   1.00
C643   C     0.49924   0.12547   0.95361   0.00000  Uiso   1.00
C644   C     0.50076   0.20786   0.54639   0.00000  Uiso   1.00
C645   C     0.49962   0.16667   0.97681   0.00000  Uiso   1.00
C646   C     0.50038   0.16667   0.52319   0.00000  Uiso   1.00
C647   C     0.49924   0.20786   0.95361   0.00000  Uiso   1.00
C648   C     0.50076   0.12547   0.54639   0.00000  Uiso   1.00
C649   C     0.49960   0.08471   0.97683   0.00000  Uiso   1.00
C650   C     0.50040   0.24863   0.52317   0.00000  Uiso   1.00
H651   H     0.49831   0.23916   0.88962   0.00000  Uiso   1.00
H652   H     0.50169   0.09418   0.61037   0.00000  Uiso   1.00
H653   H     0.49831   0.09418   0.88963   0.00000  Uiso   1.00
H654   H     0.50169   0.23916   0.61037   0.00000  Uiso   1.00
H655   H     0.49935   0.05295   0.95919   0.00000  Uiso   1.00
H656   H     0.50065   0.28038   0.54081   0.00000  Uiso   1.00
H657   H     0.50065   0.05295   0.54081   0.00000  Uiso   1.00
H658   H     0.49935   0.28038   0.95919   0.00000  Uiso   1.00
N659   N     0.50000   0.28573   0.75000   0.00000  Uiso   1.00
N660   N     0.50000   0.04760   0.75000   0.00000  Uiso   1.00
O661   O     0.43892   0.20487   0.75000   0.00000  Uiso   1.00
O662   O     0.56108   0.12846   0.75000   0.00000  Uiso   1.00
O663   O     0.56108   0.20487   0.75000   0.00000  Uiso   1.00
O664   O     0.43892   0.12846   0.75000   0.00000  Uiso   1.00
O665   O     0.49999   0.20489   0.68392   0.00000  Uiso   1.00
O666   O     0.50001   0.12844   0.81608   0.00000  Uiso   1.00
O667   O     0.50001   0.20489   0.81608   0.00000  Uiso   1.00
O668   O     0.49999   0.12844   0.68392   0.00000  Uiso   1.00
Zn669  Zn    0.50000   0.21771   0.75000   0.00000  Uiso   1.00
Zn670  Zn    0.50000   0.11563   0.75000   0.00000  Uiso   1.00
C671   C     0.37334   0.08361   0.77111   0.00000  Uiso   1.00
N672   N     0.38849   0.05031   0.78328   0.00000  Uiso   1.00
C673   C     0.62666   0.24972   0.72889   0.00000  Uiso   1.00
N674   N     0.61151   0.28303   0.71672   0.00000  Uiso   1.00
C675   C     0.62666   0.08361   0.72889   0.00000  Uiso   1.00
N676   N     0.61151   0.05031   0.71672   0.00000  Uiso   1.00
C677   C     0.37334   0.24972   0.77111   0.00000  Uiso   1.00
N678   N     0.38849   0.28303   0.78328   0.00000  Uiso   1.00
I679   I     0.56750   0.05846   0.82545   0.00000  Uiso   1.00
I680   I     0.43250   0.27487   0.67455   0.00000  Uiso   1.00
I681   I     0.43250   0.05846   0.67455   0.00000  Uiso   1.00
I682   I     0.56750   0.27487   0.82545   0.00000  Uiso   1.00
C683   C     0.75366   0.16667   0.75408   0.00000  Uiso   1.00
C684   C     0.91301   0.16667   0.74592   0.00000  Uiso   1.00
C685   C     0.83373   0.08471   0.52317   0.00000  Uiso   1.00
C686   C     0.83294   0.24863   0.97683   0.00000  Uiso   1.00
C687   C     0.68754   0.12557   0.75629   0.00000  Uiso   1.00
C688   C     0.97912   0.20777   0.74371   0.00000  Uiso   1.00
C689   C     0.97912   0.12557   0.74371   0.00000  Uiso   1.00
C690   C     0.68754   0.20777   0.75629   0.00000  Uiso   1.00
C691   C     0.95748   0.16667   0.74191   0.00000  Uiso   1.00
C692   C     0.70919   0.16667   0.75809   0.00000  Uiso   1.00
C693   C     0.85938   0.02393   0.77918   0.00000  Uiso   1.00
C694   C     0.80729   0.30941   0.72082   0.00000  Uiso   1.00
C695   C     0.80729   0.02393   0.72082   0.00000  Uiso   1.00
C696   C     0.85938   0.30941   0.77918   0.00000  Uiso   1.00
C697   C     0.83366   0.16667   0.66339   0.00000  Uiso   1.00
C698   C     0.83301   0.16667   0.83661   0.00000  Uiso   1.00
C699   C     0.83206   0.20754   0.90751   0.00000  Uiso   1.00
C700   C     0.83461   0.12579   0.59249   0.00000  Uiso   1.00
C701   C     0.83230   0.16667   0.88458   0.00000  Uiso   1.00
C702   C     0.83437   0.16667   0.61542   0.00000  Uiso   1.00
C703   C     0.83206   0.12579   0.90751   0.00000  Uiso   1.00
C704   C     0.83461   0.20754   0.59249   0.00000  Uiso   1.00
C705   C     0.83258   0.12547   0.95361   0.00000  Uiso   1.00
C706   C     0.83409   0.20786   0.54639   0.00000  Uiso   1.00
C707   C     0.83296   0.16667   0.97681   0.00000  Uiso   1.00
C708   C     0.83371   0.16667   0.52319   0.00000  Uiso   1.00
C709   C     0.83258   0.20786   0.95361   0.00000  Uiso   1.00
C710   C     0.83409   0.12547   0.54639   0.00000  Uiso   1.00
C711   C     0.83294   0.08471   0.97683   0.00000  Uiso   1.00
C712   C     0.83373   0.24863   0.52317   0.00000  Uiso   1.00
H713   H     0.83164   0.23916   0.88962   0.00000  Uiso   1.00
H714   H     0.83502   0.09418   0.61037   0.00000  Uiso   1.00
H715   H     0.83164   0.09418   0.88963   0.00000  Uiso   1.00
H716   H     0.83502   0.23916   0.61037   0.00000  Uiso   1.00
H717   H     0.83268   0.05295   0.95919   0.00000  Uiso   1.00
H718   H     0.83398   0.28038   0.54081   0.00000  Uiso   1.00
H719   H     0.83398   0.05295   0.54081   0.00000  Uiso   1.00
H720   H     0.83268   0.28038   0.95919   0.00000  Uiso   1.00
N721   N     0.83333   0.28573   0.75000   0.00000  Uiso   1.00
N722   N     0.83333   0.04760   0.75000   0.00000  Uiso   1.00
O723   O     0.77226   0.20487   0.75000   0.00000  Uiso   1.00
O724   O     0.89441   0.12846   0.75000   0.00000  Uiso   1.00
O725   O     0.89441   0.20487   0.75000   0.00000  Uiso   1.00
O726   O     0.77226   0.12846   0.75000   0.00000  Uiso   1.00
O727   O     0.83333   0.20489   0.68392   0.00000  Uiso   1.00
O728   O     0.83334   0.12844   0.81608   0.00000  Uiso   1.00
O729   O     0.83334   0.20489   0.81608   0.00000  Uiso   1.00
O730   O     0.83333   0.12844   0.68392   0.00000  Uiso   1.00
Zn731  Zn    0.83333   0.21771   0.75000   0.00000  Uiso   1.00
Zn732  Zn    0.83333   0.11563   0.75000   0.00000  Uiso   1.00
C733   C     0.70668   0.08361   0.77111   0.00000  Uiso   1.00
N734   N     0.72182   0.05031   0.78328   0.00000  Uiso   1.00
C735   C     0.95999   0.24972   0.72889   0.00000  Uiso   1.00
N736   N     0.94484   0.28303   0.71672   0.00000  Uiso   1.00
C737   C     0.95999   0.08361   0.72889   0.00000  Uiso   1.00
N738   N     0.94484   0.05031   0.71672   0.00000  Uiso   1.00
C739   C     0.70668   0.24972   0.77111   0.00000  Uiso   1.00
N740   N     0.72182   0.28303   0.78328   0.00000  Uiso   1.00
I741   I     0.90083   0.05846   0.82545   0.00000  Uiso   1.00
I742   I     0.76583   0.27487   0.67455   0.00000  Uiso   1.00
I743   I     0.76583   0.05846   0.67455   0.00000  Uiso   1.00
I744   I     0.90083   0.27487   0.82545   0.00000  Uiso   1.00
C745   C     0.08699   0.50000   0.75408   0.00000  Uiso   1.00
C746   C     0.24634   0.50000   0.74592   0.00000  Uiso   1.00
C747   C     0.16706   0.41804   0.52317   0.00000  Uiso   1.00
C748   C     0.16627   0.58196   0.97683   0.00000  Uiso   1.00
C749   C     0.02088   0.45890   0.75629   0.00000  Uiso   1.00
C750   C     0.31246   0.54110   0.74371   0.00000  Uiso   1.00
C751   C     0.31246   0.45890   0.74371   0.00000  Uiso   1.00
C752   C     0.02088   0.54110   0.75629   0.00000  Uiso   1.00
C753   C     0.29081   0.50000   0.74191   0.00000  Uiso   1.00
C754   C     0.04252   0.50000   0.75809   0.00000  Uiso   1.00
C755   C     0.19271   0.35726   0.77918   0.00000  Uiso   1.00
C756   C     0.14062   0.64274   0.72082   0.00000  Uiso   1.00
C757   C     0.14062   0.35726   0.72082   0.00000  Uiso   1.00
C758   C     0.19271   0.64274   0.77918   0.00000  Uiso   1.00
C759   C     0.16699   0.50000   0.66339   0.00000  Uiso   1.00
C760   C     0.16634   0.50000   0.83661   0.00000  Uiso   1.00
C761   C     0.16539   0.54087   0.90751   0.00000  Uiso   1.00
C762   C     0.16794   0.45913   0.59249   0.00000  Uiso   1.00
C763   C     0.16563   0.50000   0.88458   0.00000  Uiso   1.00
C764   C     0.16770   0.50000   0.61542   0.00000  Uiso   1.00
C765   C     0.16539   0.45913   0.90751   0.00000  Uiso   1.00
C766   C     0.16794   0.54087   0.59249   0.00000  Uiso   1.00
C767   C     0.16591   0.45881   0.95361   0.00000  Uiso   1.00
C768   C     0.16742   0.54119   0.54639   0.00000  Uiso   1.00
C769   C     0.16629   0.50000   0.97681   0.00000  Uiso   1.00
C770   C     0.16704   0.50000   0.52319   0.00000  Uiso   1.00
C771   C     0.16591   0.54119   0.95361   0.00000  Uiso   1.00
C772   C     0.16742   0.45881   0.54639   0.00000  Uiso   1.00
C773   C     0.16627   0.41804   0.97683   0.00000  Uiso   1.00
C774   C     0.16706   0.58196   0.52317   0.00000  Uiso   1.00
H775   H     0.16498   0.57249   0.88962   0.00000  Uiso   1.00
H776   H     0.16836   0.42751   0.61037   0.00000  Uiso   1.00
H777   H     0.16498   0.42751   0.88963   0.00000  Uiso   1.00
H778   H     0.16836   0.57249   0.61037   0.00000  Uiso   1.00
H779   H     0.16602   0.38628   0.95919   0.00000  Uiso   1.00
H780   H     0.16732   0.61372   0.54081   0.00000  Uiso   1.00
H781   H     0.16732   0.38628   0.54081   0.00000  Uiso   1.00
H782   H     0.16602   0.61372   0.95919   0.00000  Uiso   1.00
N783   N     0.16667   0.61907   0.75000   0.00000  Uiso   1.00
N784   N     0.16667   0.38093   0.75000   0.00000  Uiso   1.00
O785   O     0.10559   0.53821   0.75000   0.00000  Uiso   1.00
O786   O     0.22774   0.46179   0.75000   0.00000  Uiso   1.00
O787   O     0.22774   0.53821   0.75000   0.00000  Uiso   1.00
O788   O     0.10559   0.46179   0.75000   0.00000  Uiso   1.00
O789   O     0.16666   0.53823   0.68392   0.00000  Uiso   1.00
O790   O     0.16667   0.46177   0.81608   0.00000  Uiso   1.00
O791   O     0.16667   0.53823   0.81608   0.00000  Uiso   1.00
O792   O     0.16666   0.46177   0.68392   0.00000  Uiso   1.00
Zn793  Zn    0.16667   0.55104   0.75000   0.00000  Uiso   1.00
Zn794  Zn    0.16667   0.44896   0.75000   0.00000  Uiso   1.00
C795   C     0.04001   0.41695   0.77111   0.00000  Uiso   1.00
N796   N     0.05516   0.38364   0.78328   0.00000  Uiso   1.00
C797   C     0.29332   0.58305   0.72889   0.00000  Uiso   1.00
N798   N     0.27818   0.61636   0.71672   0.00000  Uiso   1.00
C799   C     0.29332   0.41695   0.72889   0.00000  Uiso   1.00
N800   N     0.27818   0.38364   0.71672   0.00000  Uiso   1.00
C801   C     0.04001   0.58305   0.77111   0.00000  Uiso   1.00
N802   N     0.05516   0.61636   0.78328   0.00000  Uiso   1.00
I803   I     0.23417   0.39180   0.82545   0.00000  Uiso   1.00
I804   I     0.09917   0.60820   0.67455   0.00000  Uiso   1.00
I805   I     0.09917   0.39180   0.67455   0.00000  Uiso   1.00
I806   I     0.23417   0.60820   0.82545   0.00000  Uiso   1.00
C807   C     0.42033   0.50000   0.75408   0.00000  Uiso   1.00
C808   C     0.57967   0.50000   0.74592   0.00000  Uiso   1.00
C809   C     0.50040   0.41804   0.52317   0.00000  Uiso   1.00
C810   C     0.49960   0.58196   0.97683   0.00000  Uiso   1.00
C811   C     0.35421   0.45890   0.75629   0.00000  Uiso   1.00
C812   C     0.64579   0.54110   0.74371   0.00000  Uiso   1.00
C813   C     0.64579   0.45890   0.74371   0.00000  Uiso   1.00
C814   C     0.35421   0.54110   0.75629   0.00000  Uiso   1.00
C815   C     0.62415   0.50000   0.74191   0.00000  Uiso   1.00
C816   C     0.37585   0.50000   0.75809   0.00000  Uiso   1.00
C817   C     0.52605   0.35726   0.77918   0.00000  Uiso   1.00
C818   C     0.47396   0.64274   0.72082   0.00000  Uiso   1.00
C819   C     0.47396   0.35726   0.72082   0.00000  Uiso   1.00
C820   C     0.52605   0.64274   0.77918   0.00000  Uiso   1.00
C821   C     0.50033   0.50000   0.66339   0.00000  Uiso   1.00
C822   C     0.49967   0.50000   0.83661   0.00000  Uiso   1.00
C823   C     0.49873   0.54087   0.90751   0.00000  Uiso   1.00
C824   C     0.50127   0.45913   0.59249   0.00000  Uiso   1.00
C825   C     0.49897   0.50000   0.88458   0.00000  Uiso   1.00
C826   C     0.50103   0.50000   0.61542   0.00000  Uiso   1.00
C827   C     0.49873   0.45913   0.90751   0.00000  Uiso   1.00
C828   C     0.50127   0.54087   0.59249   0.00000  Uiso   1.00
C829   C     0.49924   0.45881   0.95361   0.00000  Uiso   1.00
C830   C     0.50076   0.54119   0.54639   0.00000  Uiso   1.00
C831   C     0.49962   0.50000   0.97681   0.00000  Uiso   1.00
C832   C     0.50038   0.50000   0.52319   0.00000  Uiso   1.00
C833   C     0.49924   0.54119   0.95361   0.00000  Uiso   1.00
C834   C     0.50076   0.45881   0.54639   0.00000  Uiso   1.00
C835   C     0.49960   0.41804   0.97683   0.00000  Uiso   1.00
C836   C     0.50040   0.58196   0.52317   0.00000  Uiso   1.00
H837   H     0.49831   0.57249   0.88962   0.00000  Uiso   1.00
H838   H     0.50169   0.42751   0.61037   0.00000  Uiso   1.00
H839   H     0.49831   0.42751   0.88963   0.00000  Uiso   1.00
H840   H     0.50169   0.57249   0.61037   0.00000  Uiso   1.00
H841   H     0.49935   0.38628   0.95919   0.00000  Uiso   1.00
H842   H     0.50065   0.61372   0.54081   0.00000  Uiso   1.00
H843   H     0.50065   0.38628   0.54081   0.00000  Uiso   1.00
H844   H     0.49935   0.61372   0.95919   0.00000  Uiso   1.00
N845   N     0.50000   0.61907   0.75000   0.00000  Uiso   1.00
N846   N     0.50000   0.38093   0.75000   0.00000  Uiso   1.00
O847   O     0.43892   0.53821   0.75000   0.00000  Uiso   1.00
O848   O     0.56108   0.46179   0.75000   0.00000  Uiso   1.00
O849   O     0.56108   0.53821   0.75000   0.00000  Uiso   1.00
O850   O     0.43892   0.46179   0.75000   0.00000  Uiso   1.00
O851   O     0.49999   0.53823   0.68392   0.00000  Uiso   1.00
O852   O     0.50001   0.46177   0.81608   0.00000  Uiso   1.00
O853   O     0.50001   0.53823   0.81608   0.00000  Uiso   1.00
O854   O     0.49999   0.46177   0.68392   0.00000  Uiso   1.00
Zn855  Zn    0.50000   0.55104   0.75000   0.00000  Uiso   1.00
Zn856  Zn    0.50000   0.44896   0.75000   0.00000  Uiso   1.00
C857   C     0.37334   0.41695   0.77111   0.00000  Uiso   1.00
N858   N     0.38849   0.38364   0.78328   0.00000  Uiso   1.00
C859   C     0.62666   0.58305   0.72889   0.00000  Uiso   1.00
N860   N     0.61151   0.61636   0.71672   0.00000  Uiso   1.00
C861   C     0.62666   0.41695   0.72889   0.00000  Uiso   1.00
N862   N     0.61151   0.38364   0.71672   0.00000  Uiso   1.00
C863   C     0.37334   0.58305   0.77111   0.00000  Uiso   1.00
N864   N     0.38849   0.61636   0.78328   0.00000  Uiso   1.00
I865   I     0.56750   0.39180   0.82545   0.00000  Uiso   1.00
I866   I     0.43250   0.60820   0.67455   0.00000  Uiso   1.00
I867   I     0.43250   0.39180   0.67455   0.00000  Uiso   1.00
I868   I     0.56750   0.60820   0.82545   0.00000  Uiso   1.00
C869   C     0.75366   0.50000   0.75408   0.00000  Uiso   1.00
C870   C     0.91301   0.50000   0.74592   0.00000  Uiso   1.00
C871   C     0.83373   0.41804   0.52317   0.00000  Uiso   1.00
C872   C     0.83294   0.58196   0.97683   0.00000  Uiso   1.00
C873   C     0.68754   0.45890   0.75629   0.00000  Uiso   1.00
C874   C     0.97912   0.54110   0.74371   0.00000  Uiso   1.00
C875   C     0.97912   0.45890   0.74371   0.00000  Uiso   1.00
C876   C     0.68754   0.54110   0.75629   0.00000  Uiso   1.00
C877   C     0.95748   0.50000   0.74191   0.00000  Uiso   1.00
C878   C     0.70919   0.50000   0.75809   0.00000  Uiso   1.00
C879   C     0.85938   0.35726   0.77918   0.00000  Uiso   1.00
C880   C     0.80729   0.64274   0.72082   0.00000  Uiso   1.00
C881   C     0.80729   0.35726   0.72082   0.00000  Uiso   1.00
C882   C     0.85938   0.64274   0.77918   0.00000  Uiso   1.00
C883   C     0.83366   0.50000   0.66339   0.00000  Uiso   1.00
C884   C     0.83301   0.50000   0.83661   0.00000  Uiso   1.00
C885   C     0.83206   0.54087   0.90751   0.00000  Uiso   1.00
C886   C     0.83461   0.45913   0.59249   0.00000  Uiso   1.00
C887   C     0.83230   0.50000   0.88458   0.00000  Uiso   1.00
C888   C     0.83437   0.50000   0.61542   0.00000  Uiso   1.00
C889   C     0.83206   0.45913   0.90751   0.00000  Uiso   1.00
C890   C     0.83461   0.54087   0.59249   0.00000  Uiso   1.00
C891   C     0.83258   0.45881   0.95361   0.00000  Uiso   1.00
C892   C     0.83409   0.54119   0.54639   0.00000  Uiso   1.00
C893   C     0.83296   0.50000   0.97681   0.00000  Uiso   1.00
C894   C     0.83371   0.50000   0.52319   0.00000  Uiso   1.00
C895   C     0.83258   0.54119   0.95361   0.00000  Uiso   1.00
C896   C     0.83409   0.45881   0.54639   0.00000  Uiso   1.00
C897   C     0.83294   0.41804   0.97683   0.00000  Uiso   1.00
C898   C     0.83373   0.58196   0.52317   0.00000  Uiso   1.00
H899   H     0.83164   0.57249   0.88962   0.00000  Uiso   1.00
H900   H     0.83502   0.42751   0.61037   0.00000  Uiso   1.00
H901   H     0.83164   0.42751   0.88963   0.00000  Uiso   1.00
H902   H     0.83502   0.57249   0.61037   0.00000  Uiso   1.00
H903   H     0.83268   0.38628   0.95919   0.00000  Uiso   1.00
H904   H     0.83398   0.61372   0.54081   0.00000  Uiso   1.00
H905   H     0.83398   0.38628   0.54081   0.00000  Uiso   1.00
H906   H     0.83268   0.61372   0.95919   0.00000  Uiso   1.00
N907   N     0.83333   0.61907   0.75000   0.00000  Uiso   1.00
N908   N     0.83333   0.38093   0.75000   0.00000  Uiso   1.00
O909   O     0.77226   0.53821   0.75000   0.00000  Uiso   1.00
O910   O     0.89441   0.46179   0.75000   0.00000  Uiso   1.00
O911   O     0.89441   0.53821   0.75000   0.00000  Uiso   1.00
O912   O     0.77226   0.46179   0.75000   0.00000  Uiso   1.00
O913   O     0.83333   0.53823   0.68392   0.00000  Uiso   1.00
O914   O     0.83334   0.46177   0.81608   0.00000  Uiso   1.00
O915   O     0.83334   0.53823   0.81608   0.00000  Uiso   1.00
O916   O     0.83333   0.46177   0.68392   0.00000  Uiso   1.00
Zn917  Zn    0.83333   0.55104   0.75000   0.00000  Uiso   1.00
Zn918  Zn    0.83333   0.44896   0.75000   0.00000  Uiso   1.00
C919   C     0.70668   0.41695   0.77111   0.00000  Uiso   1.00
N920   N     0.72182   0.38364   0.78328   0.00000  Uiso   1.00
C921   C     0.95999   0.58305   0.72889   0.00000  Uiso   1.00
N922   N     0.94484   0.61636   0.71672   0.00000  Uiso   1.00
C923   C     0.95999   0.41695   0.72889   0.00000  Uiso   1.00
N924   N     0.94484   0.38364   0.71672   0.00000  Uiso   1.00
C925   C     0.70668   0.58305   0.77111   0.00000  Uiso   1.00
N926   N     0.72182   0.61636   0.78328   0.00000  Uiso   1.00
I927   I     0.90083   0.39180   0.82545   0.00000  Uiso   1.00
I928   I     0.76583   0.60820   0.67455   0.00000  Uiso   1.00
I929   I     0.76583   0.39180   0.67455   0.00000  Uiso   1.00
I930   I     0.90083   0.60820   0.82545   0.00000  Uiso   1.00
C931   C     0.08699   0.83333   0.75408   0.00000  Uiso   1.00
C932   C     0.24634   0.83333   0.74592   0.00000  Uiso   1.00
C933   C     0.16706   0.75137   0.52317   0.00000  Uiso   1.00
C934   C     0.16627   0.91529   0.97683   0.00000  Uiso   1.00
C935   C     0.02088   0.79223   0.75629   0.00000  Uiso   1.00
C936   C     0.31246   0.87443   0.74371   0.00000  Uiso   1.00
C937   C     0.31246   0.79223   0.74371   0.00000  Uiso   1.00
C938   C     0.02088   0.87443   0.75629   0.00000  Uiso   1.00
C939   C     0.29081   0.83333   0.74191   0.00000  Uiso   1.00
C940   C     0.04252   0.83333   0.75809   0.00000  Uiso   1.00
C941   C     0.19271   0.69059   0.77918   0.00000  Uiso   1.00
C942   C     0.14062   0.97607   0.72082   0.00000  Uiso   1.00
C943   C     0.14062   0.69059   0.72082   0.00000  Uiso   1.00
C944   C     0.19271   0.97607   0.77918   0.00000  Uiso   1.00
C945   C     0.16699   0.83333   0.66339   0.00000  Uiso   1.00
C946   C     0.16634   0.83333   0.83661   0.00000  Uiso   1.00
C947   C     0.16539   0.87421   0.90751   0.00000  Uiso   1.00
C948   C     0.16794   0.79246   0.59249   0.00000  Uiso   1.00
C949   C     0.16563   0.83333   0.88458   0.00000  Uiso   1.00
C950   C     0.16770   0.83333   0.61542   0.00000  Uiso   1.00
C951   C     0.16539   0.79246   0.90751   0.00000  Uiso   1.00
C952   C     0.16794   0.87421   0.59249   0.00000  Uiso   1.00
C953   C     0.16591   0.79214   0.95361   0.00000  Uiso   1.00
C954   C     0.16742   0.87452   0.54639   0.00000  Uiso   1.00
C955   C     0.16629   0.83333   0.97681   0.00000  Uiso   1.00
C956   C     0.16704   0.83333   0.52319   0.00000  Uiso   1.00
C957   C     0.16591   0.87452   0.95361   0.00000  Uiso   1.00
C958   C     0.16742   0.79214   0.54639   0.00000  Uiso   1.00
C959   C     0.16627   0.75137   0.97683   0.00000  Uiso   1.00
C960   C     0.16706   0.91529   0.52317   0.00000  Uiso   1.00
H961   H     0.16498   0.90582   0.88962   0.00000  Uiso   1.00
H962   H     0.16836   0.76084   0.61037   0.00000  Uiso   1.00
H963   H     0.16498   0.76084   0.88963   0.00000  Uiso   1.00
H964   H     0.16836   0.90582   0.61037   0.00000  Uiso   1.00
H965   H     0.16602   0.71962   0.95919   0.00000  Uiso   1.00
H966   H     0.16732   0.94705   0.54081   0.00000  Uiso   1.00
H967   H     0.16732   0.71962   0.54081   0.00000  Uiso   1.00
H968   H     0.16602   0.94705   0.95919   0.00000  Uiso   1.00
N969   N     0.16667   0.95240   0.75000   0.00000  Uiso   1.00
N970   N     0.16667   0.71427   0.75000   0.00000  Uiso   1.00
O971   O     0.10559   0.87154   0.75000   0.00000  Uiso   1.00
O972   O     0.22774   0.79513   0.75000   0.00000  Uiso   1.00
O973   O     0.22774   0.87154   0.75000   0.00000  Uiso   1.00
O974   O     0.10559   0.79513   0.75000   0.00000  Uiso   1.00
O975   O     0.16666   0.87156   0.68392   0.00000  Uiso   1.00
O976   O     0.16667   0.79511   0.81608   0.00000  Uiso   1.00
O977   O     0.16667   0.87156   0.81608   0.00000  Uiso   1.00
O978   O     0.16666   0.79511   0.68392   0.00000  Uiso   1.00
Zn979  Zn    0.16667   0.88437   0.75000   0.00000  Uiso   1.00
Zn980  Zn    0.16667   0.78229   0.75000   0.00000  Uiso   1.00
C981   C     0.04001   0.75028   0.77111   0.00000  Uiso   1.00
N982   N     0.05516   0.71697   0.78328   0.00000  Uiso   1.00
C983   C     0.29332   0.91638   0.72889   0.00000  Uiso   1.00
N984   N     0.27818   0.94969   0.71672   0.00000  Uiso   1.00
C985   C     0.29332   0.75028   0.72889   0.00000  Uiso   1.00
N986   N     0.27818   0.71697   0.71672   0.00000  Uiso   1.00
C987   C     0.04001   0.91639   0.77111   0.00000  Uiso   1.00
N988   N     0.05516   0.94969   0.78328   0.00000  Uiso   1.00
I989   I     0.23417   0.72513   0.82545   0.00000  Uiso   1.00
I990   I     0.09917   0.94154   0.67455   0.00000  Uiso   1.00
I991   I     0.09917   0.72513   0.67455   0.00000  Uiso   1.00
I992   I     0.23417   0.94153   0.82545   0.00000  Uiso   1.00
C993   C     0.42033   0.83333   0.75408   0.00000  Uiso   1.00
C994   C     0.57967   0.83333   0.74592   0.00000  Uiso   1.00
C995   C     0.50040   0.75137   0.52317   0.00000  Uiso   1.00
C996   C     0.49960   0.91529   0.97683   0.00000  Uiso   1.00
C997   C     0.35421   0.79223   0.75629   0.00000  Uiso   1.00
C998   C     0.64579   0.87443   0.74371   0.00000  Uiso   1.00
C999   C     0.64579   0.79223   0.74371   0.00000  Uiso   1.00
C1000  C     0.35421   0.87443   0.75629   0.00000  Uiso   1.00
C1001  C     0.62415   0.83333   0.74191   0.00000  Uiso   1.00
C1002  C     0.37585   0.83333   0.75809   0.00000  Uiso   1.00
C1003  C     0.52605   0.69059   0.77918   0.00000  Uiso   1.00
C1004  C     0.47396   0.97607   0.72082   0.00000  Uiso   1.00
C1005  C     0.47396   0.69059   0.72082   0.00000  Uiso   1.00
C1006  C     0.52605   0.97607   0.77918   0.00000  Uiso   1.00
C1007  C     0.50033   0.83333   0.66339   0.00000  Uiso   1.00
C1008  C     0.49967   0.83333   0.83661   0.00000  Uiso   1.00
C1009  C     0.49873   0.87421   0.90751   0.00000  Uiso   1.00
C1010  C     0.50127   0.79246   0.59249   0.00000  Uiso   1.00
C1011  C     0.49897   0.83333   0.88458   0.00000  Uiso   1.00
C1012  C     0.50103   0.83333   0.61542   0.00000  Uiso   1.00
C1013  C     0.49873   0.79246   0.90751   0.00000  Uiso   1.00
C1014  C     0.50127   0.87421   0.59249   0.00000  Uiso   1.00
C1015  C     0.49924   0.79214   0.95361   0.00000  Uiso   1.00
C1016  C     0.50076   0.87452   0.54639   0.00000  Uiso   1.00
C1017  C     0.49962   0.83333   0.97681   0.00000  Uiso   1.00
C1018  C     0.50038   0.83333   0.52319   0.00000  Uiso   1.00
C1019  C     0.49924   0.87452   0.95361   0.00000  Uiso   1.00
C1020  C     0.50076   0.79214   0.54639   0.00000  Uiso   1.00
C1021  C     0.49960   0.75137   0.97683   0.00000  Uiso   1.00
C1022  C     0.50040   0.91529   0.52317   0.00000  Uiso   1.00
H1023  H     0.49831   0.90582   0.88962   0.00000  Uiso   1.00
H1024  H     0.50169   0.76084   0.61037   0.00000  Uiso   1.00
H1025  H     0.49831   0.76084   0.88963   0.00000  Uiso   1.00
H1026  H     0.50169   0.90582   0.61037   0.00000  Uiso   1.00
H1027  H     0.49935   0.71962   0.95919   0.00000  Uiso   1.00
H1028  H     0.50065   0.94705   0.54081   0.00000  Uiso   1.00
H1029  H     0.50065   0.71962   0.54081   0.00000  Uiso   1.00
H1030  H     0.49935   0.94705   0.95919   0.00000  Uiso   1.00
N1031  N     0.50000   0.95240   0.75000   0.00000  Uiso   1.00
N1032  N     0.50000   0.71427   0.75000   0.00000  Uiso   1.00
O1033  O     0.43892   0.87154   0.75000   0.00000  Uiso   1.00
O1034  O     0.56108   0.79513   0.75000   0.00000  Uiso   1.00
O1035  O     0.56108   0.87154   0.75000   0.00000  Uiso   1.00
O1036  O     0.43892   0.79513   0.75000   0.00000  Uiso   1.00
O1037  O     0.49999   0.87156   0.68392   0.00000  Uiso   1.00
O1038  O     0.50001   0.79511   0.81608   0.00000  Uiso   1.00
O1039  O     0.50001   0.87156   0.81608   0.00000  Uiso   1.00
O1040  O     0.49999   0.79511   0.68392   0.00000  Uiso   1.00
Zn1041 Zn    0.50000   0.88437   0.75000   0.00000  Uiso   1.00
Zn1042 Zn    0.50000   0.78229   0.75000   0.00000  Uiso   1.00
C1043  C     0.37334   0.75028   0.77111   0.00000  Uiso   1.00
N1044  N     0.38849   0.71697   0.78328   0.00000  Uiso   1.00
C1045  C     0.62666   0.91638   0.72889   0.00000  Uiso   1.00
N1046  N     0.61151   0.94969   0.71672   0.00000  Uiso   1.00
C1047  C     0.62666   0.75028   0.72889   0.00000  Uiso   1.00
N1048  N     0.61151   0.71697   0.71672   0.00000  Uiso   1.00
C1049  C     0.37334   0.91639   0.77111   0.00000  Uiso   1.00
N1050  N     0.38849   0.94969   0.78328   0.00000  Uiso   1.00
I1051  I     0.56750   0.72513   0.82545   0.00000  Uiso   1.00
I1052  I     0.43250   0.94154   0.67455   0.00000  Uiso   1.00
I1053  I     0.43250   0.72513   0.67455   0.00000  Uiso   1.00
I1054  I     0.56750   0.94153   0.82545   0.00000  Uiso   1.00
C1055  C     0.75366   0.83333   0.75408   0.00000  Uiso   1.00
C1056  C     0.91301   0.83333   0.74592   0.00000  Uiso   1.00
C1057  C     0.83373   0.75137   0.52317   0.00000  Uiso   1.00
C1058  C     0.83294   0.91529   0.97683   0.00000  Uiso   1.00
C1059  C     0.68754   0.79223   0.75629   0.00000  Uiso   1.00
C1060  C     0.97912   0.87443   0.74371   0.00000  Uiso   1.00
C1061  C     0.97912   0.79223   0.74371   0.00000  Uiso   1.00
C1062  C     0.68754   0.87443   0.75629   0.00000  Uiso   1.00
C1063  C     0.95748   0.83333   0.74191   0.00000  Uiso   1.00
C1064  C     0.70919   0.83333   0.75809   0.00000  Uiso   1.00
C1065  C     0.85938   0.69059   0.77918   0.00000  Uiso   1.00
C1066  C     0.80729   0.97607   0.72082   0.00000  Uiso   1.00
C1067  C     0.80729   0.69059   0.72082   0.00000  Uiso   1.00
C1068  C     0.85938   0.97607   0.77918   0.00000  Uiso   1.00
C1069  C     0.83366   0.83333   0.66339   0.00000  Uiso   1.00
C1070  C     0.83301   0.83333   0.83661   0.00000  Uiso   1.00
C1071  C     0.83206   0.87421   0.90751   0.00000  Uiso   1.00
C1072  C     0.83461   0.79246   0.59249   0.00000  Uiso   1.00
C1073  C     0.83230   0.83333   0.88458   0.00000  Uiso   1.00
C1074  C     0.83437   0.83333   0.61542   0.00000  Uiso   1.00
C1075  C     0.83206   0.79246   0.90751   0.00000  Uiso   1.00
C1076  C     0.83461   0.87421   0.59249   0.00000  Uiso   1.00
C1077  C     0.83258   0.79214   0.95361   0.00000  Uiso   1.00
C1078  C     0.83409   0.87452   0.54639   0.00000  Uiso   1.00
C1079  C     0.83296   0.83333   0.97681   0.00000  Uiso   1.00
C1080  C     0.83371   0.83333   0.52319   0.00000  Uiso   1.00
C1081  C     0.83258   0.87452   0.95361   0.00000  Uiso   1.00
C1082  C     0.83409   0.79214   0.54639   0.00000  Uiso   1.00
C1083  C     0.83294   0.75137   0.97683   0.00000  Uiso   1.00
C1084  C     0.83373   0.91529   0.52317   0.00000  Uiso   1.00
H1085  H     0.83164   0.90582   0.88962   0.00000  Uiso   1.00
H1086  H     0.83502   0.76084   0.61037   0.00000  Uiso   1.00
H1087  H     0.83164   0.76084   0.88963   0.00000  Uiso   1.00
H1088  H     0.83502   0.90582   0.61037   0.00000  Uiso   1.00
H1089  H     0.83268   0.71962   0.95919   0.00000  Uiso   1.00
H1090  H     0.83398   0.94705   0.54081   0.00000  Uiso   1.00
H1091  H     0.83398   0.71962   0.54081   0.00000  Uiso   1.00
H1092  H     0.83268   0.94705   0.95919   0.00000  Uiso   1.00
N1093  N     0.83333   0.95240   0.75000   0.00000  Uiso   1.00
N1094  N     0.83333   0.71427   0.75000   0.00000  Uiso   1.00
O1095  O     0.77226   0.87154   0.75000   0.00000  Uiso   1.00
O1096  O     0.89441   0.79513   0.75000   0.00000  Uiso   1.00
O1097  O     0.89441   0.87154   0.75000   0.00000  Uiso   1.00
O1098  O     0.77226   0.79513   0.75000   0.00000  Uiso   1.00
O1099  O     0.83333   0.87156   0.68392   0.00000  Uiso   1.00
O1100  O     0.83334   0.79511   0.81608   0.00000  Uiso   1.00
O1101  O     0.83334   0.87156   0.81608   0.00000  Uiso   1.00
O1102  O     0.83333   0.79511   0.68392   0.00000  Uiso   1.00
Zn1103 Zn    0.83333   0.88437   0.75000   0.00000  Uiso   1.00
Zn1104 Zn    0.83333   0.78229   0.75000   0.00000  Uiso   1.00
C1105  C     0.70668   0.75028   0.77111   0.00000  Uiso   1.00
N1106  N     0.72182   0.71697   0.78328   0.00000  Uiso   1.00
C1107  C     0.95999   0.91638   0.72889   0.00000  Uiso   1.00
N1108  N     0.94484   0.94969   0.71672   0.00000  Uiso   1.00
C1109  C     0.95999   0.75028   0.72889   0.00000  Uiso   1.00
N1110  N     0.94484   0.71697   0.71672   0.00000  Uiso   1.00
C1111  C     0.70668   0.91639   0.77111   0.00000  Uiso   1.00
N1112  N     0.72182   0.94969   0.78328   0.00000  Uiso   1.00
I1113  I     0.90083   0.72513   0.82545   0.00000  Uiso   1.00
I1114  I     0.76583   0.94154   0.67455   0.00000  Uiso   1.00
I1115  I     0.76583   0.72513   0.67455   0.00000  Uiso   1.00
I1116  I     0.90083   0.94153   0.82545   0.00000  Uiso   1.00
loop_
_geom_bond_atom_site_label_1
_geom_bond_atom_site_label_2
_geom_bond_distance
_geom_bond_site_symmetry_2
_ccdc_geom_bond_type
C1     O44     1.296   .     A
C1     C10     1.449   .     S
C1     O41     1.296   .     A
C2     O43     1.296   .     A
C2     O42     1.296   .     A
C2     C9      1.449   .     S
C3     C28     1.400   .     A
C3     H37     1.084   .     S
C3     C587    1.389   1_554 S
C4     C27     1.400   .     A
C4     H38     1.084   .     S
C4     C588    1.389   .     S
C5     C10     1.410   .     A
C5     C51     1.453   .     S
C5     C131    1.381   1_455 S
C6     C53     1.453   .     S
C6     C9      1.410   .     A
C6     C70     1.381   .     S
C7     C55     1.453   .     S
C7     C9      1.410   .     A
C7     C67     1.381   .     S
C8     C57     1.453   .     S
C8     C10     1.410   .     A
C8     C130    1.381   1_455 S
C11    I59     2.139   .     S
C11    N40     1.376   .     A
C11    C386    1.426   1_545 S
C12    N39     1.376   .     A
C12    I60     2.139   .     S
C12    C199    1.426   .     S
C13    I61     2.139   .     S
C13    N40     1.376   .     A
C13    C384    1.426   1_545 S
C14    I62     2.139   .     S
C14    N39     1.376   .     A
C14    C197    1.426   .     S
C15    C20     1.441   .     S
C15    O48     1.295   .     A
C15    O45     1.295   .     A
C16    C19     1.441   .     S
C16    O47     1.295   .     A
C16    O46     1.295   .     A
C17    C19     1.399   .     A
C17    H31     1.084   .     S
C17    C27     1.383   .     A
C18    C20     1.399   .     A
C18    H32     1.084   .     S
C18    C28     1.383   .     A
C19    C21     1.399   .     A
C20    C22     1.399   .     A
C21    H33     1.084   .     S
C21    C23     1.383   .     A
C22    H34     1.084   .     S
C22    C24     1.383   .     A
C23    C29     1.400   .     A
C23    C25     1.411   .     A
C24    C30     1.400   .     A
C24    C26     1.411   .     A
C25    C27     1.411   .     A
C25    C584    1.391   .     S
C26    C28     1.411   .     A
C26    C583    1.391   1_554 S
C29    H35     1.084   .     S
C29    C561    1.389   .     S
C30    H36     1.084   .     S
C30    C562    1.389   1_554 S
N39    Zn49    2.027   .     S
N40    Zn50    2.027   .     S
O41    Zn49    2.011   .     S
O42    Zn50    2.011   .     S
O43    Zn49    2.011   .     S
O44    Zn50    2.011   .     S
O45    Zn49    2.019   .     S
O46    Zn50    2.019   .     S
O47    Zn49    2.019   .     S
O48    Zn50    2.019   .     S
C51    N52     1.157   .     T
C53    N54     1.157   .     T
C55    N56     1.157   .     T
C57    N58     1.157   .     T
C63    O106    1.296   .     A
C63    C72     1.449   .     S
C63    O103    1.296   .     A
C64    O105    1.296   .     A
C64    O104    1.296   .     A
C64    C71     1.449   .     S
C65    C90     1.400   .     A
C65    H99     1.084   .     S
C65    C649    1.389   1_554 S
C66    C89     1.400   .     A
C66    H100    1.084   .     S
C66    C650    1.389   .     S
C67    C72     1.410   .     A
C67    C113    1.453   .     S
C68    C115    1.453   .     S
C68    C71     1.410   .     A
C68    C132    1.381   .     S
C69    C117    1.453   .     S
C69    C71     1.410   .     A
C69    C129    1.381   .     S
C70    C119    1.453   .     S
C70    C72     1.410   .     A
C73    I121    2.139   .     S
C73    N102    1.376   .     A
C73    C448    1.426   1_545 S
C74    N101    1.376   .     A
C74    I122    2.139   .     S
C74    C261    1.426   .     S
C75    I123    2.139   .     S
C75    N102    1.376   .     A
C75    C446    1.426   1_545 S
C76    I124    2.139   .     S
C76    N101    1.376   .     A
C76    C259    1.426   .     S
C77    C82     1.441   .     S
C77    O110    1.295   .     A
C77    O107    1.295   .     A
C78    C81     1.441   .     S
C78    O109    1.295   .     A
C78    O108    1.295   .     A
C79    C81     1.399   .     A
C79    H93     1.084   .     S
C79    C89     1.383   .     A
C80    C82     1.399   .     A
C80    H94     1.084   .     S
C80    C90     1.383   .     A
C81    C83     1.399   .     A
C82    C84     1.399   .     A
C83    H95     1.084   .     S
C83    C85     1.383   .     A
C84    H96     1.084   .     S
C84    C86     1.383   .     A
C85    C91     1.400   .     A
C85    C87     1.411   .     A
C86    C92     1.400   .     A
C86    C88     1.411   .     A
C87    C89     1.411   .     A
C87    C646    1.391   .     S
C88    C90     1.411   .     A
C88    C645    1.391   1_554 S
C91    H97     1.084   .     S
C91    C623    1.389   .     S
C92    H98     1.084   .     S
C92    C624    1.389   1_554 S
N101   Zn111   2.027   .     S
N102   Zn112   2.027   .     S
O103   Zn111   2.011   .     S
O104   Zn112   2.011   .     S
O105   Zn111   2.011   .     S
O106   Zn112   2.011   .     S
O107   Zn111   2.019   .     S
O108   Zn112   2.019   .     S
O109   Zn111   2.019   .     S
O110   Zn112   2.019   .     S
C113   N114    1.157   .     T
C115   N116    1.157   .     T
C117   N118    1.157   .     T
C119   N120    1.157   .     T
C125   O168    1.296   .     A
C125   C134    1.449   .     S
C125   O165    1.296   .     A
C126   O167    1.296   .     A
C126   O166    1.296   .     A
C126   C133    1.449   .     S
C127   C152    1.400   .     A
C127   H161    1.084   .     S
C127   C711    1.389   1_554 S
C128   C151    1.400   .     A
C128   H162    1.084   .     S
C128   C712    1.389   .     S
C129   C134    1.410   .     A
C129   C175    1.453   .     S
C130   C177    1.453   .     S
C130   C133    1.410   .     A
C130   C8      1.381   1_655 S
C131   C179    1.453   .     S
C131   C133    1.410   .     A
C131   C5      1.381   1_655 S
C132   C181    1.453   .     S
C132   C134    1.410   .     A
C135   I183    2.139   .     S
C135   N164    1.376   .     A
C135   C510    1.426   1_545 S
C136   N163    1.376   .     A
C136   I184    2.139   .     S
C136   C323    1.426   .     S
C137   I185    2.139   .     S
C137   N164    1.376   .     A
C137   C508    1.426   1_545 S
C138   I186    2.139   .     S
C138   N163    1.376   .     A
C138   C321    1.426   .     S
C139   C144    1.441   .     S
C139   O172    1.295   .     A
C139   O169    1.295   .     A
C140   C143    1.441   .     S
C140   O171    1.295   .     A
C140   O170    1.295   .     A
C141   C143    1.399   .     A
C141   H155    1.084   .     S
C141   C151    1.383   .     A
C142   C144    1.399   .     A
C142   H156    1.084   .     S
C142   C152    1.383   .     A
C143   C145    1.399   .     A
C144   C146    1.399   .     A
C145   H157    1.084   .     S
C145   C147    1.383   .     A
C146   H158    1.084   .     S
C146   C148    1.383   .     A
C147   C153    1.400   .     A
C147   C149    1.411   .     A
C148   C154    1.400   .     A
C148   C150    1.411   .     A
C149   C151    1.411   .     A
C149   C708    1.391   .     S
C150   C152    1.411   .     A
C150   C707    1.391   1_554 S
C153   H159    1.084   .     S
C153   C685    1.389   .     S
C154   H160    1.084   .     S
C154   C686    1.389   1_554 S
N163   Zn173   2.027   .     S
N164   Zn174   2.027   .     S
O165   Zn173   2.011   .     S
O166   Zn174   2.011   .     S
O167   Zn173   2.011   .     S
O168   Zn174   2.011   .     S
O169   Zn173   2.019   .     S
O170   Zn174   2.019   .     S
O171   Zn173   2.019   .     S
O172   Zn174   2.019   .     S
C175   N176    1.157   .     T
C177   N178    1.157   .     T
C179   N180    1.157   .     T
C181   N182    1.157   .     T
C187   O230    1.296   .     A
C187   C196    1.449   .     S
C187   O227    1.296   .     A
C188   O229    1.296   .     A
C188   O228    1.296   .     A
C188   C195    1.449   .     S
C189   C214    1.400   .     A
C189   H223    1.084   .     S
C189   C773    1.389   1_554 S
C190   C213    1.400   .     A
C190   H224    1.084   .     S
C190   C774    1.389   .     S
C191   C196    1.410   .     A
C191   C237    1.453   .     S
C191   C317    1.381   1_455 S
C192   C239    1.453   .     S
C192   C195    1.410   .     A
C192   C256    1.381   .     S
C193   C241    1.453   .     S
C193   C195    1.410   .     A
C193   C253    1.381   .     S
C194   C243    1.453   .     S
C194   C196    1.410   .     A
C194   C316    1.381   1_455 S
C197   I245    2.139   .     S
C197   N226    1.376   .     A
C198   N225    1.376   .     A
C198   I246    2.139   .     S
C198   C385    1.426   .     S
C199   I247    2.139   .     S
C199   N226    1.376   .     A
C200   I248    2.139   .     S
C200   N225    1.376   .     A
C200   C383    1.426   .     S
C201   C206    1.441   .     S
C201   O234    1.295   .     A
C201   O231    1.295   .     A
C202   C205    1.441   .     S
C202   O233    1.295   .     A
C202   O232    1.295   .     A
C203   C205    1.399   .     A
C203   H217    1.084   .     S
C203   C213    1.383   .     A
C204   C206    1.399   .     A
C204   H218    1.084   .     S
C204   C214    1.383   .     A
C205   C207    1.399   .     A
C206   C208    1.399   .     A
C207   H219    1.084   .     S
C207   C209    1.383   .     A
C208   H220    1.084   .     S
C208   C210    1.383   .     A
C209   C215    1.400   .     A
C209   C211    1.411   .     A
C210   C216    1.400   .     A
C210   C212    1.411   .     A
C211   C213    1.411   .     A
C211   C770    1.391   .     S
C212   C214    1.411   .     A
C212   C769    1.391   1_554 S
C215   H221    1.084   .     S
C215   C747    1.389   .     S
C216   H222    1.084   .     S
C216   C748    1.389   1_554 S
N225   Zn235   2.027   .     S
N226   Zn236   2.027   .     S
O227   Zn235   2.011   .     S
O228   Zn236   2.011   .     S
O229   Zn235   2.011   .     S
O230   Zn236   2.011   .     S
O231   Zn235   2.019   .     S
O232   Zn236   2.019   .     S
O233   Zn235   2.019   .     S
O234   Zn236   2.019   .     S
C237   N238    1.157   .     T
C239   N240    1.157   .     T
C241   N242    1.157   .     T
C243   N244    1.157   .     T
C249   O292    1.296   .     A
C249   C258    1.449   .     S
C249   O289    1.296   .     A
C250   O291    1.296   .     A
C250   O290    1.296   .     A
C250   C257    1.449   .     S
C251   C276    1.400   .     A
C251   H285    1.084   .     S
C251   C835    1.389   1_554 S
C252   C275    1.400   .     A
C252   H286    1.084   .     S
C252   C836    1.389   .     S
C253   C258    1.410   .     A
C253   C299    1.453   .     S
C254   C301    1.453   .     S
C254   C257    1.410   .     A
C254   C318    1.381   .     S
C255   C303    1.453   .     S
C255   C257    1.410   .     A
C255   C315    1.381   .     S
C256   C305    1.453   .     S
C256   C258    1.410   .     A
C259   I307    2.139   .     S
C259   N288    1.376   .     A
C260   N287    1.376   .     A
C260   I308    2.139   .     S
C260   C447    1.426   .     S
C261   I309    2.139   .     S
C261   N288    1.376   .     A
C262   I310    2.139   .     S
C262   N287    1.376   .     A
C262   C445    1.426   .     S
C263   C268    1.441   .     S
C263   O296    1.295   .     A
C263   O293    1.295   .     A
C264   C267    1.441   .     S
C264   O295    1.295   .     A
C264   O294    1.295   .     A
C265   C267    1.399   .     A
C265   H279    1.084   .     S
C265   C275    1.383   .     A
C266   C268    1.399   .     A
C266   H280    1.084   .     S
C266   C276    1.383   .     A
C267   C269    1.399   .     A
C268   C270    1.399   .     A
C269   H281    1.084   .     S
C269   C271    1.383   .     A
C270   H282    1.084   .     S
C270   C272    1.383   .     A
C271   C277    1.400   .     A
C271   C273    1.411   .     A
C272   C278    1.400   .     A
C272   C274    1.411   .     A
C273   C275    1.411   .     A
C273   C832    1.391   .     S
C274   C276    1.411   .     A
C274   C831    1.391   1_554 S
C277   H283    1.084   .     S
C277   C809    1.389   .     S
C278   H284    1.084   .     S
C278   C810    1.389   1_554 S
N287   Zn297   2.027   .     S
N288   Zn298   2.027   .     S
O289   Zn297   2.011   .     S
O290   Zn298   2.011   .     S
O291   Zn297   2.011   .     S
O292   Zn298   2.011   .     S
O293   Zn297   2.019   .     S
O294   Zn298   2.019   .     S
O295   Zn297   2.019   .     S
O296   Zn298   2.019   .     S
C299   N300    1.157   .     T
C301   N302    1.157   .     T
C303   N304    1.157   .     T
C305   N306    1.157   .     T
C311   O354    1.296   .     A
C311   C320    1.449   .     S
C311   O351    1.296   .     A
C312   O353    1.296   .     A
C312   O352    1.296   .     A
C312   C319    1.449   .     S
C313   C338    1.400   .     A
C313   H347    1.084   .     S
C313   C897    1.389   1_554 S
C314   C337    1.400   .     A
C314   H348    1.084   .     S
C314   C898    1.389   .     S
C315   C320    1.410   .     A
C315   C361    1.453   .     S
C316   C363    1.453   .     S
C316   C319    1.410   .     A
C316   C194    1.381   1_655 S
C317   C365    1.453   .     S
C317   C319    1.410   .     A
C317   C191    1.381   1_655 S
C318   C367    1.453   .     S
C318   C320    1.410   .     A
C321   I369    2.139   .     S
C321   N350    1.376   .     A
C322   N349    1.376   .     A
C322   I370    2.139   .     S
C322   C509    1.426   .     S
C323   I371    2.139   .     S
C323   N350    1.376   .     A
C324   I372    2.139   .     S
C324   N349    1.376   .     A
C324   C507    1.426   .     S
C325   C330    1.441   .     S
C325   O358    1.295   .     A
C325   O355    1.295   .     A
C326   C329    1.441   .     S
C326   O357    1.295   .     A
C326   O356    1.295   .     A
C327   C329    1.399   .     A
C327   H341    1.084   .     S
C327   C337    1.383   .     A
C328   C330    1.399   .     A
C328   H342    1.084   .     S
C328   C338    1.383   .     A
C329   C331    1.399   .     A
C330   C332    1.399   .     A
C331   H343    1.084   .     S
C331   C333    1.383   .     A
C332   H344    1.084   .     S
C332   C334    1.383   .     A
C333   C339    1.400   .     A
C333   C335    1.411   .     A
C334   C340    1.400   .     A
C334   C336    1.411   .     A
C335   C337    1.411   .     A
C335   C894    1.391   .     S
C336   C338    1.411   .     A
C336   C893    1.391   1_554 S
C339   H345    1.084   .     S
C339   C871    1.389   .     S
C340   H346    1.084   .     S
C340   C872    1.389   1_554 S
N349   Zn359   2.027   .     S
N350   Zn360   2.027   .     S
O351   Zn359   2.011   .     S
O352   Zn360   2.011   .     S
O353   Zn359   2.011   .     S
O354   Zn360   2.011   .     S
O355   Zn359   2.019   .     S
O356   Zn360   2.019   .     S
O357   Zn359   2.019   .     S
O358   Zn360   2.019   .     S
C361   N362    1.157   .     T
C363   N364    1.157   .     T
C365   N366    1.157   .     T
C367   N368    1.157   .     T
C373   O416    1.296   .     A
C373   C382    1.449   .     S
C373   O413    1.296   .     A
C374   O415    1.296   .     A
C374   O414    1.296   .     A
C374   C381    1.449   .     S
C375   C400    1.400   .     A
C375   H409    1.084   .     S
C375   C959    1.389   1_554 S
C376   C399    1.400   .     A
C376   H410    1.084   .     S
C376   C960    1.389   .     S
C377   C382    1.410   .     A
C377   C423    1.453   .     S
C377   C503    1.381   1_455 S
C378   C425    1.453   .     S
C378   C381    1.410   .     A
C378   C442    1.381   .     S
C379   C427    1.453   .     S
C379   C381    1.410   .     A
C379   C439    1.381   .     S
C380   C429    1.453   .     S
C380   C382    1.410   .     A
C380   C502    1.381   1_455 S
C383   I431    2.139   .     S
C383   N412    1.376   .     A
C384   N411    1.376   .     A
C384   I432    2.139   .     S
C384   C13     1.426   1_565 S
C385   I433    2.139   .     S
C385   N412    1.376   .     A
C386   I434    2.139   .     S
C386   N411    1.376   .     A
C386   C11     1.426   1_565 S
C387   C392    1.441   .     S
C387   O420    1.295   .     A
C387   O417    1.295   .     A
C388   C391    1.441   .     S
C388   O419    1.295   .     A
C388   O418    1.295   .     A
C389   C391    1.399   .     A
C389   H403    1.084   .     S
C389   C399    1.383   .     A
C390   C392    1.399   .     A
C390   H404    1.084   .     S
C390   C400    1.383   .     A
C391   C393    1.399   .     A
C392   C394    1.399   .     A
C393   H405    1.084   .     S
C393   C395    1.383   .     A
C394   H406    1.084   .     S
C394   C396    1.383   .     A
C395   C401    1.400   .     A
C395   C397    1.411   .     A
C396   C402    1.400   .     A
C396   C398    1.411   .     A
C397   C399    1.411   .     A
C397   C956    1.391   .     S
C398   C400    1.411   .     A
C398   C955    1.391   1_554 S
C401   H407    1.084   .     S
C401   C933    1.389   .     S
C402   H408    1.084   .     S
C402   C934    1.389   1_554 S
N411   Zn421   2.027   .     S
N412   Zn422   2.027   .     S
O413   Zn421   2.011   .     S
O414   Zn422   2.011   .     S
O415   Zn421   2.011   .     S
O416   Zn422   2.011   .     S
O417   Zn421   2.019   .     S
O418   Zn422   2.019   .     S
O419   Zn421   2.019   .     S
O420   Zn422   2.019   .     S
C423   N424    1.157   .     T
C425   N426    1.157   .     T
C427   N428    1.157   .     T
C429   N430    1.157   .     T
C435   O478    1.296   .     A
C435   C444    1.449   .     S
C435   O475    1.296   .     A
C436   O477    1.296   .     A
C436   O476    1.296   .     A
C436   C443    1.449   .     S
C437   C462    1.400   .     A
C437   H471    1.084   .     S
C437   C1021   1.389   1_554 S
C438   C461    1.400   .     A
C438   H472    1.084   .     S
C438   C1022   1.389   .     S
C439   C444    1.410   .     A
C439   C485    1.453   .     S
C440   C487    1.453   .     S
C440   C443    1.410   .     A
C440   C504    1.381   .     S
C441   C489    1.453   .     S
C441   C443    1.410   .     A
C441   C501    1.381   .     S
C442   C491    1.453   .     S
C442   C444    1.410   .     A
C445   I493    2.139   .     S
C445   N474    1.376   .     A
C446   N473    1.376   .     A
C446   I494    2.139   .     S
C446   C75     1.426   1_565 S
C447   I495    2.139   .     S
C447   N474    1.376   .     A
C448   I496    2.139   .     S
C448   N473    1.376   .     A
C448   C73     1.426   1_565 S
C449   C454    1.441   .     S
C449   O482    1.295   .     A
C449   O479    1.295   .     A
C450   C453    1.441   .     S
C450   O481    1.295   .     A
C450   O480    1.295   .     A
C451   C453    1.399   .     A
C451   H465    1.084   .     S
C451   C461    1.383   .     A
C452   C454    1.399   .     A
C452   H466    1.084   .     S
C452   C462    1.383   .     A
C453   C455    1.399   .     A
C454   C456    1.399   .     A
C455   H467    1.084   .     S
C455   C457    1.383   .     A
C456   H468    1.084   .     S
C456   C458    1.383   .     A
C457   C463    1.400   .     A
C457   C459    1.411   .     A
C458   C464    1.400   .     A
C458   C460    1.411   .     A
C459   C461    1.411   .     A
C459   C1018   1.391   .     S
C460   C462    1.411   .     A
C460   C1017   1.391   1_554 S
C463   H469    1.084   .     S
C463   C995    1.389   .     S
C464   H470    1.084   .     S
C464   C996    1.389   1_554 S
N473   Zn483   2.027   .     S
N474   Zn484   2.027   .     S
O475   Zn483   2.011   .     S
O476   Zn484   2.011   .     S
O477   Zn483   2.011   .     S
O478   Zn484   2.011   .     S
O479   Zn483   2.019   .     S
O480   Zn484   2.019   .     S
O481   Zn483   2.019   .     S
O482   Zn484   2.019   .     S
C485   N486    1.157   .     T
C487   N488    1.157   .     T
C489   N490    1.157   .     T
C491   N492    1.157   .     T
C497   O540    1.296   .     A
C497   C506    1.449   .     S
C497   O537    1.296   .     A
C498   O539    1.296   .     A
C498   O538    1.296   .     A
C498   C505    1.449   .     S
C499   C524    1.400   .     A
C499   H533    1.084   .     S
C499   C1083   1.389   1_554 S
C500   C523    1.400   .     A
C500   H534    1.084   .     S
C500   C1084   1.389   .     S
C501   C506    1.410   .     A
C501   C547    1.453   .     S
C502   C549    1.453   .     S
C502   C505    1.410   .     A
C502   C380    1.381   1_655 S
C503   C551    1.453   .     S
C503   C505    1.410   .     A
C503   C377    1.381   1_655 S
C504   C553    1.453   .     S
C504   C506    1.410   .     A
C507   I555    2.139   .     S
C507   N536    1.376   .     A
C508   N535    1.376   .     A
C508   I556    2.139   .     S
C508   C137    1.426   1_565 S
C509   I557    2.139   .     S
C509   N536    1.376   .     A
C510   I558    2.139   .     S
C510   N535    1.376   .     A
C510   C135    1.426   1_565 S
C511   C516    1.441   .     S
C511   O544    1.295   .     A
C511   O541    1.295   .     A
C512   C515    1.441   .     S
C512   O543    1.295   .     A
C512   O542    1.295   .     A
C513   C515    1.399   .     A
C513   H527    1.084   .     S
C513   C523    1.383   .     A
C514   C516    1.399   .     A
C514   H528    1.084   .     S
C514   C524    1.383   .     A
C515   C517    1.399   .     A
C516   C518    1.399   .     A
C517   H529    1.084   .     S
C517   C519    1.383   .     A
C518   H530    1.084   .     S
C518   C520    1.383   .     A
C519   C525    1.400   .     A
C519   C521    1.411   .     A
C520   C526    1.400   .     A
C520   C522    1.411   .     A
C521   C523    1.411   .     A
C521   C1080   1.391   .     S
C522   C524    1.411   .     A
C522   C1079   1.391   1_554 S
C525   H531    1.084   .     S
C525   C1057   1.389   .     S
C526   H532    1.084   .     S
C526   C1058   1.389   1_554 S
N535   Zn545   2.027   .     S
N536   Zn546   2.027   .     S
O537   Zn545   2.011   .     S
O538   Zn546   2.011   .     S
O539   Zn545   2.011   .     S
O540   Zn546   2.011   .     S
O541   Zn545   2.019   .     S
O542   Zn546   2.019   .     S
O543   Zn545   2.019   .     S
O544   Zn546   2.019   .     S
C547   N548    1.157   .     T
C549   N550    1.157   .     T
C551   N552    1.157   .     T
C553   N554    1.157   .     T
C559   O602    1.296   .     A
C559   C568    1.449   .     S
C559   O599    1.296   .     A
C560   O601    1.296   .     A
C560   O600    1.296   .     A
C560   C567    1.449   .     S
C561   C586    1.400   .     A
C561   H595    1.084   .     S
C562   C585    1.400   .     A
C562   H596    1.084   .     S
C562   C30     1.389   1_556 S
C563   C568    1.410   .     A
C563   C609    1.453   .     S
C563   C689    1.381   1_455 S
C564   C611    1.453   .     S
C564   C567    1.410   .     A
C564   C628    1.381   .     S
C565   C613    1.453   .     S
C565   C567    1.410   .     A
C565   C625    1.381   .     S
C566   C615    1.453   .     S
C566   C568    1.410   .     A
C566   C688    1.381   1_455 S
C569   I617    2.139   .     S
C569   N598    1.376   .     A
C569   C944    1.426   1_545 S
C570   N597    1.376   .     A
C570   I618    2.139   .     S
C570   C757    1.426   .     S
C571   I619    2.139   .     S
C571   N598    1.376   .     A
C571   C942    1.426   1_545 S
C572   I620    2.139   .     S
C572   N597    1.376   .     A
C572   C755    1.426   .     S
C573   C578    1.441   .     S
C573   O606    1.295   .     A
C573   O603    1.295   .     A
C574   C577    1.441   .     S
C574   O605    1.295   .     A
C574   O604    1.295   .     A
C575   C577    1.399   .     A
C575   H589    1.084   .     S
C575   C585    1.383   .     A
C576   C578    1.399   .     A
C576   H590    1.084   .     S
C576   C586    1.383   .     A
C577   C579    1.399   .     A
C578   C580    1.399   .     A
C579   H591    1.084   .     S
C579   C581    1.383   .     A
C580   H592    1.084   .     S
C580   C582    1.383   .     A
C581   C587    1.400   .     A
C581   C583    1.411   .     A
C582   C588    1.400   .     A
C582   C584    1.411   .     A
C583   C585    1.411   .     A
C583   C26     1.391   1_556 S
C584   C586    1.411   .     A
C587   H593    1.084   .     S
C587   C3      1.389   1_556 S
C588   H594    1.084   .     S
N597   Zn607   2.027   .     S
N598   Zn608   2.027   .     S
O599   Zn607   2.011   .     S
O600   Zn608   2.011   .     S
O601   Zn607   2.011   .     S
O602   Zn608   2.011   .     S
O603   Zn607   2.019   .     S
O604   Zn608   2.019   .     S
O605   Zn607   2.019   .     S
O606   Zn608   2.019   .     S
C609   N610    1.157   .     T
C611   N612    1.157   .     T
C613   N614    1.157   .     T
C615   N616    1.157   .     T
C621   O664    1.296   .     A
C621   C630    1.449   .     S
C621   O661    1.296   .     A
C622   O663    1.296   .     A
C622   O662    1.296   .     A
C622   C629    1.449   .     S
C623   C648    1.400   .     A
C623   H657    1.084   .     S
C624   C647    1.400   .     A
C624   H658    1.084   .     S
C624   C92     1.389   1_556 S
C625   C630    1.410   .     A
C625   C671    1.453   .     S
C626   C673    1.453   .     S
C626   C629    1.410   .     A
C626   C690    1.381   .     S
C627   C675    1.453   .     S
C627   C629    1.410   .     A
C627   C687    1.381   .     S
C628   C677    1.453   .     S
C628   C630    1.410   .     A
C631   I679    2.139   .     S
C631   N660    1.376   .     A
C631   C1006   1.426   1_545 S
C632   N659    1.376   .     A
C632   I680    2.139   .     S
C632   C819    1.426   .     S
C633   I681    2.139   .     S
C633   N660    1.376   .     A
C633   C1004   1.426   1_545 S
C634   I682    2.139   .     S
C634   N659    1.376   .     A
C634   C817    1.426   .     S
C635   C640    1.441   .     S
C635   O668    1.295   .     A
C635   O665    1.295   .     A
C636   C639    1.441   .     S
C636   O667    1.295   .     A
C636   O666    1.295   .     A
C637   C639    1.399   .     A
C637   H651    1.084   .     S
C637   C647    1.383   .     A
C638   C640    1.399   .     A
C638   H652    1.084   .     S
C638   C648    1.383   .     A
C639   C641    1.399   .     A
C640   C642    1.399   .     A
C641   H653    1.084   .     S
C641   C643    1.383   .     A
C642   H654    1.084   .     S
C642   C644    1.383   .     A
C643   C649    1.400   .     A
C643   C645    1.411   .     A
C644   C650    1.400   .     A
C644   C646    1.411   .     A
C645   C647    1.411   .     A
C645   C88     1.391   1_556 S
C646   C648    1.411   .     A
C649   H655    1.084   .     S
C649   C65     1.389   1_556 S
C650   H656    1.084   .     S
N659   Zn669   2.027   .     S
N660   Zn670   2.027   .     S
O661   Zn669   2.011   .     S
O662   Zn670   2.011   .     S
O663   Zn669   2.011   .     S
O664   Zn670   2.011   .     S
O665   Zn669   2.019   .     S
O666   Zn670   2.019   .     S
O667   Zn669   2.019   .     S
O668   Zn670   2.019   .     S
C671   N672    1.157   .     T
C673   N674    1.157   .     T
C675   N676    1.157   .     T
C677   N678    1.157   .     T
C683   O726    1.296   .     A
C683   C692    1.449   .     S
C683   O723    1.296   .     A
C684   O725    1.296   .     A
C684   O724    1.296   .     A
C684   C691    1.449   .     S
C685   C710    1.400   .     A
C685   H719    1.084   .     S
C686   C709    1.400   .     A
C686   H720    1.084   .     S
C686   C154    1.389   1_556 S
C687   C692    1.410   .     A
C687   C733    1.453   .     S
C688   C735    1.453   .     S
C688   C691    1.410   .     A
C688   C566    1.381   1_655 S
C689   C737    1.453   .     S
C689   C691    1.410   .     A
C689   C563    1.381   1_655 S
C690   C739    1.453   .     S
C690   C692    1.410   .     A
C693   I741    2.139   .     S
C693   N722    1.376   .     A
C693   C1068   1.426   1_545 S
C694   N721    1.376   .     A
C694   I742    2.139   .     S
C694   C881    1.426   .     S
C695   I743    2.139   .     S
C695   N722    1.376   .     A
C695   C1066   1.426   1_545 S
C696   I744    2.139   .     S
C696   N721    1.376   .     A
C696   C879    1.426   .     S
C697   C702    1.441   .     S
C697   O730    1.295   .     A
C697   O727    1.295   .     A
C698   C701    1.441   .     S
C698   O729    1.295   .     A
C698   O728    1.295   .     A
C699   C701    1.399   .     A
C699   H713    1.084   .     S
C699   C709    1.383   .     A
C700   C702    1.399   .     A
C700   H714    1.084   .     S
C700   C710    1.383   .     A
C701   C703    1.399   .     A
C702   C704    1.399   .     A
C703   H715    1.084   .     S
C703   C705    1.383   .     A
C704   H716    1.084   .     S
C704   C706    1.383   .     A
C705   C711    1.400   .     A
C705   C707    1.411   .     A
C706   C712    1.400   .     A
C706   C708    1.411   .     A
C707   C709    1.411   .     A
C707   C150    1.391   1_556 S
C708   C710    1.411   .     A
C711   H717    1.084   .     S
C711   C127    1.389   1_556 S
C712   H718    1.084   .     S
N721   Zn731   2.027   .     S
N722   Zn732   2.027   .     S
O723   Zn731   2.011   .     S
O724   Zn732   2.011   .     S
O725   Zn731   2.011   .     S
O726   Zn732   2.011   .     S
O727   Zn731   2.019   .     S
O728   Zn732   2.019   .     S
O729   Zn731   2.019   .     S
O730   Zn732   2.019   .     S
C733   N734    1.157   .     T
C735   N736    1.157   .     T
C737   N738    1.157   .     T
C739   N740    1.157   .     T
C745   O788    1.296   .     A
C745   C754    1.449   .     S
C745   O785    1.296   .     A
C746   O787    1.296   .     A
C746   O786    1.296   .     A
C746   C753    1.449   .     S
C747   C772    1.400   .     A
C747   H781    1.084   .     S
C748   C771    1.400   .     A
C748   H782    1.084   .     S
C748   C216    1.389   1_556 S
C749   C754    1.410   .     A
C749   C795    1.453   .     S
C749   C875    1.381   1_455 S
C750   C797    1.453   .     S
C750   C753    1.410   .     A
C750   C814    1.381   .     S
C751   C799    1.453   .     S
C751   C753    1.410   .     A
C751   C811    1.381   .     S
C752   C801    1.453   .     S
C752   C754    1.410   .     A
C752   C874    1.381   1_455 S
C755   I803    2.139   .     S
C755   N784    1.376   .     A
C756   N783    1.376   .     A
C756   I804    2.139   .     S
C756   C943    1.426   .     S
C757   I805    2.139   .     S
C757   N784    1.376   .     A
C758   I806    2.139   .     S
C758   N783    1.376   .     A
C758   C941    1.426   .     S
C759   C764    1.441   .     S
C759   O792    1.295   .     A
C759   O789    1.295   .     A
C760   C763    1.441   .     S
C760   O791    1.295   .     A
C760   O790    1.295   .     A
C761   C763    1.399   .     A
C761   H775    1.084   .     S
C761   C771    1.383   .     A
C762   C764    1.399   .     A
C762   H776    1.084   .     S
C762   C772    1.383   .     A
C763   C765    1.399   .     A
C764   C766    1.399   .     A
C765   H777    1.084   .     S
C765   C767    1.383   .     A
C766   H778    1.084   .     S
C766   C768    1.383   .     A
C767   C773    1.400   .     A
C767   C769    1.411   .     A
C768   C774    1.400   .     A
C768   C770    1.411   .     A
C769   C771    1.411   .     A
C769   C212    1.391   1_556 S
C770   C772    1.411   .     A
C773   H779    1.084   .     S
C773   C189    1.389   1_556 S
C774   H780    1.084   .     S
N783   Zn793   2.027   .     S
N784   Zn794   2.027   .     S
O785   Zn793   2.011   .     S
O786   Zn794   2.011   .     S
O787   Zn793   2.011   .     S
O788   Zn794   2.011   .     S
O789   Zn793   2.019   .     S
O790   Zn794   2.019   .     S
O791   Zn793   2.019   .     S
O792   Zn794   2.019   .     S
C795   N796    1.157   .     T
C797   N798    1.157   .     T
C799   N800    1.157   .     T
C801   N802    1.157   .     T
C807   O850    1.296   .     A
C807   C816    1.449   .     S
C807   O847    1.296   .     A
C808   O849    1.296   .     A
C808   O848    1.296   .     A
C808   C815    1.449   .     S
C809   C834    1.400   .     A
C809   H843    1.084   .     S
C810   C833    1.400   .     A
C810   H844    1.084   .     S
C810   C278    1.389   1_556 S
C811   C816    1.410   .     A
C811   C857    1.453   .     S
C812   C859    1.453   .     S
C812   C815    1.410   .     A
C812   C876    1.381   .     S
C813   C861    1.453   .     S
C813   C815    1.410   .     A
C813   C873    1.381   .     S
C814   C863    1.453   .     S
C814   C816    1.410   .     A
C817   I865    2.139   .     S
C817   N846    1.376   .     A
C818   N845    1.376   .     A
C818   I866    2.139   .     S
C818   C1005   1.426   .     S
C819   I867    2.139   .     S
C819   N846    1.376   .     A
C820   I868    2.139   .     S
C820   N845    1.376   .     A
C820   C1003   1.426   .     S
C821   C826    1.441   .     S
C821   O854    1.295   .     A
C821   O851    1.295   .     A
C822   C825    1.441   .     S
C822   O853    1.295   .     A
C822   O852    1.295   .     A
C823   C825    1.399   .     A
C823   H837    1.084   .     S
C823   C833    1.383   .     A
C824   C826    1.399   .     A
C824   H838    1.084   .     S
C824   C834    1.383   .     A
C825   C827    1.399   .     A
C826   C828    1.399   .     A
C827   H839    1.084   .     S
C827   C829    1.383   .     A
C828   H840    1.084   .     S
C828   C830    1.383   .     A
C829   C835    1.400   .     A
C829   C831    1.411   .     A
C830   C836    1.400   .     A
C830   C832    1.411   .     A
C831   C833    1.411   .     A
C831   C274    1.391   1_556 S
C832   C834    1.411   .     A
C835   H841    1.084   .     S
C835   C251    1.389   1_556 S
C836   H842    1.084   .     S
N845   Zn855   2.027   .     S
N846   Zn856   2.027   .     S
O847   Zn855   2.011   .     S
O848   Zn856   2.011   .     S
O849   Zn855   2.011   .     S
O850   Zn856   2.011   .     S
O851   Zn855   2.019   .     S
O852   Zn856   2.019   .     S
O853   Zn855   2.019   .     S
O854   Zn856   2.019   .     S
C857   N858    1.157   .     T
C859   N860    1.157   .     T
C861   N862    1.157   .     T
C863   N864    1.157   .     T
C869   O912    1.296   .     A
C869   C878    1.449   .     S
C869   O909    1.296   .     A
C870   O911    1.296   .     A
C870   O910    1.296   .     A
C870   C877    1.449   .     S
C871   C896    1.400   .     A
C871   H905    1.084   .     S
C872   C895    1.400   .     A
C872   H906    1.084   .     S
C872   C340    1.389   1_556 S
C873   C878    1.410   .     A
C873   C919    1.453   .     S
C874   C921    1.453   .     S
C874   C877    1.410   .     A
C874   C752    1.381   1_655 S
C875   C923    1.453   .     S
C875   C877    1.410   .     A
C875   C749    1.381   1_655 S
C876   C925    1.453   .     S
C876   C878    1.410   .     A
C879   I927    2.139   .     S
C879   N908    1.376   .     A
C880   N907    1.376   .     A
C880   I928    2.139   .     S
C880   C1067   1.426   .     S
C881   I929    2.139   .     S
C881   N908    1.376   .     A
C882   I930    2.139   .     S
C882   N907    1.376   .     A
C882   C1065   1.426   .     S
C883   C888    1.441   .     S
C883   O916    1.295   .     A
C883   O913    1.295   .     A
C884   C887    1.441   .     S
C884   O915    1.295   .     A
C884   O914    1.295   .     A
C885   C887    1.399   .     A
C885   H899    1.084   .     S
C885   C895    1.383   .     A
C886   C888    1.399   .     A
C886   H900    1.084   .     S
C886   C896    1.383   .     A
C887   C889    1.399   .     A
C888   C890    1.399   .     A
C889   H901    1.084   .     S
C889   C891    1.383   .     A
C890   H902    1.084   .     S
C890   C892    1.383   .     A
C891   C897    1.400   .     A
C891   C893    1.411   .     A
C892   C898    1.400   .     A
C892   C894    1.411   .     A
C893   C895    1.411   .     A
C893   C336    1.391   1_556 S
C894   C896    1.411   .     A
C897   H903    1.084   .     S
C897   C313    1.389   1_556 S
C898   H904    1.084   .     S
N907   Zn917   2.027   .     S
N908   Zn918   2.027   .     S
O909   Zn917   2.011   .     S
O910   Zn918   2.011   .     S
O911   Zn917   2.011   .     S
O912   Zn918   2.011   .     S
O913   Zn917   2.019   .     S
O914   Zn918   2.019   .     S
O915   Zn917   2.019   .     S
O916   Zn918   2.019   .     S
C919   N920    1.157   .     T
C921   N922    1.157   .     T
C923   N924    1.157   .     T
C925   N926    1.157   .     T
C931   O974    1.296   .     A
C931   C940    1.449   .     S
C931   O971    1.296   .     A
C932   O973    1.296   .     A
C932   O972    1.296   .     A
C932   C939    1.449   .     S
C933   C958    1.400   .     A
C933   H967    1.084   .     S
C934   C957    1.400   .     A
C934   H968    1.084   .     S
C934   C402    1.389   1_556 S
C935   C940    1.410   .     A
C935   C981    1.453   .     S
C935   C1061   1.381   1_455 S
C936   C983    1.453   .     S
C936   C939    1.410   .     A
C936   C1000   1.381   .     S
C937   C985    1.453   .     S
C937   C939    1.410   .     A
C937   C997    1.381   .     S
C938   C987    1.453   .     S
C938   C940    1.410   .     A
C938   C1060   1.381   1_455 S
C941   I989    2.139   .     S
C941   N970    1.376   .     A
C942   N969    1.376   .     A
C942   I990    2.139   .     S
C942   C571    1.426   1_565 S
C943   I991    2.139   .     S
C943   N970    1.376   .     A
C944   I992    2.139   .     S
C944   N969    1.376   .     A
C944   C569    1.426   1_565 S
C945   C950    1.441   .     S
C945   O978    1.295   .     A
C945   O975    1.295   .     A
C946   C949    1.441   .     S
C946   O977    1.295   .     A
C946   O976    1.295   .     A
C947   C949    1.399   .     A
C947   H961    1.084   .     S
C947   C957    1.383   .     A
C948   C950    1.399   .     A
C948   H962    1.084   .     S
C948   C958    1.383   .     A
C949   C951    1.399   .     A
C950   C952    1.399   .     A
C951   H963    1.084   .     S
C951   C953    1.383   .     A
C952   H964    1.084   .     S
C952   C954    1.383   .     A
C953   C959    1.400   .     A
C953   C955    1.411   .     A
C954   C960    1.400   .     A
C954   C956    1.411   .     A
C955   C957    1.411   .     A
C955   C398    1.391   1_556 S
C956   C958    1.411   .     A
C959   H965    1.084   .     S
C959   C375    1.389   1_556 S
C960   H966    1.084   .     S
N969   Zn979   2.027   .     S
N970   Zn980   2.027   .     S
O971   Zn979   2.011   .     S
O972   Zn980   2.011   .     S
O973   Zn979   2.011   .     S
O974   Zn980   2.011   .     S
O975   Zn979   2.019   .     S
O976   Zn980   2.019   .     S
O977   Zn979   2.019   .     S
O978   Zn980   2.019   .     S
C981   N982    1.157   .     T
C983   N984    1.157   .     T
C985   N986    1.157   .     T
C987   N988    1.157   .     T
C993   O1036   1.296   .     A
C993   C1002   1.449   .     S
C993   O1033   1.296   .     A
C994   O1035   1.296   .     A
C994   O1034   1.296   .     A
C994   C1001   1.449   .     S
C995   C1020   1.400   .     A
C995   H1029   1.084   .     S
C996   C1019   1.400   .     A
C996   H1030   1.084   .     S
C996   C464    1.389   1_556 S
C997   C1002   1.410   .     A
C997   C1043   1.453   .     S
C998   C1045   1.453   .     S
C998   C1001   1.410   .     A
C998   C1062   1.381   .     S
C999   C1047   1.453   .     S
C999   C1001   1.410   .     A
C999   C1059   1.381   .     S
C1000  C1049   1.453   .     S
C1000  C1002   1.410   .     A
C1003  I1051   2.139   .     S
C1003  N1032   1.376   .     A
C1004  N1031   1.376   .     A
C1004  I1052   2.139   .     S
C1004  C633    1.426   1_565 S
C1005  I1053   2.139   .     S
C1005  N1032   1.376   .     A
C1006  I1054   2.139   .     S
C1006  N1031   1.376   .     A
C1006  C631    1.426   1_565 S
C1007  C1012   1.441   .     S
C1007  O1040   1.295   .     A
C1007  O1037   1.295   .     A
C1008  C1011   1.441   .     S
C1008  O1039   1.295   .     A
C1008  O1038   1.295   .     A
C1009  C1011   1.399   .     A
C1009  H1023   1.084   .     S
C1009  C1019   1.383   .     A
C1010  C1012   1.399   .     A
C1010  H1024   1.084   .     S
C1010  C1020   1.383   .     A
C1011  C1013   1.399   .     A
C1012  C1014   1.399   .     A
C1013  H1025   1.084   .     S
C1013  C1015   1.383   .     A
C1014  H1026   1.084   .     S
C1014  C1016   1.383   .     A
C1015  C1021   1.400   .     A
C1015  C1017   1.411   .     A
C1016  C1022   1.400   .     A
C1016  C1018   1.411   .     A
C1017  C1019   1.411   .     A
C1017  C460    1.391   1_556 S
C1018  C1020   1.411   .     A
C1021  H1027   1.084   .     S
C1021  C437    1.389   1_556 S
C1022  H1028   1.084   .     S
N1031  Zn1041  2.027   .     S
N1032  Zn1042  2.027   .     S
O1033  Zn1041  2.011   .     S
O1034  Zn1042  2.011   .     S
O1035  Zn1041  2.011   .     S
O1036  Zn1042  2.011   .     S
O1037  Zn1041  2.019   .     S
O1038  Zn1042  2.019   .     S
O1039  Zn1041  2.019   .     S
O1040  Zn1042  2.019   .     S
C1043  N1044   1.157   .     T
C1045  N1046   1.157   .     T
C1047  N1048   1.157   .     T
C1049  N1050   1.157   .     T
C1055  O1098   1.296   .     A
C1055  C1064   1.449   .     S
C1055  O1095   1.296   .     A
C1056  O1097   1.296   .     A
C1056  O1096   1.296   .     A
C1056  C1063   1.449   .     S
C1057  C1082   1.400   .     A
C1057  H1091   1.084   .     S
C1058  C1081   1.400   .     A
C1058  H1092   1.084   .     S
C1058  C526    1.389   1_556 S
C1059  C1064   1.410   .     A
C1059  C1105   1.453   .     S
C1060  C1107   1.453   .     S
C1060  C1063   1.410   .     A
C1060  C938    1.381   1_655 S
C1061  C1109   1.453   .     S
C1061  C1063   1.410   .     A
C1061  C935    1.381   1_655 S
C1062  C1111   1.453   .     S
C1062  C1064   1.410   .     A
C1065  I1113   2.139   .     S
C1065  N1094   1.376   .     A
C1066  N1093   1.376   .     A
C1066  I1114   2.139   .     S
C1066  C695    1.426   1_565 S
C1067  I1115   2.139   .     S
C1067  N1094   1.376   .     A
C1068  I1116   2.139   .     S
C1068  N1093   1.376   .     A
C1068  C693    1.426   1_565 S
C1069  C1074   1.441   .     S
C1069  O1102   1.295   .     A
C1069  O1099   1.295   .     A
C1070  C1073   1.441   .     S
C1070  O1101   1.295   .     A
C1070  O1100   1.295   .     A
C1071  C1073   1.399   .     A
C1071  H1085   1.084   .     S
C1071  C1081   1.383   .     A
C1072  C1074   1.399   .     A
C1072  H1086   1.084   .     S
C1072  C1082   1.383   .     A
C1073  C1075   1.399   .     A
C1074  C1076   1.399   .     A
C1075  H1087   1.084   .     S
C1075  C1077   1.383   .     A
C1076  H1088   1.084   .     S
C1076  C1078   1.383   .     A
C1077  C1083   1.400   .     A
C1077  C1079   1.411   .     A
C1078  C1084   1.400   .     A
C1078  C1080   1.411   .     A
C1079  C1081   1.411   .     A
C1079  C522    1.391   1_556 S
C1080  C1082   1.411   .     A
C1083  H1089   1.084   .     S
C1083  C499    1.389   1_556 S
C1084  H1090   1.084   .     S
N1093  Zn1103  2.027   .     S
N1094  Zn1104  2.027   .     S
O1095  Zn1103  2.011   .     S
O1096  Zn1104  2.011   .     S
O1097  Zn1103  2.011   .     S
O1098  Zn1104  2.011   .     S
O1099  Zn1103  2.019   .     S
O1100  Zn1104  2.019   .     S
O1101  Zn1103  2.019   .     S
O1102  Zn1104  2.019   .     S
C1105  N1106   1.157   .     T
C1107  N1108   1.157   .     T
C1109  N1110   1.157   .     T
C1111  N1112   1.157   .     T
