data_str_m3_o1_o16_pcu_sym.63
_audit_creation_date              2020-01-03
_audit_creation_method            'Materials Studio'
_symmetry_space_group_name_H-M    'P1'
_symmetry_Int_Tables_number       1
_symmetry_cell_setting            triclinic
loop_
_symmetry_equiv_pos_as_xyz
  x,y,z
_cell_length_a                    29.6498
_cell_length_b                    31.9527
_cell_length_c                    26.2902
_cell_angle_alpha                 90.4228
_cell_angle_beta                  69.4839
_cell_angle_gamma                 89.4269
loop_
_atom_site_label
_atom_site_type_symbol
_atom_site_fract_x
_atom_site_fract_y
_atom_site_fract_z
_atom_site_U_iso_or_equiv
_atom_site_adp_type
_atom_site_occupancy
O1     O     0.12846   0.22775   0.25001   0.00000  Uiso   1.00
O2     O     0.20490   0.22774   0.25001   0.00000  Uiso   1.00
C3     C     0.16660   0.24662   0.24991   0.00000  Uiso   1.00
O4     O     0.10947   0.16666   0.32681   0.00000  Uiso   1.00
O5     O     0.18591   0.16665   0.32681   0.00000  Uiso   1.00
C6     C     0.14016   0.16297   0.35194   0.00000  Uiso   1.00
Zn7    Zn    0.11562   0.16667   0.25000   0.00000  Uiso   1.00
Zn8    Zn    0.21771   0.16666   0.25000   0.00000  Uiso   1.00
O9     O     0.12843   0.10559   0.25000   0.00000  Uiso   1.00
O10    O     0.20488   0.10558   0.25000   0.00000  Uiso   1.00
O11    O     0.14742   0.16668   0.17319   0.00000  Uiso   1.00
O12    O     0.22387   0.16667   0.17319   0.00000  Uiso   1.00
C13    C     0.16694   0.08671   0.24966   0.00000  Uiso   1.00
C14    C     0.19354   0.16656   0.14775   0.00000  Uiso   1.00
C15    C     0.26427   0.12976   0.00594   0.00000  Uiso   1.00
H16    H     0.28132   0.13675   0.07847   0.00000  Uiso   1.00
H17    H     0.27003   0.10274   0.40743   0.00000  Uiso   1.00
H18    H     0.29883   0.11536   0.48333   0.00000  Uiso   1.00
C19    C     0.21021   0.16125   0.08905   0.00000  Uiso   1.00
C20    C     0.07602   0.16526   0.44290   0.00000  Uiso   1.00
C21    C     0.06265   0.16849   0.49891   0.00000  Uiso   1.00
C22    C     0.09729   0.16428   0.02308   0.00000  Uiso   1.00
C23    C     0.14566   0.15384   0.49142   0.00000  Uiso   1.00
C24    C     0.15704   0.14429   0.43592   0.00000  Uiso   1.00
C25    C     0.18295   0.15190   0.01323   0.00000  Uiso   1.00
C26    C     0.22824   0.13350   0.48288   0.00000  Uiso   1.00
C27    C     0.23633   0.11826   0.43063   0.00000  Uiso   1.00
C28    C     0.20116   0.12344   0.40742   0.00000  Uiso   1.00
C29    C     0.17647   0.16850   0.06432   0.00000  Uiso   1.00
C30    C     0.25482   0.14270   0.05956   0.00000  Uiso   1.00
C31    C     0.12374   0.15591   0.41071   0.00000  Uiso   1.00
H32    H     0.14434   0.18623   0.08660   0.00000  Uiso   1.00
H33    H     0.04925   0.17070   0.42479   0.00000  Uiso   1.00
H34    H     0.08489   0.16763   0.06672   0.00000  Uiso   1.00
H35    H     0.02567   0.17587   0.02350   0.00000  Uiso   1.00
H36    H     0.20851   0.10993   0.36745   0.00000  Uiso   1.00
C37    C     0.19214   0.31180   0.27753   0.00000  Uiso   1.00
H38    H     0.21086   0.29509   0.30012   0.00000  Uiso   1.00
C39    C     0.19259   0.02138   0.27715   0.00000  Uiso   1.00
H40    H     0.21157   0.03797   0.29949   0.00000  Uiso   1.00
C41    C     0.16750   0.04257   0.24898   0.00000  Uiso   1.00
C42    C     0.14272   0.02155   0.22034   0.00000  Uiso   1.00
H43    H     0.12390   0.03830   0.19790   0.00000  Uiso   1.00
C44    C     0.14283   0.31194   0.22013   0.00000  Uiso   1.00
H45    H     0.12451   0.29532   0.19714   0.00000  Uiso   1.00
C46    C     0.16690   0.29077   0.24941   0.00000  Uiso   1.00
C47    C     0.31930   0.13826   0.21933   0.00000  Uiso   1.00
H48    H     0.30917   0.11552   0.19471   0.00000  Uiso   1.00
C49    C     0.03383   0.13826   0.21934   0.00000  Uiso   1.00
H50    H     0.05977   0.11551   0.19478   0.00000  Uiso   1.00
N51    N     0.04760   0.16668   0.25002   0.00000  Uiso   1.00
C52    C     0.01336   0.19534   0.28056   0.00000  Uiso   1.00
C53    C     0.29906   0.19499   0.28041   0.00000  Uiso   1.00
H54    H     0.27256   0.21749   0.30480   0.00000  Uiso   1.00
N55    N     0.28573   0.16665   0.25001   0.00000  Uiso   1.00
C56    C     0.02364   0.22708   0.31551   0.00000  Uiso   1.00
C57    C     0.01009   0.21987   0.37131   0.00000  Uiso   1.00
C58    C     0.01451   0.25147   0.40632   0.00000  Uiso   1.00
C59    C     0.03072   0.29097   0.38596   0.00000  Uiso   1.00
C60    C     0.04136   0.29916   0.33087   0.00000  Uiso   1.00
C61    C     0.03704   0.26750   0.29587   0.00000  Uiso   1.00
H62    H     0.32826   0.19007   0.38768   0.00000  Uiso   1.00
H63    H     0.00459   0.24552   0.44931   0.00000  Uiso   1.00
H64    H     0.03391   0.31550   0.41306   0.00000  Uiso   1.00
H65    H     0.05236   0.33015   0.31546   0.00000  Uiso   1.00
H66    H     0.04379   0.27444   0.25362   0.00000  Uiso   1.00
O67    O     0.46179   0.22775   0.25001   0.00000  Uiso   1.00
O68    O     0.53823   0.22774   0.25001   0.00000  Uiso   1.00
C69    C     0.49993   0.24662   0.24991   0.00000  Uiso   1.00
O70    O     0.44280   0.16666   0.32681   0.00000  Uiso   1.00
O71    O     0.51924   0.16665   0.32681   0.00000  Uiso   1.00
C72    C     0.47349   0.16297   0.35194   0.00000  Uiso   1.00
Zn73   Zn    0.44896   0.16667   0.25000   0.00000  Uiso   1.00
Zn74   Zn    0.55104   0.16666   0.25000   0.00000  Uiso   1.00
O75    O     0.46177   0.10559   0.25000   0.00000  Uiso   1.00
O76    O     0.53821   0.10558   0.25000   0.00000  Uiso   1.00
O77    O     0.48076   0.16668   0.17319   0.00000  Uiso   1.00
O78    O     0.55720   0.16667   0.17319   0.00000  Uiso   1.00
C79    C     0.50027   0.08671   0.24966   0.00000  Uiso   1.00
C80    C     0.52687   0.16656   0.14775   0.00000  Uiso   1.00
C81    C     0.59760   0.12976   0.00594   0.00000  Uiso   1.00
H82    H     0.61465   0.13675   0.07847   0.00000  Uiso   1.00
H83    H     0.60337   0.10274   0.40743   0.00000  Uiso   1.00
H84    H     0.63216   0.11536   0.48333   0.00000  Uiso   1.00
C85    C     0.54355   0.16125   0.08905   0.00000  Uiso   1.00
C86    C     0.40935   0.16526   0.44290   0.00000  Uiso   1.00
C87    C     0.39598   0.16849   0.49891   0.00000  Uiso   1.00
C88    C     0.43062   0.16428   0.02308   0.00000  Uiso   1.00
C89    C     0.47899   0.15384   0.49142   0.00000  Uiso   1.00
C90    C     0.49037   0.14429   0.43592   0.00000  Uiso   1.00
C91    C     0.51628   0.15190   0.01323   0.00000  Uiso   1.00
C92    C     0.56158   0.13350   0.48288   0.00000  Uiso   1.00
C93    C     0.56966   0.11826   0.43063   0.00000  Uiso   1.00
C94    C     0.53449   0.12344   0.40742   0.00000  Uiso   1.00
C95    C     0.50980   0.16850   0.06432   0.00000  Uiso   1.00
C96    C     0.58816   0.14270   0.05956   0.00000  Uiso   1.00
C97    C     0.45708   0.15591   0.41071   0.00000  Uiso   1.00
H98    H     0.47767   0.18623   0.08660   0.00000  Uiso   1.00
H99    H     0.38259   0.17070   0.42479   0.00000  Uiso   1.00
H100   H     0.41822   0.16763   0.06672   0.00000  Uiso   1.00
H101   H     0.35900   0.17587   0.02350   0.00000  Uiso   1.00
H102   H     0.54184   0.10993   0.36745   0.00000  Uiso   1.00
C103   C     0.52548   0.31180   0.27753   0.00000  Uiso   1.00
H104   H     0.54419   0.29509   0.30012   0.00000  Uiso   1.00
C105   C     0.52592   0.02138   0.27715   0.00000  Uiso   1.00
H106   H     0.54490   0.03797   0.29949   0.00000  Uiso   1.00
C107   C     0.50083   0.04257   0.24898   0.00000  Uiso   1.00
C108   C     0.47605   0.02155   0.22034   0.00000  Uiso   1.00
H109   H     0.45724   0.03830   0.19790   0.00000  Uiso   1.00
C110   C     0.47616   0.31194   0.22013   0.00000  Uiso   1.00
H111   H     0.45784   0.29532   0.19714   0.00000  Uiso   1.00
C112   C     0.50023   0.29077   0.24941   0.00000  Uiso   1.00
C113   C     0.65263   0.13826   0.21933   0.00000  Uiso   1.00
H114   H     0.64250   0.11552   0.19471   0.00000  Uiso   1.00
C115   C     0.36717   0.13826   0.21934   0.00000  Uiso   1.00
H116   H     0.39310   0.11551   0.19478   0.00000  Uiso   1.00
N117   N     0.38093   0.16668   0.25002   0.00000  Uiso   1.00
C118   C     0.34669   0.19534   0.28056   0.00000  Uiso   1.00
C119   C     0.63239   0.19499   0.28041   0.00000  Uiso   1.00
H120   H     0.60589   0.21749   0.30480   0.00000  Uiso   1.00
N121   N     0.61906   0.16665   0.25001   0.00000  Uiso   1.00
C122   C     0.35697   0.22708   0.31551   0.00000  Uiso   1.00
C123   C     0.34343   0.21987   0.37131   0.00000  Uiso   1.00
C124   C     0.34784   0.25147   0.40632   0.00000  Uiso   1.00
C125   C     0.36405   0.29097   0.38596   0.00000  Uiso   1.00
C126   C     0.37469   0.29916   0.33087   0.00000  Uiso   1.00
C127   C     0.37037   0.26750   0.29587   0.00000  Uiso   1.00
H128   H     0.66160   0.19007   0.38768   0.00000  Uiso   1.00
H129   H     0.33793   0.24552   0.44931   0.00000  Uiso   1.00
H130   H     0.36725   0.31550   0.41306   0.00000  Uiso   1.00
H131   H     0.38570   0.33015   0.31546   0.00000  Uiso   1.00
H132   H     0.37712   0.27444   0.25362   0.00000  Uiso   1.00
O133   O     0.79512   0.22775   0.25001   0.00000  Uiso   1.00
O134   O     0.87157   0.22774   0.25001   0.00000  Uiso   1.00
C135   C     0.83327   0.24662   0.24991   0.00000  Uiso   1.00
O136   O     0.77613   0.16666   0.32681   0.00000  Uiso   1.00
O137   O     0.85258   0.16665   0.32681   0.00000  Uiso   1.00
C138   C     0.80682   0.16297   0.35194   0.00000  Uiso   1.00
Zn139  Zn    0.78229   0.16667   0.25000   0.00000  Uiso   1.00
Zn140  Zn    0.88438   0.16666   0.25000   0.00000  Uiso   1.00
O141   O     0.79510   0.10559   0.25000   0.00000  Uiso   1.00
O142   O     0.87154   0.10558   0.25000   0.00000  Uiso   1.00
O143   O     0.81409   0.16668   0.17319   0.00000  Uiso   1.00
O144   O     0.89053   0.16667   0.17319   0.00000  Uiso   1.00
C145   C     0.83361   0.08671   0.24966   0.00000  Uiso   1.00
C146   C     0.86021   0.16656   0.14775   0.00000  Uiso   1.00
C147   C     0.93094   0.12976   0.00594   0.00000  Uiso   1.00
H148   H     0.94799   0.13675   0.07847   0.00000  Uiso   1.00
H149   H     0.93670   0.10274   0.40743   0.00000  Uiso   1.00
H150   H     0.96550   0.11536   0.48333   0.00000  Uiso   1.00
C151   C     0.87688   0.16125   0.08905   0.00000  Uiso   1.00
C152   C     0.74269   0.16526   0.44290   0.00000  Uiso   1.00
C153   C     0.72931   0.16849   0.49891   0.00000  Uiso   1.00
C154   C     0.76395   0.16428   0.02308   0.00000  Uiso   1.00
C155   C     0.81233   0.15384   0.49142   0.00000  Uiso   1.00
C156   C     0.82370   0.14429   0.43592   0.00000  Uiso   1.00
C157   C     0.84961   0.15190   0.01323   0.00000  Uiso   1.00
C158   C     0.89491   0.13350   0.48288   0.00000  Uiso   1.00
C159   C     0.90299   0.11826   0.43063   0.00000  Uiso   1.00
C160   C     0.86783   0.12344   0.40742   0.00000  Uiso   1.00
C161   C     0.84314   0.16850   0.06432   0.00000  Uiso   1.00
C162   C     0.92149   0.14270   0.05956   0.00000  Uiso   1.00
C163   C     0.79041   0.15591   0.41071   0.00000  Uiso   1.00
H164   H     0.81100   0.18623   0.08660   0.00000  Uiso   1.00
H165   H     0.71592   0.17070   0.42479   0.00000  Uiso   1.00
H166   H     0.75155   0.16763   0.06672   0.00000  Uiso   1.00
H167   H     0.69234   0.17587   0.02350   0.00000  Uiso   1.00
H168   H     0.87517   0.10993   0.36745   0.00000  Uiso   1.00
C169   C     0.85881   0.31180   0.27753   0.00000  Uiso   1.00
H170   H     0.87752   0.29509   0.30012   0.00000  Uiso   1.00
C171   C     0.85926   0.02138   0.27715   0.00000  Uiso   1.00
H172   H     0.87823   0.03797   0.29949   0.00000  Uiso   1.00
C173   C     0.83417   0.04257   0.24898   0.00000  Uiso   1.00
C174   C     0.80939   0.02155   0.22034   0.00000  Uiso   1.00
H175   H     0.79057   0.03830   0.19790   0.00000  Uiso   1.00
C176   C     0.80949   0.31194   0.22013   0.00000  Uiso   1.00
H177   H     0.79118   0.29532   0.19714   0.00000  Uiso   1.00
C178   C     0.83356   0.29077   0.24941   0.00000  Uiso   1.00
C179   C     0.98596   0.13826   0.21933   0.00000  Uiso   1.00
H180   H     0.97584   0.11552   0.19471   0.00000  Uiso   1.00
C181   C     0.70050   0.13826   0.21934   0.00000  Uiso   1.00
H182   H     0.72643   0.11551   0.19478   0.00000  Uiso   1.00
N183   N     0.71426   0.16668   0.25002   0.00000  Uiso   1.00
C184   C     0.68003   0.19534   0.28056   0.00000  Uiso   1.00
C185   C     0.96572   0.19499   0.28041   0.00000  Uiso   1.00
H186   H     0.93922   0.21749   0.30480   0.00000  Uiso   1.00
N187   N     0.95239   0.16665   0.25001   0.00000  Uiso   1.00
C188   C     0.69031   0.22708   0.31551   0.00000  Uiso   1.00
C189   C     0.67676   0.21987   0.37131   0.00000  Uiso   1.00
C190   C     0.68117   0.25147   0.40632   0.00000  Uiso   1.00
C191   C     0.69738   0.29097   0.38596   0.00000  Uiso   1.00
C192   C     0.70802   0.29916   0.33087   0.00000  Uiso   1.00
C193   C     0.70371   0.26750   0.29587   0.00000  Uiso   1.00
H194   H     0.99493   0.19007   0.38768   0.00000  Uiso   1.00
H195   H     0.67126   0.24552   0.44931   0.00000  Uiso   1.00
H196   H     0.70058   0.31550   0.41306   0.00000  Uiso   1.00
H197   H     0.71903   0.33015   0.31546   0.00000  Uiso   1.00
H198   H     0.71045   0.27444   0.25362   0.00000  Uiso   1.00
O199   O     0.12846   0.56108   0.25001   0.00000  Uiso   1.00
O200   O     0.20490   0.56107   0.25001   0.00000  Uiso   1.00
C201   C     0.16660   0.57996   0.24991   0.00000  Uiso   1.00
O202   O     0.10947   0.50000   0.32681   0.00000  Uiso   1.00
O203   O     0.18591   0.49999   0.32681   0.00000  Uiso   1.00
C204   C     0.14016   0.49630   0.35194   0.00000  Uiso   1.00
Zn205  Zn    0.11562   0.50001   0.25000   0.00000  Uiso   1.00
Zn206  Zn    0.21771   0.49999   0.25000   0.00000  Uiso   1.00
O207   O     0.12843   0.43893   0.25000   0.00000  Uiso   1.00
O208   O     0.20488   0.43892   0.25000   0.00000  Uiso   1.00
O209   O     0.14742   0.50001   0.17319   0.00000  Uiso   1.00
O210   O     0.22387   0.50000   0.17319   0.00000  Uiso   1.00
C211   C     0.16694   0.42004   0.24966   0.00000  Uiso   1.00
C212   C     0.19354   0.49989   0.14775   0.00000  Uiso   1.00
C213   C     0.26427   0.46309   0.00594   0.00000  Uiso   1.00
H214   H     0.28132   0.47008   0.07847   0.00000  Uiso   1.00
H215   H     0.27003   0.43607   0.40743   0.00000  Uiso   1.00
H216   H     0.29883   0.44869   0.48333   0.00000  Uiso   1.00
C217   C     0.21021   0.49458   0.08905   0.00000  Uiso   1.00
C218   C     0.07602   0.49859   0.44290   0.00000  Uiso   1.00
C219   C     0.06265   0.50182   0.49891   0.00000  Uiso   1.00
C220   C     0.09729   0.49761   0.02308   0.00000  Uiso   1.00
C221   C     0.14566   0.48717   0.49142   0.00000  Uiso   1.00
C222   C     0.15704   0.47763   0.43592   0.00000  Uiso   1.00
C223   C     0.18295   0.48523   0.01323   0.00000  Uiso   1.00
C224   C     0.22824   0.46683   0.48288   0.00000  Uiso   1.00
C225   C     0.23633   0.45159   0.43063   0.00000  Uiso   1.00
C226   C     0.20116   0.45678   0.40742   0.00000  Uiso   1.00
C227   C     0.17647   0.50183   0.06432   0.00000  Uiso   1.00
C228   C     0.25482   0.47603   0.05956   0.00000  Uiso   1.00
C229   C     0.12374   0.48925   0.41071   0.00000  Uiso   1.00
H230   H     0.14434   0.51956   0.08660   0.00000  Uiso   1.00
H231   H     0.04925   0.50403   0.42479   0.00000  Uiso   1.00
H232   H     0.08489   0.50097   0.06672   0.00000  Uiso   1.00
H233   H     0.02567   0.50920   0.02350   0.00000  Uiso   1.00
H234   H     0.20851   0.44326   0.36745   0.00000  Uiso   1.00
C235   C     0.19214   0.64513   0.27753   0.00000  Uiso   1.00
H236   H     0.21086   0.62842   0.30012   0.00000  Uiso   1.00
C237   C     0.19259   0.35472   0.27715   0.00000  Uiso   1.00
H238   H     0.21157   0.37131   0.29949   0.00000  Uiso   1.00
C239   C     0.16750   0.37591   0.24898   0.00000  Uiso   1.00
C240   C     0.14272   0.35489   0.22034   0.00000  Uiso   1.00
H241   H     0.12390   0.37163   0.19790   0.00000  Uiso   1.00
C242   C     0.14283   0.64528   0.22013   0.00000  Uiso   1.00
H243   H     0.12451   0.62865   0.19714   0.00000  Uiso   1.00
C244   C     0.16690   0.62410   0.24941   0.00000  Uiso   1.00
C245   C     0.31930   0.47160   0.21933   0.00000  Uiso   1.00
H246   H     0.30917   0.44886   0.19471   0.00000  Uiso   1.00
C247   C     0.03383   0.47159   0.21934   0.00000  Uiso   1.00
H248   H     0.05977   0.44884   0.19478   0.00000  Uiso   1.00
N249   N     0.04760   0.50001   0.25002   0.00000  Uiso   1.00
C250   C     0.01336   0.52868   0.28056   0.00000  Uiso   1.00
C251   C     0.29906   0.52833   0.28041   0.00000  Uiso   1.00
H252   H     0.27256   0.55082   0.30480   0.00000  Uiso   1.00
N253   N     0.28573   0.49998   0.25001   0.00000  Uiso   1.00
C254   C     0.02364   0.56041   0.31551   0.00000  Uiso   1.00
C255   C     0.01009   0.55320   0.37131   0.00000  Uiso   1.00
C256   C     0.01451   0.58480   0.40632   0.00000  Uiso   1.00
C257   C     0.03072   0.62431   0.38596   0.00000  Uiso   1.00
C258   C     0.04136   0.63249   0.33087   0.00000  Uiso   1.00
C259   C     0.03704   0.60083   0.29587   0.00000  Uiso   1.00
H260   H     0.32826   0.52341   0.38768   0.00000  Uiso   1.00
H261   H     0.00459   0.57886   0.44931   0.00000  Uiso   1.00
H262   H     0.03391   0.64884   0.41306   0.00000  Uiso   1.00
H263   H     0.05236   0.66349   0.31546   0.00000  Uiso   1.00
H264   H     0.04379   0.60778   0.25362   0.00000  Uiso   1.00
O265   O     0.46179   0.56108   0.25001   0.00000  Uiso   1.00
O266   O     0.53823   0.56107   0.25001   0.00000  Uiso   1.00
C267   C     0.49993   0.57996   0.24991   0.00000  Uiso   1.00
O268   O     0.44280   0.50000   0.32681   0.00000  Uiso   1.00
O269   O     0.51924   0.49999   0.32681   0.00000  Uiso   1.00
C270   C     0.47349   0.49630   0.35194   0.00000  Uiso   1.00
Zn271  Zn    0.44896   0.50001   0.25000   0.00000  Uiso   1.00
Zn272  Zn    0.55104   0.49999   0.25000   0.00000  Uiso   1.00
O273   O     0.46177   0.43893   0.25000   0.00000  Uiso   1.00
O274   O     0.53821   0.43892   0.25000   0.00000  Uiso   1.00
O275   O     0.48076   0.50001   0.17319   0.00000  Uiso   1.00
O276   O     0.55720   0.50000   0.17319   0.00000  Uiso   1.00
C277   C     0.50027   0.42004   0.24966   0.00000  Uiso   1.00
C278   C     0.52687   0.49989   0.14775   0.00000  Uiso   1.00
C279   C     0.59760   0.46309   0.00594   0.00000  Uiso   1.00
H280   H     0.61465   0.47008   0.07847   0.00000  Uiso   1.00
H281   H     0.60337   0.43607   0.40743   0.00000  Uiso   1.00
H282   H     0.63216   0.44869   0.48333   0.00000  Uiso   1.00
C283   C     0.54355   0.49458   0.08905   0.00000  Uiso   1.00
C284   C     0.40935   0.49859   0.44290   0.00000  Uiso   1.00
C285   C     0.39598   0.50182   0.49891   0.00000  Uiso   1.00
C286   C     0.43062   0.49761   0.02308   0.00000  Uiso   1.00
C287   C     0.47899   0.48717   0.49142   0.00000  Uiso   1.00
C288   C     0.49037   0.47763   0.43592   0.00000  Uiso   1.00
C289   C     0.51628   0.48523   0.01323   0.00000  Uiso   1.00
C290   C     0.56158   0.46683   0.48288   0.00000  Uiso   1.00
C291   C     0.56966   0.45159   0.43063   0.00000  Uiso   1.00
C292   C     0.53449   0.45678   0.40742   0.00000  Uiso   1.00
C293   C     0.50980   0.50183   0.06432   0.00000  Uiso   1.00
C294   C     0.58816   0.47603   0.05956   0.00000  Uiso   1.00
C295   C     0.45708   0.48925   0.41071   0.00000  Uiso   1.00
H296   H     0.47767   0.51956   0.08660   0.00000  Uiso   1.00
H297   H     0.38259   0.50403   0.42479   0.00000  Uiso   1.00
H298   H     0.41822   0.50097   0.06672   0.00000  Uiso   1.00
H299   H     0.35900   0.50920   0.02350   0.00000  Uiso   1.00
H300   H     0.54184   0.44326   0.36745   0.00000  Uiso   1.00
C301   C     0.52548   0.64513   0.27753   0.00000  Uiso   1.00
H302   H     0.54419   0.62842   0.30012   0.00000  Uiso   1.00
C303   C     0.52592   0.35472   0.27715   0.00000  Uiso   1.00
H304   H     0.54490   0.37131   0.29949   0.00000  Uiso   1.00
C305   C     0.50083   0.37591   0.24898   0.00000  Uiso   1.00
C306   C     0.47605   0.35489   0.22034   0.00000  Uiso   1.00
H307   H     0.45724   0.37163   0.19790   0.00000  Uiso   1.00
C308   C     0.47616   0.64528   0.22013   0.00000  Uiso   1.00
H309   H     0.45784   0.62865   0.19714   0.00000  Uiso   1.00
C310   C     0.50023   0.62410   0.24941   0.00000  Uiso   1.00
C311   C     0.65263   0.47160   0.21933   0.00000  Uiso   1.00
H312   H     0.64250   0.44886   0.19471   0.00000  Uiso   1.00
C313   C     0.36717   0.47159   0.21934   0.00000  Uiso   1.00
H314   H     0.39310   0.44884   0.19478   0.00000  Uiso   1.00
N315   N     0.38093   0.50001   0.25002   0.00000  Uiso   1.00
C316   C     0.34669   0.52868   0.28056   0.00000  Uiso   1.00
C317   C     0.63239   0.52833   0.28041   0.00000  Uiso   1.00
H318   H     0.60589   0.55082   0.30480   0.00000  Uiso   1.00
N319   N     0.61906   0.49998   0.25001   0.00000  Uiso   1.00
C320   C     0.35697   0.56041   0.31551   0.00000  Uiso   1.00
C321   C     0.34343   0.55320   0.37131   0.00000  Uiso   1.00
C322   C     0.34784   0.58480   0.40632   0.00000  Uiso   1.00
C323   C     0.36405   0.62431   0.38596   0.00000  Uiso   1.00
C324   C     0.37469   0.63249   0.33087   0.00000  Uiso   1.00
C325   C     0.37037   0.60083   0.29587   0.00000  Uiso   1.00
H326   H     0.66160   0.52341   0.38768   0.00000  Uiso   1.00
H327   H     0.33793   0.57886   0.44931   0.00000  Uiso   1.00
H328   H     0.36725   0.64884   0.41306   0.00000  Uiso   1.00
H329   H     0.38570   0.66349   0.31546   0.00000  Uiso   1.00
H330   H     0.37712   0.60778   0.25362   0.00000  Uiso   1.00
O331   O     0.79512   0.56108   0.25001   0.00000  Uiso   1.00
O332   O     0.87157   0.56107   0.25001   0.00000  Uiso   1.00
C333   C     0.83327   0.57996   0.24991   0.00000  Uiso   1.00
O334   O     0.77613   0.50000   0.32681   0.00000  Uiso   1.00
O335   O     0.85258   0.49999   0.32681   0.00000  Uiso   1.00
C336   C     0.80682   0.49630   0.35194   0.00000  Uiso   1.00
Zn337  Zn    0.78229   0.50001   0.25000   0.00000  Uiso   1.00
Zn338  Zn    0.88438   0.49999   0.25000   0.00000  Uiso   1.00
O339   O     0.79510   0.43893   0.25000   0.00000  Uiso   1.00
O340   O     0.87154   0.43892   0.25000   0.00000  Uiso   1.00
O341   O     0.81409   0.50001   0.17319   0.00000  Uiso   1.00
O342   O     0.89053   0.50000   0.17319   0.00000  Uiso   1.00
C343   C     0.83361   0.42004   0.24966   0.00000  Uiso   1.00
C344   C     0.86021   0.49989   0.14775   0.00000  Uiso   1.00
C345   C     0.93094   0.46309   0.00594   0.00000  Uiso   1.00
H346   H     0.94799   0.47008   0.07847   0.00000  Uiso   1.00
H347   H     0.93670   0.43607   0.40743   0.00000  Uiso   1.00
H348   H     0.96550   0.44869   0.48333   0.00000  Uiso   1.00
C349   C     0.87688   0.49458   0.08905   0.00000  Uiso   1.00
C350   C     0.74269   0.49859   0.44290   0.00000  Uiso   1.00
C351   C     0.72931   0.50182   0.49891   0.00000  Uiso   1.00
C352   C     0.76395   0.49761   0.02308   0.00000  Uiso   1.00
C353   C     0.81233   0.48717   0.49142   0.00000  Uiso   1.00
C354   C     0.82370   0.47763   0.43592   0.00000  Uiso   1.00
C355   C     0.84961   0.48523   0.01323   0.00000  Uiso   1.00
C356   C     0.89491   0.46683   0.48288   0.00000  Uiso   1.00
C357   C     0.90299   0.45159   0.43063   0.00000  Uiso   1.00
C358   C     0.86783   0.45678   0.40742   0.00000  Uiso   1.00
C359   C     0.84314   0.50183   0.06432   0.00000  Uiso   1.00
C360   C     0.92149   0.47603   0.05956   0.00000  Uiso   1.00
C361   C     0.79041   0.48925   0.41071   0.00000  Uiso   1.00
H362   H     0.81100   0.51956   0.08660   0.00000  Uiso   1.00
H363   H     0.71592   0.50403   0.42479   0.00000  Uiso   1.00
H364   H     0.75155   0.50097   0.06672   0.00000  Uiso   1.00
H365   H     0.69234   0.50920   0.02350   0.00000  Uiso   1.00
H366   H     0.87517   0.44326   0.36745   0.00000  Uiso   1.00
C367   C     0.85881   0.64513   0.27753   0.00000  Uiso   1.00
H368   H     0.87752   0.62842   0.30012   0.00000  Uiso   1.00
C369   C     0.85926   0.35472   0.27715   0.00000  Uiso   1.00
H370   H     0.87823   0.37131   0.29949   0.00000  Uiso   1.00
C371   C     0.83417   0.37591   0.24898   0.00000  Uiso   1.00
C372   C     0.80939   0.35489   0.22034   0.00000  Uiso   1.00
H373   H     0.79057   0.37163   0.19790   0.00000  Uiso   1.00
C374   C     0.80949   0.64528   0.22013   0.00000  Uiso   1.00
H375   H     0.79118   0.62865   0.19714   0.00000  Uiso   1.00
C376   C     0.83356   0.62410   0.24941   0.00000  Uiso   1.00
C377   C     0.98596   0.47160   0.21933   0.00000  Uiso   1.00
H378   H     0.97584   0.44886   0.19471   0.00000  Uiso   1.00
C379   C     0.70050   0.47159   0.21934   0.00000  Uiso   1.00
H380   H     0.72643   0.44884   0.19478   0.00000  Uiso   1.00
N381   N     0.71426   0.50001   0.25002   0.00000  Uiso   1.00
C382   C     0.68003   0.52868   0.28056   0.00000  Uiso   1.00
C383   C     0.96572   0.52833   0.28041   0.00000  Uiso   1.00
H384   H     0.93922   0.55082   0.30480   0.00000  Uiso   1.00
N385   N     0.95239   0.49998   0.25001   0.00000  Uiso   1.00
C386   C     0.69031   0.56041   0.31551   0.00000  Uiso   1.00
C387   C     0.67676   0.55320   0.37131   0.00000  Uiso   1.00
C388   C     0.68117   0.58480   0.40632   0.00000  Uiso   1.00
C389   C     0.69738   0.62431   0.38596   0.00000  Uiso   1.00
C390   C     0.70802   0.63249   0.33087   0.00000  Uiso   1.00
C391   C     0.70371   0.60083   0.29587   0.00000  Uiso   1.00
H392   H     0.99493   0.52341   0.38768   0.00000  Uiso   1.00
H393   H     0.67126   0.57886   0.44931   0.00000  Uiso   1.00
H394   H     0.70058   0.64884   0.41306   0.00000  Uiso   1.00
H395   H     0.71903   0.66349   0.31546   0.00000  Uiso   1.00
H396   H     0.71045   0.60778   0.25362   0.00000  Uiso   1.00
O397   O     0.12846   0.89442   0.25001   0.00000  Uiso   1.00
O398   O     0.20490   0.89441   0.25001   0.00000  Uiso   1.00
C399   C     0.16660   0.91329   0.24991   0.00000  Uiso   1.00
O400   O     0.10947   0.83333   0.32681   0.00000  Uiso   1.00
O401   O     0.18591   0.83332   0.32681   0.00000  Uiso   1.00
C402   C     0.14016   0.82964   0.35194   0.00000  Uiso   1.00
Zn403  Zn    0.11562   0.83334   0.25000   0.00000  Uiso   1.00
Zn404  Zn    0.21771   0.83333   0.25000   0.00000  Uiso   1.00
O405   O     0.12843   0.77226   0.25000   0.00000  Uiso   1.00
O406   O     0.20488   0.77225   0.25000   0.00000  Uiso   1.00
O407   O     0.14742   0.83335   0.17319   0.00000  Uiso   1.00
O408   O     0.22387   0.83334   0.17319   0.00000  Uiso   1.00
C409   C     0.16694   0.75338   0.24966   0.00000  Uiso   1.00
C410   C     0.19354   0.83323   0.14775   0.00000  Uiso   1.00
C411   C     0.26427   0.79643   0.00594   0.00000  Uiso   1.00
H412   H     0.28132   0.80341   0.07847   0.00000  Uiso   1.00
H413   H     0.27003   0.76941   0.40743   0.00000  Uiso   1.00
H414   H     0.29883   0.78202   0.48333   0.00000  Uiso   1.00
C415   C     0.21021   0.82792   0.08905   0.00000  Uiso   1.00
C416   C     0.07602   0.83193   0.44290   0.00000  Uiso   1.00
C417   C     0.06265   0.83515   0.49891   0.00000  Uiso   1.00
C418   C     0.09729   0.83094   0.02308   0.00000  Uiso   1.00
C419   C     0.14566   0.82050   0.49142   0.00000  Uiso   1.00
C420   C     0.15704   0.81096   0.43592   0.00000  Uiso   1.00
C421   C     0.18295   0.81857   0.01323   0.00000  Uiso   1.00
C422   C     0.22824   0.80017   0.48288   0.00000  Uiso   1.00
C423   C     0.23633   0.78493   0.43063   0.00000  Uiso   1.00
C424   C     0.20116   0.79011   0.40742   0.00000  Uiso   1.00
C425   C     0.17647   0.83516   0.06432   0.00000  Uiso   1.00
C426   C     0.25482   0.80937   0.05956   0.00000  Uiso   1.00
C427   C     0.12374   0.82258   0.41071   0.00000  Uiso   1.00
H428   H     0.14434   0.85290   0.08660   0.00000  Uiso   1.00
H429   H     0.04925   0.83737   0.42479   0.00000  Uiso   1.00
H430   H     0.08489   0.83430   0.06672   0.00000  Uiso   1.00
H431   H     0.02567   0.84253   0.02350   0.00000  Uiso   1.00
H432   H     0.20851   0.77659   0.36745   0.00000  Uiso   1.00
C433   C     0.19214   0.97847   0.27753   0.00000  Uiso   1.00
H434   H     0.21086   0.96176   0.30012   0.00000  Uiso   1.00
C435   C     0.19259   0.68805   0.27715   0.00000  Uiso   1.00
H436   H     0.21157   0.70464   0.29949   0.00000  Uiso   1.00
C437   C     0.16750   0.70924   0.24898   0.00000  Uiso   1.00
C438   C     0.14272   0.68822   0.22034   0.00000  Uiso   1.00
H439   H     0.12390   0.70497   0.19790   0.00000  Uiso   1.00
C440   C     0.14283   0.97861   0.22013   0.00000  Uiso   1.00
H441   H     0.12451   0.96199   0.19714   0.00000  Uiso   1.00
C442   C     0.16690   0.95743   0.24941   0.00000  Uiso   1.00
C443   C     0.31930   0.80493   0.21933   0.00000  Uiso   1.00
H444   H     0.30917   0.78219   0.19471   0.00000  Uiso   1.00
C445   C     0.03383   0.80492   0.21934   0.00000  Uiso   1.00
H446   H     0.05977   0.78217   0.19478   0.00000  Uiso   1.00
N447   N     0.04760   0.83334   0.25002   0.00000  Uiso   1.00
C448   C     0.01336   0.86201   0.28056   0.00000  Uiso   1.00
C449   C     0.29906   0.86166   0.28041   0.00000  Uiso   1.00
H450   H     0.27256   0.88416   0.30480   0.00000  Uiso   1.00
N451   N     0.28573   0.83331   0.25001   0.00000  Uiso   1.00
C452   C     0.02364   0.89374   0.31551   0.00000  Uiso   1.00
C453   C     0.01009   0.88654   0.37131   0.00000  Uiso   1.00
C454   C     0.01451   0.91813   0.40632   0.00000  Uiso   1.00
C455   C     0.03072   0.95764   0.38596   0.00000  Uiso   1.00
C456   C     0.04136   0.96582   0.33087   0.00000  Uiso   1.00
C457   C     0.03704   0.93416   0.29587   0.00000  Uiso   1.00
H458   H     0.32826   0.85674   0.38768   0.00000  Uiso   1.00
H459   H     0.00459   0.91219   0.44931   0.00000  Uiso   1.00
H460   H     0.03391   0.98217   0.41306   0.00000  Uiso   1.00
H461   H     0.05236   0.99682   0.31546   0.00000  Uiso   1.00
H462   H     0.04379   0.94111   0.25362   0.00000  Uiso   1.00
O463   O     0.46179   0.89442   0.25001   0.00000  Uiso   1.00
O464   O     0.53823   0.89441   0.25001   0.00000  Uiso   1.00
C465   C     0.49993   0.91329   0.24991   0.00000  Uiso   1.00
O466   O     0.44280   0.83333   0.32681   0.00000  Uiso   1.00
O467   O     0.51924   0.83332   0.32681   0.00000  Uiso   1.00
C468   C     0.47349   0.82964   0.35194   0.00000  Uiso   1.00
Zn469  Zn    0.44896   0.83334   0.25000   0.00000  Uiso   1.00
Zn470  Zn    0.55104   0.83333   0.25000   0.00000  Uiso   1.00
O471   O     0.46177   0.77226   0.25000   0.00000  Uiso   1.00
O472   O     0.53821   0.77225   0.25000   0.00000  Uiso   1.00
O473   O     0.48076   0.83335   0.17319   0.00000  Uiso   1.00
O474   O     0.55720   0.83334   0.17319   0.00000  Uiso   1.00
C475   C     0.50027   0.75338   0.24966   0.00000  Uiso   1.00
C476   C     0.52687   0.83323   0.14775   0.00000  Uiso   1.00
C477   C     0.59760   0.79643   0.00594   0.00000  Uiso   1.00
H478   H     0.61465   0.80341   0.07847   0.00000  Uiso   1.00
H479   H     0.60337   0.76941   0.40743   0.00000  Uiso   1.00
H480   H     0.63216   0.78202   0.48333   0.00000  Uiso   1.00
C481   C     0.54355   0.82792   0.08905   0.00000  Uiso   1.00
C482   C     0.40935   0.83193   0.44290   0.00000  Uiso   1.00
C483   C     0.39598   0.83515   0.49891   0.00000  Uiso   1.00
C484   C     0.43062   0.83094   0.02308   0.00000  Uiso   1.00
C485   C     0.47899   0.82050   0.49142   0.00000  Uiso   1.00
C486   C     0.49037   0.81096   0.43592   0.00000  Uiso   1.00
C487   C     0.51628   0.81857   0.01323   0.00000  Uiso   1.00
C488   C     0.56158   0.80017   0.48288   0.00000  Uiso   1.00
C489   C     0.56966   0.78493   0.43063   0.00000  Uiso   1.00
C490   C     0.53449   0.79011   0.40742   0.00000  Uiso   1.00
C491   C     0.50980   0.83516   0.06432   0.00000  Uiso   1.00
C492   C     0.58816   0.80937   0.05956   0.00000  Uiso   1.00
C493   C     0.45708   0.82258   0.41071   0.00000  Uiso   1.00
H494   H     0.47767   0.85290   0.08660   0.00000  Uiso   1.00
H495   H     0.38259   0.83737   0.42479   0.00000  Uiso   1.00
H496   H     0.41822   0.83430   0.06672   0.00000  Uiso   1.00
H497   H     0.35900   0.84253   0.02350   0.00000  Uiso   1.00
H498   H     0.54184   0.77659   0.36745   0.00000  Uiso   1.00
C499   C     0.52548   0.97847   0.27753   0.00000  Uiso   1.00
H500   H     0.54419   0.96176   0.30012   0.00000  Uiso   1.00
C501   C     0.52592   0.68805   0.27715   0.00000  Uiso   1.00
H502   H     0.54490   0.70464   0.29949   0.00000  Uiso   1.00
C503   C     0.50083   0.70924   0.24898   0.00000  Uiso   1.00
C504   C     0.47605   0.68822   0.22034   0.00000  Uiso   1.00
H505   H     0.45724   0.70497   0.19790   0.00000  Uiso   1.00
C506   C     0.47616   0.97861   0.22013   0.00000  Uiso   1.00
H507   H     0.45784   0.96199   0.19714   0.00000  Uiso   1.00
C508   C     0.50023   0.95743   0.24941   0.00000  Uiso   1.00
C509   C     0.65263   0.80493   0.21933   0.00000  Uiso   1.00
H510   H     0.64250   0.78219   0.19471   0.00000  Uiso   1.00
C511   C     0.36717   0.80492   0.21934   0.00000  Uiso   1.00
H512   H     0.39310   0.78217   0.19478   0.00000  Uiso   1.00
N513   N     0.38093   0.83334   0.25002   0.00000  Uiso   1.00
C514   C     0.34669   0.86201   0.28056   0.00000  Uiso   1.00
C515   C     0.63239   0.86166   0.28041   0.00000  Uiso   1.00
H516   H     0.60589   0.88416   0.30480   0.00000  Uiso   1.00
N517   N     0.61906   0.83331   0.25001   0.00000  Uiso   1.00
C518   C     0.35697   0.89374   0.31551   0.00000  Uiso   1.00
C519   C     0.34343   0.88654   0.37131   0.00000  Uiso   1.00
C520   C     0.34784   0.91813   0.40632   0.00000  Uiso   1.00
C521   C     0.36405   0.95764   0.38596   0.00000  Uiso   1.00
C522   C     0.37469   0.96582   0.33087   0.00000  Uiso   1.00
C523   C     0.37037   0.93416   0.29587   0.00000  Uiso   1.00
H524   H     0.66160   0.85674   0.38768   0.00000  Uiso   1.00
H525   H     0.33793   0.91219   0.44931   0.00000  Uiso   1.00
H526   H     0.36725   0.98217   0.41306   0.00000  Uiso   1.00
H527   H     0.38570   0.99682   0.31546   0.00000  Uiso   1.00
H528   H     0.37712   0.94111   0.25362   0.00000  Uiso   1.00
O529   O     0.79512   0.89442   0.25001   0.00000  Uiso   1.00
O530   O     0.87157   0.89441   0.25001   0.00000  Uiso   1.00
C531   C     0.83327   0.91329   0.24991   0.00000  Uiso   1.00
O532   O     0.77613   0.83333   0.32681   0.00000  Uiso   1.00
O533   O     0.85258   0.83332   0.32681   0.00000  Uiso   1.00
C534   C     0.80682   0.82964   0.35194   0.00000  Uiso   1.00
Zn535  Zn    0.78229   0.83334   0.25000   0.00000  Uiso   1.00
Zn536  Zn    0.88438   0.83333   0.25000   0.00000  Uiso   1.00
O537   O     0.79510   0.77226   0.25000   0.00000  Uiso   1.00
O538   O     0.87154   0.77225   0.25000   0.00000  Uiso   1.00
O539   O     0.81409   0.83335   0.17319   0.00000  Uiso   1.00
O540   O     0.89053   0.83334   0.17319   0.00000  Uiso   1.00
C541   C     0.83361   0.75338   0.24966   0.00000  Uiso   1.00
C542   C     0.86021   0.83323   0.14775   0.00000  Uiso   1.00
C543   C     0.93094   0.79643   0.00594   0.00000  Uiso   1.00
H544   H     0.94799   0.80341   0.07847   0.00000  Uiso   1.00
H545   H     0.93670   0.76941   0.40743   0.00000  Uiso   1.00
H546   H     0.96550   0.78202   0.48333   0.00000  Uiso   1.00
C547   C     0.87688   0.82792   0.08905   0.00000  Uiso   1.00
C548   C     0.74269   0.83193   0.44290   0.00000  Uiso   1.00
C549   C     0.72931   0.83515   0.49891   0.00000  Uiso   1.00
C550   C     0.76395   0.83094   0.02308   0.00000  Uiso   1.00
C551   C     0.81233   0.82050   0.49142   0.00000  Uiso   1.00
C552   C     0.82370   0.81096   0.43592   0.00000  Uiso   1.00
C553   C     0.84961   0.81857   0.01323   0.00000  Uiso   1.00
C554   C     0.89491   0.80017   0.48288   0.00000  Uiso   1.00
C555   C     0.90299   0.78493   0.43063   0.00000  Uiso   1.00
C556   C     0.86783   0.79011   0.40742   0.00000  Uiso   1.00
C557   C     0.84314   0.83516   0.06432   0.00000  Uiso   1.00
C558   C     0.92149   0.80937   0.05956   0.00000  Uiso   1.00
C559   C     0.79041   0.82258   0.41071   0.00000  Uiso   1.00
H560   H     0.81100   0.85290   0.08660   0.00000  Uiso   1.00
H561   H     0.71592   0.83737   0.42479   0.00000  Uiso   1.00
H562   H     0.75155   0.83430   0.06672   0.00000  Uiso   1.00
H563   H     0.69234   0.84253   0.02350   0.00000  Uiso   1.00
H564   H     0.87517   0.77659   0.36745   0.00000  Uiso   1.00
C565   C     0.85881   0.97847   0.27753   0.00000  Uiso   1.00
H566   H     0.87752   0.96176   0.30012   0.00000  Uiso   1.00
C567   C     0.85926   0.68805   0.27715   0.00000  Uiso   1.00
H568   H     0.87823   0.70464   0.29949   0.00000  Uiso   1.00
C569   C     0.83417   0.70924   0.24898   0.00000  Uiso   1.00
C570   C     0.80939   0.68822   0.22034   0.00000  Uiso   1.00
H571   H     0.79057   0.70497   0.19790   0.00000  Uiso   1.00
C572   C     0.80949   0.97861   0.22013   0.00000  Uiso   1.00
H573   H     0.79118   0.96199   0.19714   0.00000  Uiso   1.00
C574   C     0.83356   0.95743   0.24941   0.00000  Uiso   1.00
C575   C     0.98596   0.80493   0.21933   0.00000  Uiso   1.00
H576   H     0.97584   0.78219   0.19471   0.00000  Uiso   1.00
C577   C     0.70050   0.80492   0.21934   0.00000  Uiso   1.00
H578   H     0.72643   0.78217   0.19478   0.00000  Uiso   1.00
N579   N     0.71426   0.83334   0.25002   0.00000  Uiso   1.00
C580   C     0.68003   0.86201   0.28056   0.00000  Uiso   1.00
C581   C     0.96572   0.86166   0.28041   0.00000  Uiso   1.00
H582   H     0.93922   0.88416   0.30480   0.00000  Uiso   1.00
N583   N     0.95239   0.83331   0.25001   0.00000  Uiso   1.00
C584   C     0.69031   0.89374   0.31551   0.00000  Uiso   1.00
C585   C     0.67676   0.88654   0.37131   0.00000  Uiso   1.00
C586   C     0.68117   0.91813   0.40632   0.00000  Uiso   1.00
C587   C     0.69738   0.95764   0.38596   0.00000  Uiso   1.00
C588   C     0.70802   0.96582   0.33087   0.00000  Uiso   1.00
C589   C     0.70371   0.93416   0.29587   0.00000  Uiso   1.00
H590   H     0.99493   0.85674   0.38768   0.00000  Uiso   1.00
H591   H     0.67126   0.91219   0.44931   0.00000  Uiso   1.00
H592   H     0.70058   0.98217   0.41306   0.00000  Uiso   1.00
H593   H     0.71903   0.99682   0.31546   0.00000  Uiso   1.00
H594   H     0.71045   0.94111   0.25362   0.00000  Uiso   1.00
O595   O     0.12846   0.22775   0.75001   0.00000  Uiso   1.00
O596   O     0.20490   0.22774   0.75001   0.00000  Uiso   1.00
C597   C     0.16660   0.24662   0.74991   0.00000  Uiso   1.00
O598   O     0.10947   0.16666   0.82681   0.00000  Uiso   1.00
O599   O     0.18591   0.16665   0.82681   0.00000  Uiso   1.00
C600   C     0.14016   0.16297   0.85194   0.00000  Uiso   1.00
Zn601  Zn    0.11562   0.16667   0.75000   0.00000  Uiso   1.00
Zn602  Zn    0.21771   0.16666   0.75000   0.00000  Uiso   1.00
O603   O     0.12843   0.10559   0.75000   0.00000  Uiso   1.00
O604   O     0.20488   0.10558   0.75000   0.00000  Uiso   1.00
O605   O     0.14742   0.16668   0.67319   0.00000  Uiso   1.00
O606   O     0.22387   0.16667   0.67319   0.00000  Uiso   1.00
C607   C     0.16694   0.08671   0.74966   0.00000  Uiso   1.00
C608   C     0.19354   0.16656   0.64775   0.00000  Uiso   1.00
C609   C     0.26427   0.12976   0.50594   0.00000  Uiso   1.00
H610   H     0.28132   0.13675   0.57847   0.00000  Uiso   1.00
H611   H     0.27003   0.10274   0.90743   0.00000  Uiso   1.00
H612   H     0.29883   0.11536   0.98333   0.00000  Uiso   1.00
C613   C     0.21021   0.16125   0.58905   0.00000  Uiso   1.00
C614   C     0.07602   0.16526   0.94290   0.00000  Uiso   1.00
C615   C     0.06265   0.16849   0.99891   0.00000  Uiso   1.00
C616   C     0.09729   0.16428   0.52308   0.00000  Uiso   1.00
C617   C     0.14566   0.15384   0.99142   0.00000  Uiso   1.00
C618   C     0.15704   0.14429   0.93592   0.00000  Uiso   1.00
C619   C     0.18295   0.15190   0.51323   0.00000  Uiso   1.00
C620   C     0.22824   0.13350   0.98288   0.00000  Uiso   1.00
C621   C     0.23633   0.11826   0.93063   0.00000  Uiso   1.00
C622   C     0.20116   0.12344   0.90742   0.00000  Uiso   1.00
C623   C     0.17647   0.16850   0.56432   0.00000  Uiso   1.00
C624   C     0.25482   0.14270   0.55956   0.00000  Uiso   1.00
C625   C     0.12374   0.15591   0.91071   0.00000  Uiso   1.00
H626   H     0.14434   0.18623   0.58660   0.00000  Uiso   1.00
H627   H     0.04925   0.17070   0.92479   0.00000  Uiso   1.00
H628   H     0.08489   0.16763   0.56672   0.00000  Uiso   1.00
H629   H     0.02567   0.17587   0.52350   0.00000  Uiso   1.00
H630   H     0.20851   0.10993   0.86745   0.00000  Uiso   1.00
C631   C     0.19214   0.31180   0.77753   0.00000  Uiso   1.00
H632   H     0.21086   0.29509   0.80012   0.00000  Uiso   1.00
C633   C     0.19259   0.02138   0.77715   0.00000  Uiso   1.00
H634   H     0.21157   0.03797   0.79949   0.00000  Uiso   1.00
C635   C     0.16750   0.04257   0.74898   0.00000  Uiso   1.00
C636   C     0.14272   0.02155   0.72034   0.00000  Uiso   1.00
H637   H     0.12390   0.03830   0.69790   0.00000  Uiso   1.00
C638   C     0.14283   0.31194   0.72013   0.00000  Uiso   1.00
H639   H     0.12451   0.29532   0.69714   0.00000  Uiso   1.00
C640   C     0.16690   0.29077   0.74941   0.00000  Uiso   1.00
C641   C     0.31930   0.13826   0.71933   0.00000  Uiso   1.00
H642   H     0.30917   0.11552   0.69471   0.00000  Uiso   1.00
C643   C     0.03383   0.13826   0.71934   0.00000  Uiso   1.00
H644   H     0.05977   0.11551   0.69478   0.00000  Uiso   1.00
N645   N     0.04760   0.16668   0.75002   0.00000  Uiso   1.00
C646   C     0.01336   0.19534   0.78056   0.00000  Uiso   1.00
C647   C     0.29906   0.19499   0.78041   0.00000  Uiso   1.00
H648   H     0.27256   0.21749   0.80480   0.00000  Uiso   1.00
N649   N     0.28573   0.16665   0.75001   0.00000  Uiso   1.00
C650   C     0.02364   0.22708   0.81551   0.00000  Uiso   1.00
C651   C     0.01009   0.21987   0.87131   0.00000  Uiso   1.00
C652   C     0.01451   0.25147   0.90632   0.00000  Uiso   1.00
C653   C     0.03072   0.29097   0.88596   0.00000  Uiso   1.00
C654   C     0.04136   0.29916   0.83087   0.00000  Uiso   1.00
C655   C     0.03704   0.26750   0.79587   0.00000  Uiso   1.00
H656   H     0.32826   0.19007   0.88768   0.00000  Uiso   1.00
H657   H     0.00459   0.24552   0.94931   0.00000  Uiso   1.00
H658   H     0.03391   0.31550   0.91306   0.00000  Uiso   1.00
H659   H     0.05236   0.33015   0.81546   0.00000  Uiso   1.00
H660   H     0.04379   0.27444   0.75362   0.00000  Uiso   1.00
O661   O     0.46179   0.22775   0.75001   0.00000  Uiso   1.00
O662   O     0.53823   0.22774   0.75001   0.00000  Uiso   1.00
C663   C     0.49993   0.24662   0.74991   0.00000  Uiso   1.00
O664   O     0.44280   0.16666   0.82681   0.00000  Uiso   1.00
O665   O     0.51924   0.16665   0.82681   0.00000  Uiso   1.00
C666   C     0.47349   0.16297   0.85194   0.00000  Uiso   1.00
Zn667  Zn    0.44896   0.16667   0.75000   0.00000  Uiso   1.00
Zn668  Zn    0.55104   0.16666   0.75000   0.00000  Uiso   1.00
O669   O     0.46177   0.10559   0.75000   0.00000  Uiso   1.00
O670   O     0.53821   0.10558   0.75000   0.00000  Uiso   1.00
O671   O     0.48076   0.16668   0.67319   0.00000  Uiso   1.00
O672   O     0.55720   0.16667   0.67319   0.00000  Uiso   1.00
C673   C     0.50027   0.08671   0.74966   0.00000  Uiso   1.00
C674   C     0.52687   0.16656   0.64775   0.00000  Uiso   1.00
C675   C     0.59760   0.12976   0.50594   0.00000  Uiso   1.00
H676   H     0.61465   0.13675   0.57847   0.00000  Uiso   1.00
H677   H     0.60337   0.10274   0.90743   0.00000  Uiso   1.00
H678   H     0.63216   0.11536   0.98333   0.00000  Uiso   1.00
C679   C     0.54355   0.16125   0.58905   0.00000  Uiso   1.00
C680   C     0.40935   0.16526   0.94290   0.00000  Uiso   1.00
C681   C     0.39598   0.16849   0.99891   0.00000  Uiso   1.00
C682   C     0.43062   0.16428   0.52308   0.00000  Uiso   1.00
C683   C     0.47899   0.15384   0.99142   0.00000  Uiso   1.00
C684   C     0.49037   0.14429   0.93592   0.00000  Uiso   1.00
C685   C     0.51628   0.15190   0.51323   0.00000  Uiso   1.00
C686   C     0.56158   0.13350   0.98288   0.00000  Uiso   1.00
C687   C     0.56966   0.11826   0.93063   0.00000  Uiso   1.00
C688   C     0.53449   0.12344   0.90742   0.00000  Uiso   1.00
C689   C     0.50980   0.16850   0.56432   0.00000  Uiso   1.00
C690   C     0.58816   0.14270   0.55956   0.00000  Uiso   1.00
C691   C     0.45708   0.15591   0.91071   0.00000  Uiso   1.00
H692   H     0.47767   0.18623   0.58660   0.00000  Uiso   1.00
H693   H     0.38259   0.17070   0.92479   0.00000  Uiso   1.00
H694   H     0.41822   0.16763   0.56672   0.00000  Uiso   1.00
H695   H     0.35900   0.17587   0.52350   0.00000  Uiso   1.00
H696   H     0.54184   0.10993   0.86745   0.00000  Uiso   1.00
C697   C     0.52548   0.31180   0.77753   0.00000  Uiso   1.00
H698   H     0.54419   0.29509   0.80012   0.00000  Uiso   1.00
C699   C     0.52592   0.02138   0.77715   0.00000  Uiso   1.00
H700   H     0.54490   0.03797   0.79949   0.00000  Uiso   1.00
C701   C     0.50083   0.04257   0.74898   0.00000  Uiso   1.00
C702   C     0.47605   0.02155   0.72034   0.00000  Uiso   1.00
H703   H     0.45724   0.03830   0.69790   0.00000  Uiso   1.00
C704   C     0.47616   0.31194   0.72013   0.00000  Uiso   1.00
H705   H     0.45784   0.29532   0.69714   0.00000  Uiso   1.00
C706   C     0.50023   0.29077   0.74941   0.00000  Uiso   1.00
C707   C     0.65263   0.13826   0.71933   0.00000  Uiso   1.00
H708   H     0.64250   0.11552   0.69471   0.00000  Uiso   1.00
C709   C     0.36717   0.13826   0.71934   0.00000  Uiso   1.00
H710   H     0.39310   0.11551   0.69478   0.00000  Uiso   1.00
N711   N     0.38093   0.16668   0.75002   0.00000  Uiso   1.00
C712   C     0.34669   0.19534   0.78056   0.00000  Uiso   1.00
C713   C     0.63239   0.19499   0.78041   0.00000  Uiso   1.00
H714   H     0.60589   0.21749   0.80480   0.00000  Uiso   1.00
N715   N     0.61906   0.16665   0.75001   0.00000  Uiso   1.00
C716   C     0.35697   0.22708   0.81551   0.00000  Uiso   1.00
C717   C     0.34343   0.21987   0.87131   0.00000  Uiso   1.00
C718   C     0.34784   0.25147   0.90632   0.00000  Uiso   1.00
C719   C     0.36405   0.29097   0.88596   0.00000  Uiso   1.00
C720   C     0.37469   0.29916   0.83087   0.00000  Uiso   1.00
C721   C     0.37037   0.26750   0.79587   0.00000  Uiso   1.00
H722   H     0.66160   0.19007   0.88768   0.00000  Uiso   1.00
H723   H     0.33793   0.24552   0.94931   0.00000  Uiso   1.00
H724   H     0.36725   0.31550   0.91306   0.00000  Uiso   1.00
H725   H     0.38570   0.33015   0.81546   0.00000  Uiso   1.00
H726   H     0.37712   0.27444   0.75362   0.00000  Uiso   1.00
O727   O     0.79512   0.22775   0.75001   0.00000  Uiso   1.00
O728   O     0.87157   0.22774   0.75001   0.00000  Uiso   1.00
C729   C     0.83327   0.24662   0.74991   0.00000  Uiso   1.00
O730   O     0.77613   0.16666   0.82681   0.00000  Uiso   1.00
O731   O     0.85258   0.16665   0.82681   0.00000  Uiso   1.00
C732   C     0.80682   0.16297   0.85194   0.00000  Uiso   1.00
Zn733  Zn    0.78229   0.16667   0.75000   0.00000  Uiso   1.00
Zn734  Zn    0.88438   0.16666   0.75000   0.00000  Uiso   1.00
O735   O     0.79510   0.10559   0.75000   0.00000  Uiso   1.00
O736   O     0.87154   0.10558   0.75000   0.00000  Uiso   1.00
O737   O     0.81409   0.16668   0.67319   0.00000  Uiso   1.00
O738   O     0.89053   0.16667   0.67319   0.00000  Uiso   1.00
C739   C     0.83361   0.08671   0.74966   0.00000  Uiso   1.00
C740   C     0.86021   0.16656   0.64775   0.00000  Uiso   1.00
C741   C     0.93094   0.12976   0.50594   0.00000  Uiso   1.00
H742   H     0.94799   0.13675   0.57847   0.00000  Uiso   1.00
H743   H     0.93670   0.10274   0.90743   0.00000  Uiso   1.00
H744   H     0.96550   0.11536   0.98333   0.00000  Uiso   1.00
C745   C     0.87688   0.16125   0.58905   0.00000  Uiso   1.00
C746   C     0.74269   0.16526   0.94290   0.00000  Uiso   1.00
C747   C     0.72931   0.16849   0.99891   0.00000  Uiso   1.00
C748   C     0.76395   0.16428   0.52308   0.00000  Uiso   1.00
C749   C     0.81233   0.15384   0.99142   0.00000  Uiso   1.00
C750   C     0.82370   0.14429   0.93592   0.00000  Uiso   1.00
C751   C     0.84961   0.15190   0.51323   0.00000  Uiso   1.00
C752   C     0.89491   0.13350   0.98288   0.00000  Uiso   1.00
C753   C     0.90299   0.11826   0.93063   0.00000  Uiso   1.00
C754   C     0.86783   0.12344   0.90742   0.00000  Uiso   1.00
C755   C     0.84314   0.16850   0.56432   0.00000  Uiso   1.00
C756   C     0.92149   0.14270   0.55956   0.00000  Uiso   1.00
C757   C     0.79041   0.15591   0.91071   0.00000  Uiso   1.00
H758   H     0.81100   0.18623   0.58660   0.00000  Uiso   1.00
H759   H     0.71592   0.17070   0.92479   0.00000  Uiso   1.00
H760   H     0.75155   0.16763   0.56672   0.00000  Uiso   1.00
H761   H     0.69234   0.17587   0.52350   0.00000  Uiso   1.00
H762   H     0.87517   0.10993   0.86745   0.00000  Uiso   1.00
C763   C     0.85881   0.31180   0.77753   0.00000  Uiso   1.00
H764   H     0.87752   0.29509   0.80012   0.00000  Uiso   1.00
C765   C     0.85926   0.02138   0.77715   0.00000  Uiso   1.00
H766   H     0.87823   0.03797   0.79949   0.00000  Uiso   1.00
C767   C     0.83417   0.04257   0.74898   0.00000  Uiso   1.00
C768   C     0.80939   0.02155   0.72034   0.00000  Uiso   1.00
H769   H     0.79057   0.03830   0.69790   0.00000  Uiso   1.00
C770   C     0.80949   0.31194   0.72013   0.00000  Uiso   1.00
H771   H     0.79118   0.29532   0.69714   0.00000  Uiso   1.00
C772   C     0.83356   0.29077   0.74941   0.00000  Uiso   1.00
C773   C     0.98596   0.13826   0.71933   0.00000  Uiso   1.00
H774   H     0.97584   0.11552   0.69471   0.00000  Uiso   1.00
C775   C     0.70050   0.13826   0.71934   0.00000  Uiso   1.00
H776   H     0.72643   0.11551   0.69478   0.00000  Uiso   1.00
N777   N     0.71426   0.16668   0.75002   0.00000  Uiso   1.00
C778   C     0.68003   0.19534   0.78056   0.00000  Uiso   1.00
C779   C     0.96572   0.19499   0.78041   0.00000  Uiso   1.00
H780   H     0.93922   0.21749   0.80480   0.00000  Uiso   1.00
N781   N     0.95239   0.16665   0.75001   0.00000  Uiso   1.00
C782   C     0.69031   0.22708   0.81551   0.00000  Uiso   1.00
C783   C     0.67676   0.21987   0.87131   0.00000  Uiso   1.00
C784   C     0.68117   0.25147   0.90632   0.00000  Uiso   1.00
C785   C     0.69738   0.29097   0.88596   0.00000  Uiso   1.00
C786   C     0.70802   0.29916   0.83087   0.00000  Uiso   1.00
C787   C     0.70371   0.26750   0.79587   0.00000  Uiso   1.00
H788   H     0.99493   0.19007   0.88768   0.00000  Uiso   1.00
H789   H     0.67126   0.24552   0.94931   0.00000  Uiso   1.00
H790   H     0.70058   0.31550   0.91306   0.00000  Uiso   1.00
H791   H     0.71903   0.33015   0.81546   0.00000  Uiso   1.00
H792   H     0.71045   0.27444   0.75362   0.00000  Uiso   1.00
O793   O     0.12846   0.56108   0.75001   0.00000  Uiso   1.00
O794   O     0.20490   0.56107   0.75001   0.00000  Uiso   1.00
C795   C     0.16660   0.57996   0.74991   0.00000  Uiso   1.00
O796   O     0.10947   0.50000   0.82681   0.00000  Uiso   1.00
O797   O     0.18591   0.49999   0.82681   0.00000  Uiso   1.00
C798   C     0.14016   0.49630   0.85194   0.00000  Uiso   1.00
Zn799  Zn    0.11562   0.50001   0.75000   0.00000  Uiso   1.00
Zn800  Zn    0.21771   0.49999   0.75000   0.00000  Uiso   1.00
O801   O     0.12843   0.43893   0.75000   0.00000  Uiso   1.00
O802   O     0.20488   0.43892   0.75000   0.00000  Uiso   1.00
O803   O     0.14742   0.50001   0.67319   0.00000  Uiso   1.00
O804   O     0.22387   0.50000   0.67319   0.00000  Uiso   1.00
C805   C     0.16694   0.42004   0.74966   0.00000  Uiso   1.00
C806   C     0.19354   0.49989   0.64775   0.00000  Uiso   1.00
C807   C     0.26427   0.46309   0.50594   0.00000  Uiso   1.00
H808   H     0.28132   0.47008   0.57847   0.00000  Uiso   1.00
H809   H     0.27003   0.43607   0.90743   0.00000  Uiso   1.00
H810   H     0.29883   0.44869   0.98333   0.00000  Uiso   1.00
C811   C     0.21021   0.49458   0.58905   0.00000  Uiso   1.00
C812   C     0.07602   0.49859   0.94290   0.00000  Uiso   1.00
C813   C     0.06265   0.50182   0.99891   0.00000  Uiso   1.00
C814   C     0.09729   0.49761   0.52308   0.00000  Uiso   1.00
C815   C     0.14566   0.48717   0.99142   0.00000  Uiso   1.00
C816   C     0.15704   0.47763   0.93592   0.00000  Uiso   1.00
C817   C     0.18295   0.48523   0.51323   0.00000  Uiso   1.00
C818   C     0.22824   0.46683   0.98288   0.00000  Uiso   1.00
C819   C     0.23633   0.45159   0.93063   0.00000  Uiso   1.00
C820   C     0.20116   0.45678   0.90742   0.00000  Uiso   1.00
C821   C     0.17647   0.50183   0.56432   0.00000  Uiso   1.00
C822   C     0.25482   0.47603   0.55956   0.00000  Uiso   1.00
C823   C     0.12374   0.48925   0.91071   0.00000  Uiso   1.00
H824   H     0.14434   0.51956   0.58660   0.00000  Uiso   1.00
H825   H     0.04925   0.50403   0.92479   0.00000  Uiso   1.00
H826   H     0.08489   0.50097   0.56672   0.00000  Uiso   1.00
H827   H     0.02567   0.50920   0.52350   0.00000  Uiso   1.00
H828   H     0.20851   0.44326   0.86745   0.00000  Uiso   1.00
C829   C     0.19214   0.64513   0.77753   0.00000  Uiso   1.00
H830   H     0.21086   0.62842   0.80012   0.00000  Uiso   1.00
C831   C     0.19259   0.35472   0.77715   0.00000  Uiso   1.00
H832   H     0.21157   0.37131   0.79949   0.00000  Uiso   1.00
C833   C     0.16750   0.37591   0.74898   0.00000  Uiso   1.00
C834   C     0.14272   0.35489   0.72034   0.00000  Uiso   1.00
H835   H     0.12390   0.37163   0.69790   0.00000  Uiso   1.00
C836   C     0.14283   0.64528   0.72013   0.00000  Uiso   1.00
H837   H     0.12451   0.62865   0.69714   0.00000  Uiso   1.00
C838   C     0.16690   0.62410   0.74941   0.00000  Uiso   1.00
C839   C     0.31930   0.47160   0.71933   0.00000  Uiso   1.00
H840   H     0.30917   0.44886   0.69471   0.00000  Uiso   1.00
C841   C     0.03383   0.47159   0.71934   0.00000  Uiso   1.00
H842   H     0.05977   0.44884   0.69478   0.00000  Uiso   1.00
N843   N     0.04760   0.50001   0.75002   0.00000  Uiso   1.00
C844   C     0.01336   0.52868   0.78056   0.00000  Uiso   1.00
C845   C     0.29906   0.52833   0.78041   0.00000  Uiso   1.00
H846   H     0.27256   0.55082   0.80480   0.00000  Uiso   1.00
N847   N     0.28573   0.49998   0.75001   0.00000  Uiso   1.00
C848   C     0.02364   0.56041   0.81551   0.00000  Uiso   1.00
C849   C     0.01009   0.55320   0.87131   0.00000  Uiso   1.00
C850   C     0.01451   0.58480   0.90632   0.00000  Uiso   1.00
C851   C     0.03072   0.62431   0.88596   0.00000  Uiso   1.00
C852   C     0.04136   0.63249   0.83087   0.00000  Uiso   1.00
C853   C     0.03704   0.60083   0.79587   0.00000  Uiso   1.00
H854   H     0.32826   0.52341   0.88768   0.00000  Uiso   1.00
H855   H     0.00459   0.57886   0.94931   0.00000  Uiso   1.00
H856   H     0.03391   0.64884   0.91306   0.00000  Uiso   1.00
H857   H     0.05236   0.66349   0.81546   0.00000  Uiso   1.00
H858   H     0.04379   0.60778   0.75362   0.00000  Uiso   1.00
O859   O     0.46179   0.56108   0.75001   0.00000  Uiso   1.00
O860   O     0.53823   0.56107   0.75001   0.00000  Uiso   1.00
C861   C     0.49993   0.57996   0.74991   0.00000  Uiso   1.00
O862   O     0.44280   0.50000   0.82681   0.00000  Uiso   1.00
O863   O     0.51924   0.49999   0.82681   0.00000  Uiso   1.00
C864   C     0.47349   0.49630   0.85194   0.00000  Uiso   1.00
Zn865  Zn    0.44896   0.50001   0.75000   0.00000  Uiso   1.00
Zn866  Zn    0.55104   0.49999   0.75000   0.00000  Uiso   1.00
O867   O     0.46177   0.43893   0.75000   0.00000  Uiso   1.00
O868   O     0.53821   0.43892   0.75000   0.00000  Uiso   1.00
O869   O     0.48076   0.50001   0.67319   0.00000  Uiso   1.00
O870   O     0.55720   0.50000   0.67319   0.00000  Uiso   1.00
C871   C     0.50027   0.42004   0.74966   0.00000  Uiso   1.00
C872   C     0.52687   0.49989   0.64775   0.00000  Uiso   1.00
C873   C     0.59760   0.46309   0.50594   0.00000  Uiso   1.00
H874   H     0.61465   0.47008   0.57847   0.00000  Uiso   1.00
H875   H     0.60337   0.43607   0.90743   0.00000  Uiso   1.00
H876   H     0.63216   0.44869   0.98333   0.00000  Uiso   1.00
C877   C     0.54355   0.49458   0.58905   0.00000  Uiso   1.00
C878   C     0.40935   0.49859   0.94290   0.00000  Uiso   1.00
C879   C     0.39598   0.50182   0.99891   0.00000  Uiso   1.00
C880   C     0.43062   0.49761   0.52308   0.00000  Uiso   1.00
C881   C     0.47899   0.48717   0.99142   0.00000  Uiso   1.00
C882   C     0.49037   0.47763   0.93592   0.00000  Uiso   1.00
C883   C     0.51628   0.48523   0.51323   0.00000  Uiso   1.00
C884   C     0.56158   0.46683   0.98288   0.00000  Uiso   1.00
C885   C     0.56966   0.45159   0.93063   0.00000  Uiso   1.00
C886   C     0.53449   0.45678   0.90742   0.00000  Uiso   1.00
C887   C     0.50980   0.50183   0.56432   0.00000  Uiso   1.00
C888   C     0.58816   0.47603   0.55956   0.00000  Uiso   1.00
C889   C     0.45708   0.48925   0.91071   0.00000  Uiso   1.00
H890   H     0.47767   0.51956   0.58660   0.00000  Uiso   1.00
H891   H     0.38259   0.50403   0.92479   0.00000  Uiso   1.00
H892   H     0.41822   0.50097   0.56672   0.00000  Uiso   1.00
H893   H     0.35900   0.50920   0.52350   0.00000  Uiso   1.00
H894   H     0.54184   0.44326   0.86745   0.00000  Uiso   1.00
C895   C     0.52548   0.64513   0.77753   0.00000  Uiso   1.00
H896   H     0.54419   0.62842   0.80012   0.00000  Uiso   1.00
C897   C     0.52592   0.35472   0.77715   0.00000  Uiso   1.00
H898   H     0.54490   0.37131   0.79949   0.00000  Uiso   1.00
C899   C     0.50083   0.37591   0.74898   0.00000  Uiso   1.00
C900   C     0.47605   0.35489   0.72034   0.00000  Uiso   1.00
H901   H     0.45724   0.37163   0.69790   0.00000  Uiso   1.00
C902   C     0.47616   0.64528   0.72013   0.00000  Uiso   1.00
H903   H     0.45784   0.62865   0.69714   0.00000  Uiso   1.00
C904   C     0.50023   0.62410   0.74941   0.00000  Uiso   1.00
C905   C     0.65263   0.47160   0.71933   0.00000  Uiso   1.00
H906   H     0.64250   0.44886   0.69471   0.00000  Uiso   1.00
C907   C     0.36717   0.47159   0.71934   0.00000  Uiso   1.00
H908   H     0.39310   0.44884   0.69478   0.00000  Uiso   1.00
N909   N     0.38093   0.50001   0.75002   0.00000  Uiso   1.00
C910   C     0.34669   0.52868   0.78056   0.00000  Uiso   1.00
C911   C     0.63239   0.52833   0.78041   0.00000  Uiso   1.00
H912   H     0.60589   0.55082   0.80480   0.00000  Uiso   1.00
N913   N     0.61906   0.49998   0.75001   0.00000  Uiso   1.00
C914   C     0.35697   0.56041   0.81551   0.00000  Uiso   1.00
C915   C     0.34343   0.55320   0.87131   0.00000  Uiso   1.00
C916   C     0.34784   0.58480   0.90632   0.00000  Uiso   1.00
C917   C     0.36405   0.62431   0.88596   0.00000  Uiso   1.00
C918   C     0.37469   0.63249   0.83087   0.00000  Uiso   1.00
C919   C     0.37037   0.60083   0.79587   0.00000  Uiso   1.00
H920   H     0.66160   0.52341   0.88768   0.00000  Uiso   1.00
H921   H     0.33793   0.57886   0.94931   0.00000  Uiso   1.00
H922   H     0.36725   0.64884   0.91306   0.00000  Uiso   1.00
H923   H     0.38570   0.66349   0.81546   0.00000  Uiso   1.00
H924   H     0.37712   0.60778   0.75362   0.00000  Uiso   1.00
O925   O     0.79512   0.56108   0.75001   0.00000  Uiso   1.00
O926   O     0.87157   0.56107   0.75001   0.00000  Uiso   1.00
C927   C     0.83327   0.57996   0.74991   0.00000  Uiso   1.00
O928   O     0.77613   0.50000   0.82681   0.00000  Uiso   1.00
O929   O     0.85258   0.49999   0.82681   0.00000  Uiso   1.00
C930   C     0.80682   0.49630   0.85194   0.00000  Uiso   1.00
Zn931  Zn    0.78229   0.50001   0.75000   0.00000  Uiso   1.00
Zn932  Zn    0.88438   0.49999   0.75000   0.00000  Uiso   1.00
O933   O     0.79510   0.43893   0.75000   0.00000  Uiso   1.00
O934   O     0.87154   0.43892   0.75000   0.00000  Uiso   1.00
O935   O     0.81409   0.50001   0.67319   0.00000  Uiso   1.00
O936   O     0.89053   0.50000   0.67319   0.00000  Uiso   1.00
C937   C     0.83361   0.42004   0.74966   0.00000  Uiso   1.00
C938   C     0.86021   0.49989   0.64775   0.00000  Uiso   1.00
C939   C     0.93094   0.46309   0.50594   0.00000  Uiso   1.00
H940   H     0.94799   0.47008   0.57847   0.00000  Uiso   1.00
H941   H     0.93670   0.43607   0.90743   0.00000  Uiso   1.00
H942   H     0.96550   0.44869   0.98333   0.00000  Uiso   1.00
C943   C     0.87688   0.49458   0.58905   0.00000  Uiso   1.00
C944   C     0.74269   0.49859   0.94290   0.00000  Uiso   1.00
C945   C     0.72931   0.50182   0.99891   0.00000  Uiso   1.00
C946   C     0.76395   0.49761   0.52308   0.00000  Uiso   1.00
C947   C     0.81233   0.48717   0.99142   0.00000  Uiso   1.00
C948   C     0.82370   0.47763   0.93592   0.00000  Uiso   1.00
C949   C     0.84961   0.48523   0.51323   0.00000  Uiso   1.00
C950   C     0.89491   0.46683   0.98288   0.00000  Uiso   1.00
C951   C     0.90299   0.45159   0.93063   0.00000  Uiso   1.00
C952   C     0.86783   0.45678   0.90742   0.00000  Uiso   1.00
C953   C     0.84314   0.50183   0.56432   0.00000  Uiso   1.00
C954   C     0.92149   0.47603   0.55956   0.00000  Uiso   1.00
C955   C     0.79041   0.48925   0.91071   0.00000  Uiso   1.00
H956   H     0.81100   0.51956   0.58660   0.00000  Uiso   1.00
H957   H     0.71592   0.50403   0.92479   0.00000  Uiso   1.00
H958   H     0.75155   0.50097   0.56672   0.00000  Uiso   1.00
H959   H     0.69234   0.50920   0.52350   0.00000  Uiso   1.00
H960   H     0.87517   0.44326   0.86745   0.00000  Uiso   1.00
C961   C     0.85881   0.64513   0.77753   0.00000  Uiso   1.00
H962   H     0.87752   0.62842   0.80012   0.00000  Uiso   1.00
C963   C     0.85926   0.35472   0.77715   0.00000  Uiso   1.00
H964   H     0.87823   0.37131   0.79949   0.00000  Uiso   1.00
C965   C     0.83417   0.37591   0.74898   0.00000  Uiso   1.00
C966   C     0.80939   0.35489   0.72034   0.00000  Uiso   1.00
H967   H     0.79057   0.37163   0.69790   0.00000  Uiso   1.00
C968   C     0.80949   0.64528   0.72013   0.00000  Uiso   1.00
H969   H     0.79118   0.62865   0.69714   0.00000  Uiso   1.00
C970   C     0.83356   0.62410   0.74941   0.00000  Uiso   1.00
C971   C     0.98596   0.47160   0.71933   0.00000  Uiso   1.00
H972   H     0.97584   0.44886   0.69471   0.00000  Uiso   1.00
C973   C     0.70050   0.47159   0.71934   0.00000  Uiso   1.00
H974   H     0.72643   0.44884   0.69478   0.00000  Uiso   1.00
N975   N     0.71426   0.50001   0.75002   0.00000  Uiso   1.00
C976   C     0.68003   0.52868   0.78056   0.00000  Uiso   1.00
C977   C     0.96572   0.52833   0.78041   0.00000  Uiso   1.00
H978   H     0.93922   0.55082   0.80480   0.00000  Uiso   1.00
N979   N     0.95239   0.49998   0.75001   0.00000  Uiso   1.00
C980   C     0.69031   0.56041   0.81551   0.00000  Uiso   1.00
C981   C     0.67676   0.55320   0.87131   0.00000  Uiso   1.00
C982   C     0.68117   0.58480   0.90632   0.00000  Uiso   1.00
C983   C     0.69738   0.62431   0.88596   0.00000  Uiso   1.00
C984   C     0.70802   0.63249   0.83087   0.00000  Uiso   1.00
C985   C     0.70371   0.60083   0.79587   0.00000  Uiso   1.00
H986   H     0.99493   0.52341   0.88768   0.00000  Uiso   1.00
H987   H     0.67126   0.57886   0.94931   0.00000  Uiso   1.00
H988   H     0.70058   0.64884   0.91306   0.00000  Uiso   1.00
H989   H     0.71903   0.66349   0.81546   0.00000  Uiso   1.00
H990   H     0.71045   0.60778   0.75362   0.00000  Uiso   1.00
O991   O     0.12846   0.89442   0.75001   0.00000  Uiso   1.00
O992   O     0.20490   0.89441   0.75001   0.00000  Uiso   1.00
C993   C     0.16660   0.91329   0.74991   0.00000  Uiso   1.00
O994   O     0.10947   0.83333   0.82681   0.00000  Uiso   1.00
O995   O     0.18591   0.83332   0.82681   0.00000  Uiso   1.00
C996   C     0.14016   0.82964   0.85194   0.00000  Uiso   1.00
Zn997  Zn    0.11562   0.83334   0.75000   0.00000  Uiso   1.00
Zn998  Zn    0.21771   0.83333   0.75000   0.00000  Uiso   1.00
O999   O     0.12843   0.77226   0.75000   0.00000  Uiso   1.00
O1000  O     0.20488   0.77225   0.75000   0.00000  Uiso   1.00
O1001  O     0.14742   0.83335   0.67319   0.00000  Uiso   1.00
O1002  O     0.22387   0.83334   0.67319   0.00000  Uiso   1.00
C1003  C     0.16694   0.75338   0.74966   0.00000  Uiso   1.00
C1004  C     0.19354   0.83323   0.64775   0.00000  Uiso   1.00
C1005  C     0.26427   0.79643   0.50594   0.00000  Uiso   1.00
H1006  H     0.28132   0.80341   0.57847   0.00000  Uiso   1.00
H1007  H     0.27003   0.76941   0.90743   0.00000  Uiso   1.00
H1008  H     0.29883   0.78202   0.98333   0.00000  Uiso   1.00
C1009  C     0.21021   0.82792   0.58905   0.00000  Uiso   1.00
C1010  C     0.07602   0.83193   0.94290   0.00000  Uiso   1.00
C1011  C     0.06265   0.83515   0.99891   0.00000  Uiso   1.00
C1012  C     0.09729   0.83094   0.52308   0.00000  Uiso   1.00
C1013  C     0.14566   0.82050   0.99142   0.00000  Uiso   1.00
C1014  C     0.15704   0.81096   0.93592   0.00000  Uiso   1.00
C1015  C     0.18295   0.81857   0.51323   0.00000  Uiso   1.00
C1016  C     0.22824   0.80017   0.98288   0.00000  Uiso   1.00
C1017  C     0.23633   0.78493   0.93063   0.00000  Uiso   1.00
C1018  C     0.20116   0.79011   0.90742   0.00000  Uiso   1.00
C1019  C     0.17647   0.83516   0.56432   0.00000  Uiso   1.00
C1020  C     0.25482   0.80937   0.55956   0.00000  Uiso   1.00
C1021  C     0.12374   0.82258   0.91071   0.00000  Uiso   1.00
H1022  H     0.14434   0.85290   0.58660   0.00000  Uiso   1.00
H1023  H     0.04925   0.83737   0.92479   0.00000  Uiso   1.00
H1024  H     0.08489   0.83430   0.56672   0.00000  Uiso   1.00
H1025  H     0.02567   0.84253   0.52350   0.00000  Uiso   1.00
H1026  H     0.20851   0.77659   0.86745   0.00000  Uiso   1.00
C1027  C     0.19214   0.97847   0.77753   0.00000  Uiso   1.00
H1028  H     0.21086   0.96176   0.80012   0.00000  Uiso   1.00
C1029  C     0.19259   0.68805   0.77715   0.00000  Uiso   1.00
H1030  H     0.21157   0.70464   0.79949   0.00000  Uiso   1.00
C1031  C     0.16750   0.70924   0.74898   0.00000  Uiso   1.00
C1032  C     0.14272   0.68822   0.72034   0.00000  Uiso   1.00
H1033  H     0.12390   0.70497   0.69790   0.00000  Uiso   1.00
C1034  C     0.14283   0.97861   0.72013   0.00000  Uiso   1.00
H1035  H     0.12451   0.96199   0.69714   0.00000  Uiso   1.00
C1036  C     0.16690   0.95743   0.74941   0.00000  Uiso   1.00
C1037  C     0.31930   0.80493   0.71933   0.00000  Uiso   1.00
H1038  H     0.30917   0.78219   0.69471   0.00000  Uiso   1.00
C1039  C     0.03383   0.80492   0.71934   0.00000  Uiso   1.00
H1040  H     0.05977   0.78217   0.69478   0.00000  Uiso   1.00
N1041  N     0.04760   0.83334   0.75002   0.00000  Uiso   1.00
C1042  C     0.01336   0.86201   0.78056   0.00000  Uiso   1.00
C1043  C     0.29906   0.86166   0.78041   0.00000  Uiso   1.00
H1044  H     0.27256   0.88416   0.80480   0.00000  Uiso   1.00
N1045  N     0.28573   0.83331   0.75001   0.00000  Uiso   1.00
C1046  C     0.02364   0.89374   0.81551   0.00000  Uiso   1.00
C1047  C     0.01009   0.88654   0.87131   0.00000  Uiso   1.00
C1048  C     0.01451   0.91813   0.90632   0.00000  Uiso   1.00
C1049  C     0.03072   0.95764   0.88596   0.00000  Uiso   1.00
C1050  C     0.04136   0.96582   0.83087   0.00000  Uiso   1.00
C1051  C     0.03704   0.93416   0.79587   0.00000  Uiso   1.00
H1052  H     0.32826   0.85674   0.88768   0.00000  Uiso   1.00
H1053  H     0.00459   0.91219   0.94931   0.00000  Uiso   1.00
H1054  H     0.03391   0.98217   0.91306   0.00000  Uiso   1.00
H1055  H     0.05236   0.99682   0.81546   0.00000  Uiso   1.00
H1056  H     0.04379   0.94111   0.75362   0.00000  Uiso   1.00
O1057  O     0.46179   0.89442   0.75001   0.00000  Uiso   1.00
O1058  O     0.53823   0.89441   0.75001   0.00000  Uiso   1.00
C1059  C     0.49993   0.91329   0.74991   0.00000  Uiso   1.00
O1060  O     0.44280   0.83333   0.82681   0.00000  Uiso   1.00
O1061  O     0.51924   0.83332   0.82681   0.00000  Uiso   1.00
C1062  C     0.47349   0.82964   0.85194   0.00000  Uiso   1.00
Zn1063 Zn    0.44896   0.83334   0.75000   0.00000  Uiso   1.00
Zn1064 Zn    0.55104   0.83333   0.75000   0.00000  Uiso   1.00
O1065  O     0.46177   0.77226   0.75000   0.00000  Uiso   1.00
O1066  O     0.53821   0.77225   0.75000   0.00000  Uiso   1.00
O1067  O     0.48076   0.83335   0.67319   0.00000  Uiso   1.00
O1068  O     0.55720   0.83334   0.67319   0.00000  Uiso   1.00
C1069  C     0.50027   0.75338   0.74966   0.00000  Uiso   1.00
C1070  C     0.52687   0.83323   0.64775   0.00000  Uiso   1.00
C1071  C     0.59760   0.79643   0.50594   0.00000  Uiso   1.00
H1072  H     0.61465   0.80341   0.57847   0.00000  Uiso   1.00
H1073  H     0.60337   0.76941   0.90743   0.00000  Uiso   1.00
H1074  H     0.63216   0.78202   0.98333   0.00000  Uiso   1.00
C1075  C     0.54355   0.82792   0.58905   0.00000  Uiso   1.00
C1076  C     0.40935   0.83193   0.94290   0.00000  Uiso   1.00
C1077  C     0.39598   0.83515   0.99891   0.00000  Uiso   1.00
C1078  C     0.43062   0.83094   0.52308   0.00000  Uiso   1.00
C1079  C     0.47899   0.82050   0.99142   0.00000  Uiso   1.00
C1080  C     0.49037   0.81096   0.93592   0.00000  Uiso   1.00
C1081  C     0.51628   0.81857   0.51323   0.00000  Uiso   1.00
C1082  C     0.56158   0.80017   0.98288   0.00000  Uiso   1.00
C1083  C     0.56966   0.78493   0.93063   0.00000  Uiso   1.00
C1084  C     0.53449   0.79011   0.90742   0.00000  Uiso   1.00
C1085  C     0.50980   0.83516   0.56432   0.00000  Uiso   1.00
C1086  C     0.58816   0.80937   0.55956   0.00000  Uiso   1.00
C1087  C     0.45708   0.82258   0.91071   0.00000  Uiso   1.00
H1088  H     0.47767   0.85290   0.58660   0.00000  Uiso   1.00
H1089  H     0.38259   0.83737   0.92479   0.00000  Uiso   1.00
H1090  H     0.41822   0.83430   0.56672   0.00000  Uiso   1.00
H1091  H     0.35900   0.84253   0.52350   0.00000  Uiso   1.00
H1092  H     0.54184   0.77659   0.86745   0.00000  Uiso   1.00
C1093  C     0.52548   0.97847   0.77753   0.00000  Uiso   1.00
H1094  H     0.54419   0.96176   0.80012   0.00000  Uiso   1.00
C1095  C     0.52592   0.68805   0.77715   0.00000  Uiso   1.00
H1096  H     0.54490   0.70464   0.79949   0.00000  Uiso   1.00
C1097  C     0.50083   0.70924   0.74898   0.00000  Uiso   1.00
C1098  C     0.47605   0.68822   0.72034   0.00000  Uiso   1.00
H1099  H     0.45724   0.70497   0.69790   0.00000  Uiso   1.00
C1100  C     0.47616   0.97861   0.72013   0.00000  Uiso   1.00
H1101  H     0.45784   0.96199   0.69714   0.00000  Uiso   1.00
C1102  C     0.50023   0.95743   0.74941   0.00000  Uiso   1.00
C1103  C     0.65263   0.80493   0.71933   0.00000  Uiso   1.00
H1104  H     0.64250   0.78219   0.69471   0.00000  Uiso   1.00
C1105  C     0.36717   0.80492   0.71934   0.00000  Uiso   1.00
H1106  H     0.39310   0.78217   0.69478   0.00000  Uiso   1.00
N1107  N     0.38093   0.83334   0.75002   0.00000  Uiso   1.00
C1108  C     0.34669   0.86201   0.78056   0.00000  Uiso   1.00
C1109  C     0.63239   0.86166   0.78041   0.00000  Uiso   1.00
H1110  H     0.60589   0.88416   0.80480   0.00000  Uiso   1.00
N1111  N     0.61906   0.83331   0.75001   0.00000  Uiso   1.00
C1112  C     0.35697   0.89374   0.81551   0.00000  Uiso   1.00
C1113  C     0.34343   0.88654   0.87131   0.00000  Uiso   1.00
C1114  C     0.34784   0.91813   0.90632   0.00000  Uiso   1.00
C1115  C     0.36405   0.95764   0.88596   0.00000  Uiso   1.00
C1116  C     0.37469   0.96582   0.83087   0.00000  Uiso   1.00
C1117  C     0.37037   0.93416   0.79587   0.00000  Uiso   1.00
H1118  H     0.66160   0.85674   0.88768   0.00000  Uiso   1.00
H1119  H     0.33793   0.91219   0.94931   0.00000  Uiso   1.00
H1120  H     0.36725   0.98217   0.91306   0.00000  Uiso   1.00
H1121  H     0.38570   0.99682   0.81546   0.00000  Uiso   1.00
H1122  H     0.37712   0.94111   0.75362   0.00000  Uiso   1.00
O1123  O     0.79512   0.89442   0.75001   0.00000  Uiso   1.00
O1124  O     0.87157   0.89441   0.75001   0.00000  Uiso   1.00
C1125  C     0.83327   0.91329   0.74991   0.00000  Uiso   1.00
O1126  O     0.77613   0.83333   0.82681   0.00000  Uiso   1.00
O1127  O     0.85258   0.83332   0.82681   0.00000  Uiso   1.00
C1128  C     0.80682   0.82964   0.85194   0.00000  Uiso   1.00
Zn1129 Zn    0.78229   0.83334   0.75000   0.00000  Uiso   1.00
Zn1130 Zn    0.88438   0.83333   0.75000   0.00000  Uiso   1.00
O1131  O     0.79510   0.77226   0.75000   0.00000  Uiso   1.00
O1132  O     0.87154   0.77225   0.75000   0.00000  Uiso   1.00
O1133  O     0.81409   0.83335   0.67319   0.00000  Uiso   1.00
O1134  O     0.89053   0.83334   0.67319   0.00000  Uiso   1.00
C1135  C     0.83361   0.75338   0.74966   0.00000  Uiso   1.00
C1136  C     0.86021   0.83323   0.64775   0.00000  Uiso   1.00
C1137  C     0.93094   0.79643   0.50594   0.00000  Uiso   1.00
H1138  H     0.94799   0.80341   0.57847   0.00000  Uiso   1.00
H1139  H     0.93670   0.76941   0.90743   0.00000  Uiso   1.00
H1140  H     0.96550   0.78202   0.98333   0.00000  Uiso   1.00
C1141  C     0.87688   0.82792   0.58905   0.00000  Uiso   1.00
C1142  C     0.74269   0.83193   0.94290   0.00000  Uiso   1.00
C1143  C     0.72931   0.83515   0.99891   0.00000  Uiso   1.00
C1144  C     0.76395   0.83094   0.52308   0.00000  Uiso   1.00
C1145  C     0.81233   0.82050   0.99142   0.00000  Uiso   1.00
C1146  C     0.82370   0.81096   0.93592   0.00000  Uiso   1.00
C1147  C     0.84961   0.81857   0.51323   0.00000  Uiso   1.00
C1148  C     0.89491   0.80017   0.98288   0.00000  Uiso   1.00
C1149  C     0.90299   0.78493   0.93063   0.00000  Uiso   1.00
C1150  C     0.86783   0.79011   0.90742   0.00000  Uiso   1.00
C1151  C     0.84314   0.83516   0.56432   0.00000  Uiso   1.00
C1152  C     0.92149   0.80937   0.55956   0.00000  Uiso   1.00
C1153  C     0.79041   0.82258   0.91071   0.00000  Uiso   1.00
H1154  H     0.81100   0.85290   0.58660   0.00000  Uiso   1.00
H1155  H     0.71592   0.83737   0.92479   0.00000  Uiso   1.00
H1156  H     0.75155   0.83430   0.56672   0.00000  Uiso   1.00
H1157  H     0.69234   0.84253   0.52350   0.00000  Uiso   1.00
H1158  H     0.87517   0.77659   0.86745   0.00000  Uiso   1.00
C1159  C     0.85881   0.97847   0.77753   0.00000  Uiso   1.00
H1160  H     0.87752   0.96176   0.80012   0.00000  Uiso   1.00
C1161  C     0.85926   0.68805   0.77715   0.00000  Uiso   1.00
H1162  H     0.87823   0.70464   0.79949   0.00000  Uiso   1.00
C1163  C     0.83417   0.70924   0.74898   0.00000  Uiso   1.00
C1164  C     0.80939   0.68822   0.72034   0.00000  Uiso   1.00
H1165  H     0.79057   0.70497   0.69790   0.00000  Uiso   1.00
C1166  C     0.80949   0.97861   0.72013   0.00000  Uiso   1.00
H1167  H     0.79118   0.96199   0.69714   0.00000  Uiso   1.00
C1168  C     0.83356   0.95743   0.74941   0.00000  Uiso   1.00
C1169  C     0.98596   0.80493   0.71933   0.00000  Uiso   1.00
H1170  H     0.97584   0.78219   0.69471   0.00000  Uiso   1.00
C1171  C     0.70050   0.80492   0.71934   0.00000  Uiso   1.00
H1172  H     0.72643   0.78217   0.69478   0.00000  Uiso   1.00
N1173  N     0.71426   0.83334   0.75002   0.00000  Uiso   1.00
C1174  C     0.68003   0.86201   0.78056   0.00000  Uiso   1.00
C1175  C     0.96572   0.86166   0.78041   0.00000  Uiso   1.00
H1176  H     0.93922   0.88416   0.80480   0.00000  Uiso   1.00
N1177  N     0.95239   0.83331   0.75001   0.00000  Uiso   1.00
C1178  C     0.69031   0.89374   0.81551   0.00000  Uiso   1.00
C1179  C     0.67676   0.88654   0.87131   0.00000  Uiso   1.00
C1180  C     0.68117   0.91813   0.90632   0.00000  Uiso   1.00
C1181  C     0.69738   0.95764   0.88596   0.00000  Uiso   1.00
C1182  C     0.70802   0.96582   0.83087   0.00000  Uiso   1.00
C1183  C     0.70371   0.93416   0.79587   0.00000  Uiso   1.00
H1184  H     0.99493   0.85674   0.88768   0.00000  Uiso   1.00
H1185  H     0.67126   0.91219   0.94931   0.00000  Uiso   1.00
H1186  H     0.70058   0.98217   0.91306   0.00000  Uiso   1.00
H1187  H     0.71903   0.99682   0.81546   0.00000  Uiso   1.00
H1188  H     0.71045   0.94111   0.75362   0.00000  Uiso   1.00
loop_
_geom_bond_atom_site_label_1
_geom_bond_atom_site_label_2
_geom_bond_distance
_geom_bond_site_symmetry_2
_ccdc_geom_bond_type
O1     Zn7     1.992   .     S
O1     C3      1.286   .     A
O2     C3      1.281   .     A
O2     Zn8     1.985   .     S
C3     C46     1.411   .     S
O4     Zn7     1.963   .     S
O4     C6      1.303   .     A
O5     Zn8     1.906   .     S
O5     C6      1.291   .     A
C6     C31     1.468   .     S
Zn7    O9      1.985   .     S
Zn7    N51     2.017   .     S
Zn7    O11     1.906   .     S
Zn8    O12     1.963   .     S
Zn8    N55     2.017   .     S
Zn8    O10     1.992   .     S
O9     C13     1.283   .     A
O10    C13     1.284   .     A
O11    C14     1.295   .     A
O12    C14     1.295   .     A
C13    C41     1.410   .     S
C14    C19     1.454   .     S
C15    C30     1.396   .     A
C15    H612    1.084   1_554 S
C15    C620    1.405   1_554 S
H16    C30     1.083   .     S
H17    C27     1.084   .     S
H18    C609    1.084   .     S
C19    C30     1.400   .     A
C19    C29     1.389   .     A
C20    H33     1.072   .     S
C20    C21     1.387   .     A
C20    C31     1.399   .     A
C21    C616    1.390   .     S
C21    H629    1.082   .     S
C22    H34     1.079   .     S
C22    C615    1.390   1_554 S
C22    C617    1.418   1_554 S
C23    C24     1.408   .     A
C23    C616    1.418   .     S
C23    C619    1.414   .     S
C24    C31     1.416   .     A
C24    C28     1.416   .     A
C25    C29     1.389   .     A
C25    C617    1.414   1_554 S
C25    C620    1.418   1_554 S
C26    C27     1.392   .     A
C26    C609    1.405   .     S
C26    C619    1.418   .     S
C27    C28     1.390   .     A
C28    H36     1.081   .     S
C29    H32     1.079   .     S
H35    C615    1.082   1_554 S
C37    H38     1.084   .     S
C37    C46     1.396   .     A
C37    C237    1.371   .     S
C39    C41     1.394   .     A
C39    H40     1.084   .     S
C39    C433    1.371   1_545 S
C41    C42     1.396   .     A
C42    H43     1.084   .     S
C42    C440    1.372   1_545 S
C44    H45     1.083   .     S
C44    C46     1.394   .     A
C44    C240    1.372   .     S
C47    H48     1.082   .     S
C47    N55     1.368   .     A
C47    C115    1.419   .     S
C49    N51     1.367   .     A
C49    H50     1.082   .     S
C49    C179    1.419   1_455 S
N51    C52     1.383   .     A
C52    C56     1.468   .     S
C52    C185    1.414   1_455 S
C53    H54     1.083   .     S
C53    N55     1.354   .     A
C53    C118    1.414   .     S
C56    C57     1.400   .     A
C56    C61     1.403   .     A
C57    C58     1.399   .     A
C57    H194    1.083   1_455 S
C58    C59     1.397   .     A
C58    H63     1.082   .     S
C59    H64     1.082   .     S
C59    C60     1.397   .     A
C60    H65     1.082   .     S
C60    C61     1.399   .     A
C61    H66     1.083   .     S
H62    C123    1.083   .     S
O67    Zn73    1.992   .     S
O67    C69     1.286   .     A
O68    C69     1.281   .     A
O68    Zn74    1.985   .     S
C69    C112    1.411   .     S
O70    Zn73    1.963   .     S
O70    C72     1.303   .     A
O71    Zn74    1.906   .     S
O71    C72     1.291   .     A
C72    C97     1.468   .     S
Zn73   O75     1.985   .     S
Zn73   N117    2.017   .     S
Zn73   O77     1.906   .     S
Zn74   O78     1.963   .     S
Zn74   N121    2.017   .     S
Zn74   O76     1.992   .     S
O75    C79     1.283   .     A
O76    C79     1.284   .     A
O77    C80     1.295   .     A
O78    C80     1.295   .     A
C79    C107    1.410   .     S
C80    C85     1.454   .     S
C81    C96     1.396   .     A
C81    H678    1.084   1_554 S
C81    C686    1.405   1_554 S
H82    C96     1.083   .     S
H83    C93     1.084   .     S
H84    C675    1.084   .     S
C85    C96     1.400   .     A
C85    C95     1.389   .     A
C86    H99     1.072   .     S
C86    C87     1.387   .     A
C86    C97     1.399   .     A
C87    C682    1.390   .     S
C87    H695    1.082   .     S
C88    H100    1.079   .     S
C88    C681    1.390   1_554 S
C88    C683    1.418   1_554 S
C89    C90     1.408   .     A
C89    C682    1.418   .     S
C89    C685    1.414   .     S
C90    C97     1.416   .     A
C90    C94     1.416   .     A
C91    C95     1.389   .     A
C91    C683    1.414   1_554 S
C91    C686    1.418   1_554 S
C92    C93     1.392   .     A
C92    C675    1.405   .     S
C92    C685    1.418   .     S
C93    C94     1.390   .     A
C94    H102    1.081   .     S
C95    H98     1.079   .     S
H101   C681    1.082   1_554 S
C103   H104    1.084   .     S
C103   C112    1.396   .     A
C103   C303    1.371   .     S
C105   C107    1.394   .     A
C105   H106    1.084   .     S
C105   C499    1.371   1_545 S
C107   C108    1.396   .     A
C108   H109    1.084   .     S
C108   C506    1.372   1_545 S
C110   H111    1.083   .     S
C110   C112    1.394   .     A
C110   C306    1.372   .     S
C113   H114    1.082   .     S
C113   N121    1.368   .     A
C113   C181    1.419   .     S
C115   N117    1.367   .     A
C115   H116    1.082   .     S
N117   C118    1.383   .     A
C118   C122    1.468   .     S
C119   H120    1.083   .     S
C119   N121    1.354   .     A
C119   C184    1.414   .     S
C122   C123    1.400   .     A
C122   C127    1.403   .     A
C123   C124    1.399   .     A
C124   C125    1.397   .     A
C124   H129    1.082   .     S
C125   H130    1.082   .     S
C125   C126    1.397   .     A
C126   H131    1.082   .     S
C126   C127    1.399   .     A
C127   H132    1.083   .     S
H128   C189    1.083   .     S
O133   Zn139   1.992   .     S
O133   C135    1.286   .     A
O134   C135    1.281   .     A
O134   Zn140   1.985   .     S
C135   C178    1.411   .     S
O136   Zn139   1.963   .     S
O136   C138    1.303   .     A
O137   Zn140   1.906   .     S
O137   C138    1.291   .     A
C138   C163    1.468   .     S
Zn139  O141    1.985   .     S
Zn139  N183    2.017   .     S
Zn139  O143    1.906   .     S
Zn140  O144    1.963   .     S
Zn140  N187    2.017   .     S
Zn140  O142    1.992   .     S
O141   C145    1.283   .     A
O142   C145    1.284   .     A
O143   C146    1.295   .     A
O144   C146    1.295   .     A
C145   C173    1.410   .     S
C146   C151    1.454   .     S
C147   C162    1.396   .     A
C147   H744    1.084   1_554 S
C147   C752    1.405   1_554 S
H148   C162    1.083   .     S
H149   C159    1.084   .     S
H150   C741    1.084   .     S
C151   C162    1.400   .     A
C151   C161    1.389   .     A
C152   H165    1.072   .     S
C152   C153    1.387   .     A
C152   C163    1.399   .     A
C153   C748    1.390   .     S
C153   H761    1.082   .     S
C154   H166    1.079   .     S
C154   C747    1.390   1_554 S
C154   C749    1.418   1_554 S
C155   C156    1.408   .     A
C155   C748    1.418   .     S
C155   C751    1.414   .     S
C156   C163    1.416   .     A
C156   C160    1.416   .     A
C157   C161    1.389   .     A
C157   C749    1.414   1_554 S
C157   C752    1.418   1_554 S
C158   C159    1.392   .     A
C158   C741    1.405   .     S
C158   C751    1.418   .     S
C159   C160    1.390   .     A
C160   H168    1.081   .     S
C161   H164    1.079   .     S
H167   C747    1.082   1_554 S
C169   H170    1.084   .     S
C169   C178    1.396   .     A
C169   C369    1.371   .     S
C171   C173    1.394   .     A
C171   H172    1.084   .     S
C171   C565    1.371   1_545 S
C173   C174    1.396   .     A
C174   H175    1.084   .     S
C174   C572    1.372   1_545 S
C176   H177    1.083   .     S
C176   C178    1.394   .     A
C176   C372    1.372   .     S
C179   H180    1.082   .     S
C179   N187    1.368   .     A
C179   C49     1.419   1_655 S
C181   N183    1.367   .     A
C181   H182    1.082   .     S
N183   C184    1.383   .     A
C184   C188    1.468   .     S
C185   H186    1.083   .     S
C185   N187    1.354   .     A
C185   C52     1.414   1_655 S
C188   C189    1.400   .     A
C188   C193    1.403   .     A
C189   C190    1.399   .     A
C190   C191    1.397   .     A
C190   H195    1.082   .     S
C191   H196    1.082   .     S
C191   C192    1.397   .     A
C192   H197    1.082   .     S
C192   C193    1.399   .     A
C193   H198    1.083   .     S
H194   C57     1.083   1_655 S
O199   Zn205   1.992   .     S
O199   C201    1.286   .     A
O200   C201    1.281   .     A
O200   Zn206   1.985   .     S
C201   C244    1.411   .     S
O202   Zn205   1.963   .     S
O202   C204    1.303   .     A
O203   Zn206   1.906   .     S
O203   C204    1.291   .     A
C204   C229    1.468   .     S
Zn205  O207    1.985   .     S
Zn205  N249    2.017   .     S
Zn205  O209    1.906   .     S
Zn206  O210    1.963   .     S
Zn206  N253    2.017   .     S
Zn206  O208    1.992   .     S
O207   C211    1.283   .     A
O208   C211    1.284   .     A
O209   C212    1.295   .     A
O210   C212    1.295   .     A
C211   C239    1.410   .     S
C212   C217    1.454   .     S
C213   C228    1.396   .     A
C213   H810    1.084   1_554 S
C213   C818    1.405   1_554 S
H214   C228    1.083   .     S
H215   C225    1.084   .     S
H216   C807    1.084   .     S
C217   C228    1.400   .     A
C217   C227    1.389   .     A
C218   H231    1.072   .     S
C218   C219    1.387   .     A
C218   C229    1.399   .     A
C219   C814    1.390   .     S
C219   H827    1.082   .     S
C220   H232    1.079   .     S
C220   C813    1.390   1_554 S
C220   C815    1.418   1_554 S
C221   C222    1.408   .     A
C221   C814    1.418   .     S
C221   C817    1.414   .     S
C222   C229    1.416   .     A
C222   C226    1.416   .     A
C223   C227    1.389   .     A
C223   C815    1.414   1_554 S
C223   C818    1.418   1_554 S
C224   C225    1.392   .     A
C224   C807    1.405   .     S
C224   C817    1.418   .     S
C225   C226    1.390   .     A
C226   H234    1.081   .     S
C227   H230    1.079   .     S
H233   C813    1.082   1_554 S
C235   H236    1.084   .     S
C235   C244    1.396   .     A
C235   C435    1.371   .     S
C237   C239    1.394   .     A
C237   H238    1.084   .     S
C239   C240    1.396   .     A
C240   H241    1.084   .     S
C242   H243    1.083   .     S
C242   C244    1.394   .     A
C242   C438    1.372   .     S
C245   H246    1.082   .     S
C245   N253    1.368   .     A
C245   C313    1.419   .     S
C247   N249    1.367   .     A
C247   H248    1.082   .     S
C247   C377    1.419   1_455 S
N249   C250    1.383   .     A
C250   C254    1.468   .     S
C250   C383    1.414   1_455 S
C251   H252    1.083   .     S
C251   N253    1.354   .     A
C251   C316    1.414   .     S
C254   C255    1.400   .     A
C254   C259    1.403   .     A
C255   C256    1.399   .     A
C255   H392    1.083   1_455 S
C256   C257    1.397   .     A
C256   H261    1.082   .     S
C257   H262    1.082   .     S
C257   C258    1.397   .     A
C258   H263    1.082   .     S
C258   C259    1.399   .     A
C259   H264    1.083   .     S
H260   C321    1.083   .     S
O265   Zn271   1.992   .     S
O265   C267    1.286   .     A
O266   C267    1.281   .     A
O266   Zn272   1.985   .     S
C267   C310    1.411   .     S
O268   Zn271   1.963   .     S
O268   C270    1.303   .     A
O269   Zn272   1.906   .     S
O269   C270    1.291   .     A
C270   C295    1.468   .     S
Zn271  O273    1.985   .     S
Zn271  N315    2.017   .     S
Zn271  O275    1.906   .     S
Zn272  O276    1.963   .     S
Zn272  N319    2.017   .     S
Zn272  O274    1.992   .     S
O273   C277    1.283   .     A
O274   C277    1.284   .     A
O275   C278    1.295   .     A
O276   C278    1.295   .     A
C277   C305    1.410   .     S
C278   C283    1.454   .     S
C279   C294    1.396   .     A
C279   H876    1.084   1_554 S
C279   C884    1.405   1_554 S
H280   C294    1.083   .     S
H281   C291    1.084   .     S
H282   C873    1.084   .     S
C283   C294    1.400   .     A
C283   C293    1.389   .     A
C284   H297    1.072   .     S
C284   C285    1.387   .     A
C284   C295    1.399   .     A
C285   C880    1.390   .     S
C285   H893    1.082   .     S
C286   H298    1.079   .     S
C286   C879    1.390   1_554 S
C286   C881    1.418   1_554 S
C287   C288    1.408   .     A
C287   C880    1.418   .     S
C287   C883    1.414   .     S
C288   C295    1.416   .     A
C288   C292    1.416   .     A
C289   C293    1.389   .     A
C289   C881    1.414   1_554 S
C289   C884    1.418   1_554 S
C290   C291    1.392   .     A
C290   C873    1.405   .     S
C290   C883    1.418   .     S
C291   C292    1.390   .     A
C292   H300    1.081   .     S
C293   H296    1.079   .     S
H299   C879    1.082   1_554 S
C301   H302    1.084   .     S
C301   C310    1.396   .     A
C301   C501    1.371   .     S
C303   C305    1.394   .     A
C303   H304    1.084   .     S
C305   C306    1.396   .     A
C306   H307    1.084   .     S
C308   H309    1.083   .     S
C308   C310    1.394   .     A
C308   C504    1.372   .     S
C311   H312    1.082   .     S
C311   N319    1.368   .     A
C311   C379    1.419   .     S
C313   N315    1.367   .     A
C313   H314    1.082   .     S
N315   C316    1.383   .     A
C316   C320    1.468   .     S
C317   H318    1.083   .     S
C317   N319    1.354   .     A
C317   C382    1.414   .     S
C320   C321    1.400   .     A
C320   C325    1.403   .     A
C321   C322    1.399   .     A
C322   C323    1.397   .     A
C322   H327    1.082   .     S
C323   H328    1.082   .     S
C323   C324    1.397   .     A
C324   H329    1.082   .     S
C324   C325    1.399   .     A
C325   H330    1.083   .     S
H326   C387    1.083   .     S
O331   Zn337   1.992   .     S
O331   C333    1.286   .     A
O332   C333    1.281   .     A
O332   Zn338   1.985   .     S
C333   C376    1.411   .     S
O334   Zn337   1.963   .     S
O334   C336    1.303   .     A
O335   Zn338   1.906   .     S
O335   C336    1.291   .     A
C336   C361    1.468   .     S
Zn337  O339    1.985   .     S
Zn337  N381    2.017   .     S
Zn337  O341    1.906   .     S
Zn338  O342    1.963   .     S
Zn338  N385    2.017   .     S
Zn338  O340    1.992   .     S
O339   C343    1.283   .     A
O340   C343    1.284   .     A
O341   C344    1.295   .     A
O342   C344    1.295   .     A
C343   C371    1.410   .     S
C344   C349    1.454   .     S
C345   C360    1.396   .     A
C345   H942    1.084   1_554 S
C345   C950    1.405   1_554 S
H346   C360    1.083   .     S
H347   C357    1.084   .     S
H348   C939    1.084   .     S
C349   C360    1.400   .     A
C349   C359    1.389   .     A
C350   H363    1.072   .     S
C350   C351    1.387   .     A
C350   C361    1.399   .     A
C351   C946    1.390   .     S
C351   H959    1.082   .     S
C352   H364    1.079   .     S
C352   C945    1.390   1_554 S
C352   C947    1.418   1_554 S
C353   C354    1.408   .     A
C353   C946    1.418   .     S
C353   C949    1.414   .     S
C354   C361    1.416   .     A
C354   C358    1.416   .     A
C355   C359    1.389   .     A
C355   C947    1.414   1_554 S
C355   C950    1.418   1_554 S
C356   C357    1.392   .     A
C356   C939    1.405   .     S
C356   C949    1.418   .     S
C357   C358    1.390   .     A
C358   H366    1.081   .     S
C359   H362    1.079   .     S
H365   C945    1.082   1_554 S
C367   H368    1.084   .     S
C367   C376    1.396   .     A
C367   C567    1.371   .     S
C369   C371    1.394   .     A
C369   H370    1.084   .     S
C371   C372    1.396   .     A
C372   H373    1.084   .     S
C374   H375    1.083   .     S
C374   C376    1.394   .     A
C374   C570    1.372   .     S
C377   H378    1.082   .     S
C377   N385    1.368   .     A
C377   C247    1.419   1_655 S
C379   N381    1.367   .     A
C379   H380    1.082   .     S
N381   C382    1.383   .     A
C382   C386    1.468   .     S
C383   H384    1.083   .     S
C383   N385    1.354   .     A
C383   C250    1.414   1_655 S
C386   C387    1.400   .     A
C386   C391    1.403   .     A
C387   C388    1.399   .     A
C388   C389    1.397   .     A
C388   H393    1.082   .     S
C389   H394    1.082   .     S
C389   C390    1.397   .     A
C390   H395    1.082   .     S
C390   C391    1.399   .     A
C391   H396    1.083   .     S
H392   C255    1.083   1_655 S
O397   Zn403   1.992   .     S
O397   C399    1.286   .     A
O398   C399    1.281   .     A
O398   Zn404   1.985   .     S
C399   C442    1.411   .     S
O400   Zn403   1.963   .     S
O400   C402    1.303   .     A
O401   Zn404   1.906   .     S
O401   C402    1.291   .     A
C402   C427    1.468   .     S
Zn403  O405    1.985   .     S
Zn403  N447    2.017   .     S
Zn403  O407    1.906   .     S
Zn404  O408    1.963   .     S
Zn404  N451    2.017   .     S
Zn404  O406    1.992   .     S
O405   C409    1.283   .     A
O406   C409    1.284   .     A
O407   C410    1.295   .     A
O408   C410    1.295   .     A
C409   C437    1.410   .     S
C410   C415    1.454   .     S
C411   C426    1.396   .     A
C411   H1008   1.084   1_554 S
C411   C1016   1.405   1_554 S
H412   C426    1.083   .     S
H413   C423    1.084   .     S
H414   C1005   1.084   .     S
C415   C426    1.400   .     A
C415   C425    1.389   .     A
C416   H429    1.072   .     S
C416   C417    1.387   .     A
C416   C427    1.399   .     A
C417   C1012   1.390   .     S
C417   H1025   1.082   .     S
C418   H430    1.079   .     S
C418   C1011   1.390   1_554 S
C418   C1013   1.418   1_554 S
C419   C420    1.408   .     A
C419   C1012   1.418   .     S
C419   C1015   1.414   .     S
C420   C427    1.416   .     A
C420   C424    1.416   .     A
C421   C425    1.389   .     A
C421   C1013   1.414   1_554 S
C421   C1016   1.418   1_554 S
C422   C423    1.392   .     A
C422   C1005   1.405   .     S
C422   C1015   1.418   .     S
C423   C424    1.390   .     A
C424   H432    1.081   .     S
C425   H428    1.079   .     S
H431   C1011   1.082   1_554 S
C433   H434    1.084   .     S
C433   C442    1.396   .     A
C433   C39     1.371   1_565 S
C435   C437    1.394   .     A
C435   H436    1.084   .     S
C437   C438    1.396   .     A
C438   H439    1.084   .     S
C440   H441    1.083   .     S
C440   C442    1.394   .     A
C440   C42     1.372   1_565 S
C443   H444    1.082   .     S
C443   N451    1.368   .     A
C443   C511    1.419   .     S
C445   N447    1.367   .     A
C445   H446    1.082   .     S
C445   C575    1.419   1_455 S
N447   C448    1.383   .     A
C448   C452    1.468   .     S
C448   C581    1.414   1_455 S
C449   H450    1.083   .     S
C449   N451    1.354   .     A
C449   C514    1.414   .     S
C452   C453    1.400   .     A
C452   C457    1.403   .     A
C453   C454    1.399   .     A
C453   H590    1.083   1_455 S
C454   C455    1.397   .     A
C454   H459    1.082   .     S
C455   H460    1.082   .     S
C455   C456    1.397   .     A
C456   H461    1.082   .     S
C456   C457    1.399   .     A
C457   H462    1.083   .     S
H458   C519    1.083   .     S
O463   Zn469   1.992   .     S
O463   C465    1.286   .     A
O464   C465    1.281   .     A
O464   Zn470   1.985   .     S
C465   C508    1.411   .     S
O466   Zn469   1.963   .     S
O466   C468    1.303   .     A
O467   Zn470   1.906   .     S
O467   C468    1.291   .     A
C468   C493    1.468   .     S
Zn469  O471    1.985   .     S
Zn469  N513    2.017   .     S
Zn469  O473    1.906   .     S
Zn470  O474    1.963   .     S
Zn470  N517    2.017   .     S
Zn470  O472    1.992   .     S
O471   C475    1.283   .     A
O472   C475    1.284   .     A
O473   C476    1.295   .     A
O474   C476    1.295   .     A
C475   C503    1.410   .     S
C476   C481    1.454   .     S
C477   C492    1.396   .     A
C477   H1074   1.084   1_554 S
C477   C1082   1.405   1_554 S
H478   C492    1.083   .     S
H479   C489    1.084   .     S
H480   C1071   1.084   .     S
C481   C492    1.400   .     A
C481   C491    1.389   .     A
C482   H495    1.072   .     S
C482   C483    1.387   .     A
C482   C493    1.399   .     A
C483   C1078   1.390   .     S
C483   H1091   1.082   .     S
C484   H496    1.079   .     S
C484   C1077   1.390   1_554 S
C484   C1079   1.418   1_554 S
C485   C486    1.408   .     A
C485   C1078   1.418   .     S
C485   C1081   1.414   .     S
C486   C493    1.416   .     A
C486   C490    1.416   .     A
C487   C491    1.389   .     A
C487   C1079   1.414   1_554 S
C487   C1082   1.418   1_554 S
C488   C489    1.392   .     A
C488   C1071   1.405   .     S
C488   C1081   1.418   .     S
C489   C490    1.390   .     A
C490   H498    1.081   .     S
C491   H494    1.079   .     S
H497   C1077   1.082   1_554 S
C499   H500    1.084   .     S
C499   C508    1.396   .     A
C499   C105    1.371   1_565 S
C501   C503    1.394   .     A
C501   H502    1.084   .     S
C503   C504    1.396   .     A
C504   H505    1.084   .     S
C506   H507    1.083   .     S
C506   C508    1.394   .     A
C506   C108    1.372   1_565 S
C509   H510    1.082   .     S
C509   N517    1.368   .     A
C509   C577    1.419   .     S
C511   N513    1.367   .     A
C511   H512    1.082   .     S
N513   C514    1.383   .     A
C514   C518    1.468   .     S
C515   H516    1.083   .     S
C515   N517    1.354   .     A
C515   C580    1.414   .     S
C518   C519    1.400   .     A
C518   C523    1.403   .     A
C519   C520    1.399   .     A
C520   C521    1.397   .     A
C520   H525    1.082   .     S
C521   H526    1.082   .     S
C521   C522    1.397   .     A
C522   H527    1.082   .     S
C522   C523    1.399   .     A
C523   H528    1.083   .     S
H524   C585    1.083   .     S
O529   Zn535   1.992   .     S
O529   C531    1.286   .     A
O530   C531    1.281   .     A
O530   Zn536   1.985   .     S
C531   C574    1.411   .     S
O532   Zn535   1.963   .     S
O532   C534    1.303   .     A
O533   Zn536   1.906   .     S
O533   C534    1.291   .     A
C534   C559    1.468   .     S
Zn535  O537    1.985   .     S
Zn535  N579    2.017   .     S
Zn535  O539    1.906   .     S
Zn536  O540    1.963   .     S
Zn536  N583    2.017   .     S
Zn536  O538    1.992   .     S
O537   C541    1.283   .     A
O538   C541    1.284   .     A
O539   C542    1.295   .     A
O540   C542    1.295   .     A
C541   C569    1.410   .     S
C542   C547    1.454   .     S
C543   C558    1.396   .     A
C543   H1140   1.084   1_554 S
C543   C1148   1.405   1_554 S
H544   C558    1.083   .     S
H545   C555    1.084   .     S
H546   C1137   1.084   .     S
C547   C558    1.400   .     A
C547   C557    1.389   .     A
C548   H561    1.072   .     S
C548   C549    1.387   .     A
C548   C559    1.399   .     A
C549   C1144   1.390   .     S
C549   H1157   1.082   .     S
C550   H562    1.079   .     S
C550   C1143   1.390   1_554 S
C550   C1145   1.418   1_554 S
C551   C552    1.408   .     A
C551   C1144   1.418   .     S
C551   C1147   1.414   .     S
C552   C559    1.416   .     A
C552   C556    1.416   .     A
C553   C557    1.389   .     A
C553   C1145   1.414   1_554 S
C553   C1148   1.418   1_554 S
C554   C555    1.392   .     A
C554   C1137   1.405   .     S
C554   C1147   1.418   .     S
C555   C556    1.390   .     A
C556   H564    1.081   .     S
C557   H560    1.079   .     S
H563   C1143   1.082   1_554 S
C565   H566    1.084   .     S
C565   C574    1.396   .     A
C565   C171    1.371   1_565 S
C567   C569    1.394   .     A
C567   H568    1.084   .     S
C569   C570    1.396   .     A
C570   H571    1.084   .     S
C572   H573    1.083   .     S
C572   C574    1.394   .     A
C572   C174    1.372   1_565 S
C575   H576    1.082   .     S
C575   N583    1.368   .     A
C575   C445    1.419   1_655 S
C577   N579    1.367   .     A
C577   H578    1.082   .     S
N579   C580    1.383   .     A
C580   C584    1.468   .     S
C581   H582    1.083   .     S
C581   N583    1.354   .     A
C581   C448    1.414   1_655 S
C584   C585    1.400   .     A
C584   C589    1.403   .     A
C585   C586    1.399   .     A
C586   C587    1.397   .     A
C586   H591    1.082   .     S
C587   H592    1.082   .     S
C587   C588    1.397   .     A
C588   H593    1.082   .     S
C588   C589    1.399   .     A
C589   H594    1.083   .     S
H590   C453    1.083   1_655 S
O595   Zn601   1.992   .     S
O595   C597    1.286   .     A
O596   C597    1.281   .     A
O596   Zn602   1.985   .     S
C597   C640    1.411   .     S
O598   Zn601   1.963   .     S
O598   C600    1.303   .     A
O599   Zn602   1.906   .     S
O599   C600    1.291   .     A
C600   C625    1.468   .     S
Zn601  O603    1.985   .     S
Zn601  N645    2.017   .     S
Zn601  O605    1.906   .     S
Zn602  O606    1.963   .     S
Zn602  N649    2.017   .     S
Zn602  O604    1.992   .     S
O603   C607    1.283   .     A
O604   C607    1.284   .     A
O605   C608    1.295   .     A
O606   C608    1.295   .     A
C607   C635    1.410   .     S
C608   C613    1.454   .     S
C609   C624    1.396   .     A
H610   C624    1.083   .     S
H611   C621    1.084   .     S
H612   C15     1.084   1_556 S
C613   C624    1.400   .     A
C613   C623    1.389   .     A
C614   H627    1.072   .     S
C614   C615    1.387   .     A
C614   C625    1.399   .     A
C615   C22     1.390   1_556 S
C615   H35     1.082   1_556 S
C616   H628    1.079   .     S
C617   C618    1.408   .     A
C617   C22     1.418   1_556 S
C617   C25     1.414   1_556 S
C618   C625    1.416   .     A
C618   C622    1.416   .     A
C619   C623    1.389   .     A
C620   C621    1.392   .     A
C620   C15     1.405   1_556 S
C620   C25     1.418   1_556 S
C621   C622    1.390   .     A
C622   H630    1.081   .     S
C623   H626    1.079   .     S
C631   H632    1.084   .     S
C631   C640    1.396   .     A
C631   C831    1.371   .     S
C633   C635    1.394   .     A
C633   H634    1.084   .     S
C633   C1027   1.371   1_545 S
C635   C636    1.396   .     A
C636   H637    1.084   .     S
C636   C1034   1.372   1_545 S
C638   H639    1.083   .     S
C638   C640    1.394   .     A
C638   C834    1.372   .     S
C641   H642    1.082   .     S
C641   N649    1.368   .     A
C641   C709    1.419   .     S
C643   N645    1.367   .     A
C643   H644    1.082   .     S
C643   C773    1.419   1_455 S
N645   C646    1.383   .     A
C646   C650    1.468   .     S
C646   C779    1.414   1_455 S
C647   H648    1.083   .     S
C647   N649    1.354   .     A
C647   C712    1.414   .     S
C650   C651    1.400   .     A
C650   C655    1.403   .     A
C651   C652    1.399   .     A
C651   H788    1.083   1_455 S
C652   C653    1.397   .     A
C652   H657    1.082   .     S
C653   H658    1.082   .     S
C653   C654    1.397   .     A
C654   H659    1.082   .     S
C654   C655    1.399   .     A
C655   H660    1.083   .     S
H656   C717    1.083   .     S
O661   Zn667   1.992   .     S
O661   C663    1.286   .     A
O662   C663    1.281   .     A
O662   Zn668   1.985   .     S
C663   C706    1.411   .     S
O664   Zn667   1.963   .     S
O664   C666    1.303   .     A
O665   Zn668   1.906   .     S
O665   C666    1.291   .     A
C666   C691    1.468   .     S
Zn667  O669    1.985   .     S
Zn667  N711    2.017   .     S
Zn667  O671    1.906   .     S
Zn668  O672    1.963   .     S
Zn668  N715    2.017   .     S
Zn668  O670    1.992   .     S
O669   C673    1.283   .     A
O670   C673    1.284   .     A
O671   C674    1.295   .     A
O672   C674    1.295   .     A
C673   C701    1.410   .     S
C674   C679    1.454   .     S
C675   C690    1.396   .     A
H676   C690    1.083   .     S
H677   C687    1.084   .     S
H678   C81     1.084   1_556 S
C679   C690    1.400   .     A
C679   C689    1.389   .     A
C680   H693    1.072   .     S
C680   C681    1.387   .     A
C680   C691    1.399   .     A
C681   C88     1.390   1_556 S
C681   H101    1.082   1_556 S
C682   H694    1.079   .     S
C683   C684    1.408   .     A
C683   C88     1.418   1_556 S
C683   C91     1.414   1_556 S
C684   C691    1.416   .     A
C684   C688    1.416   .     A
C685   C689    1.389   .     A
C686   C687    1.392   .     A
C686   C81     1.405   1_556 S
C686   C91     1.418   1_556 S
C687   C688    1.390   .     A
C688   H696    1.081   .     S
C689   H692    1.079   .     S
C697   H698    1.084   .     S
C697   C706    1.396   .     A
C697   C897    1.371   .     S
C699   C701    1.394   .     A
C699   H700    1.084   .     S
C699   C1093   1.371   1_545 S
C701   C702    1.396   .     A
C702   H703    1.084   .     S
C702   C1100   1.372   1_545 S
C704   H705    1.083   .     S
C704   C706    1.394   .     A
C704   C900    1.372   .     S
C707   H708    1.082   .     S
C707   N715    1.368   .     A
C707   C775    1.419   .     S
C709   N711    1.367   .     A
C709   H710    1.082   .     S
N711   C712    1.383   .     A
C712   C716    1.468   .     S
C713   H714    1.083   .     S
C713   N715    1.354   .     A
C713   C778    1.414   .     S
C716   C717    1.400   .     A
C716   C721    1.403   .     A
C717   C718    1.399   .     A
C718   C719    1.397   .     A
C718   H723    1.082   .     S
C719   H724    1.082   .     S
C719   C720    1.397   .     A
C720   H725    1.082   .     S
C720   C721    1.399   .     A
C721   H726    1.083   .     S
H722   C783    1.083   .     S
O727   Zn733   1.992   .     S
O727   C729    1.286   .     A
O728   C729    1.281   .     A
O728   Zn734   1.985   .     S
C729   C772    1.411   .     S
O730   Zn733   1.963   .     S
O730   C732    1.303   .     A
O731   Zn734   1.906   .     S
O731   C732    1.291   .     A
C732   C757    1.468   .     S
Zn733  O735    1.985   .     S
Zn733  N777    2.017   .     S
Zn733  O737    1.906   .     S
Zn734  O738    1.963   .     S
Zn734  N781    2.017   .     S
Zn734  O736    1.992   .     S
O735   C739    1.283   .     A
O736   C739    1.284   .     A
O737   C740    1.295   .     A
O738   C740    1.295   .     A
C739   C767    1.410   .     S
C740   C745    1.454   .     S
C741   C756    1.396   .     A
H742   C756    1.083   .     S
H743   C753    1.084   .     S
H744   C147    1.084   1_556 S
C745   C756    1.400   .     A
C745   C755    1.389   .     A
C746   H759    1.072   .     S
C746   C747    1.387   .     A
C746   C757    1.399   .     A
C747   C154    1.390   1_556 S
C747   H167    1.082   1_556 S
C748   H760    1.079   .     S
C749   C750    1.408   .     A
C749   C154    1.418   1_556 S
C749   C157    1.414   1_556 S
C750   C757    1.416   .     A
C750   C754    1.416   .     A
C751   C755    1.389   .     A
C752   C753    1.392   .     A
C752   C147    1.405   1_556 S
C752   C157    1.418   1_556 S
C753   C754    1.390   .     A
C754   H762    1.081   .     S
C755   H758    1.079   .     S
C763   H764    1.084   .     S
C763   C772    1.396   .     A
C763   C963    1.371   .     S
C765   C767    1.394   .     A
C765   H766    1.084   .     S
C765   C1159   1.371   1_545 S
C767   C768    1.396   .     A
C768   H769    1.084   .     S
C768   C1166   1.372   1_545 S
C770   H771    1.083   .     S
C770   C772    1.394   .     A
C770   C966    1.372   .     S
C773   H774    1.082   .     S
C773   N781    1.368   .     A
C773   C643    1.419   1_655 S
C775   N777    1.367   .     A
C775   H776    1.082   .     S
N777   C778    1.383   .     A
C778   C782    1.468   .     S
C779   H780    1.083   .     S
C779   N781    1.354   .     A
C779   C646    1.414   1_655 S
C782   C783    1.400   .     A
C782   C787    1.403   .     A
C783   C784    1.399   .     A
C784   C785    1.397   .     A
C784   H789    1.082   .     S
C785   H790    1.082   .     S
C785   C786    1.397   .     A
C786   H791    1.082   .     S
C786   C787    1.399   .     A
C787   H792    1.083   .     S
H788   C651    1.083   1_655 S
O793   Zn799   1.992   .     S
O793   C795    1.286   .     A
O794   C795    1.281   .     A
O794   Zn800   1.985   .     S
C795   C838    1.411   .     S
O796   Zn799   1.963   .     S
O796   C798    1.303   .     A
O797   Zn800   1.906   .     S
O797   C798    1.291   .     A
C798   C823    1.468   .     S
Zn799  O801    1.985   .     S
Zn799  N843    2.017   .     S
Zn799  O803    1.906   .     S
Zn800  O804    1.963   .     S
Zn800  N847    2.017   .     S
Zn800  O802    1.992   .     S
O801   C805    1.283   .     A
O802   C805    1.284   .     A
O803   C806    1.295   .     A
O804   C806    1.295   .     A
C805   C833    1.410   .     S
C806   C811    1.454   .     S
C807   C822    1.396   .     A
H808   C822    1.083   .     S
H809   C819    1.084   .     S
H810   C213    1.084   1_556 S
C811   C822    1.400   .     A
C811   C821    1.389   .     A
C812   H825    1.072   .     S
C812   C813    1.387   .     A
C812   C823    1.399   .     A
C813   C220    1.390   1_556 S
C813   H233    1.082   1_556 S
C814   H826    1.079   .     S
C815   C816    1.408   .     A
C815   C220    1.418   1_556 S
C815   C223    1.414   1_556 S
C816   C823    1.416   .     A
C816   C820    1.416   .     A
C817   C821    1.389   .     A
C818   C819    1.392   .     A
C818   C213    1.405   1_556 S
C818   C223    1.418   1_556 S
C819   C820    1.390   .     A
C820   H828    1.081   .     S
C821   H824    1.079   .     S
C829   H830    1.084   .     S
C829   C838    1.396   .     A
C829   C1029   1.371   .     S
C831   C833    1.394   .     A
C831   H832    1.084   .     S
C833   C834    1.396   .     A
C834   H835    1.084   .     S
C836   H837    1.083   .     S
C836   C838    1.394   .     A
C836   C1032   1.372   .     S
C839   H840    1.082   .     S
C839   N847    1.368   .     A
C839   C907    1.419   .     S
C841   N843    1.367   .     A
C841   H842    1.082   .     S
C841   C971    1.419   1_455 S
N843   C844    1.383   .     A
C844   C848    1.468   .     S
C844   C977    1.414   1_455 S
C845   H846    1.083   .     S
C845   N847    1.354   .     A
C845   C910    1.414   .     S
C848   C849    1.400   .     A
C848   C853    1.403   .     A
C849   C850    1.399   .     A
C849   H986    1.083   1_455 S
C850   C851    1.397   .     A
C850   H855    1.082   .     S
C851   H856    1.082   .     S
C851   C852    1.397   .     A
C852   H857    1.082   .     S
C852   C853    1.399   .     A
C853   H858    1.083   .     S
H854   C915    1.083   .     S
O859   Zn865   1.992   .     S
O859   C861    1.286   .     A
O860   C861    1.281   .     A
O860   Zn866   1.985   .     S
C861   C904    1.411   .     S
O862   Zn865   1.963   .     S
O862   C864    1.303   .     A
O863   Zn866   1.906   .     S
O863   C864    1.291   .     A
C864   C889    1.468   .     S
Zn865  O867    1.985   .     S
Zn865  N909    2.017   .     S
Zn865  O869    1.906   .     S
Zn866  O870    1.963   .     S
Zn866  N913    2.017   .     S
Zn866  O868    1.992   .     S
O867   C871    1.283   .     A
O868   C871    1.284   .     A
O869   C872    1.295   .     A
O870   C872    1.295   .     A
C871   C899    1.410   .     S
C872   C877    1.454   .     S
C873   C888    1.396   .     A
H874   C888    1.083   .     S
H875   C885    1.084   .     S
H876   C279    1.084   1_556 S
C877   C888    1.400   .     A
C877   C887    1.389   .     A
C878   H891    1.072   .     S
C878   C879    1.387   .     A
C878   C889    1.399   .     A
C879   C286    1.390   1_556 S
C879   H299    1.082   1_556 S
C880   H892    1.079   .     S
C881   C882    1.408   .     A
C881   C286    1.418   1_556 S
C881   C289    1.414   1_556 S
C882   C889    1.416   .     A
C882   C886    1.416   .     A
C883   C887    1.389   .     A
C884   C885    1.392   .     A
C884   C279    1.405   1_556 S
C884   C289    1.418   1_556 S
C885   C886    1.390   .     A
C886   H894    1.081   .     S
C887   H890    1.079   .     S
C895   H896    1.084   .     S
C895   C904    1.396   .     A
C895   C1095   1.371   .     S
C897   C899    1.394   .     A
C897   H898    1.084   .     S
C899   C900    1.396   .     A
C900   H901    1.084   .     S
C902   H903    1.083   .     S
C902   C904    1.394   .     A
C902   C1098   1.372   .     S
C905   H906    1.082   .     S
C905   N913    1.368   .     A
C905   C973    1.419   .     S
C907   N909    1.367   .     A
C907   H908    1.082   .     S
N909   C910    1.383   .     A
C910   C914    1.468   .     S
C911   H912    1.083   .     S
C911   N913    1.354   .     A
C911   C976    1.414   .     S
C914   C915    1.400   .     A
C914   C919    1.403   .     A
C915   C916    1.399   .     A
C916   C917    1.397   .     A
C916   H921    1.082   .     S
C917   H922    1.082   .     S
C917   C918    1.397   .     A
C918   H923    1.082   .     S
C918   C919    1.399   .     A
C919   H924    1.083   .     S
H920   C981    1.083   .     S
O925   Zn931   1.992   .     S
O925   C927    1.286   .     A
O926   C927    1.281   .     A
O926   Zn932   1.985   .     S
C927   C970    1.411   .     S
O928   Zn931   1.963   .     S
O928   C930    1.303   .     A
O929   Zn932   1.906   .     S
O929   C930    1.291   .     A
C930   C955    1.468   .     S
Zn931  O933    1.985   .     S
Zn931  N975    2.017   .     S
Zn931  O935    1.906   .     S
Zn932  O936    1.963   .     S
Zn932  N979    2.017   .     S
Zn932  O934    1.992   .     S
O933   C937    1.283   .     A
O934   C937    1.284   .     A
O935   C938    1.295   .     A
O936   C938    1.295   .     A
C937   C965    1.410   .     S
C938   C943    1.454   .     S
C939   C954    1.396   .     A
H940   C954    1.083   .     S
H941   C951    1.084   .     S
H942   C345    1.084   1_556 S
C943   C954    1.400   .     A
C943   C953    1.389   .     A
C944   H957    1.072   .     S
C944   C945    1.387   .     A
C944   C955    1.399   .     A
C945   C352    1.390   1_556 S
C945   H365    1.082   1_556 S
C946   H958    1.079   .     S
C947   C948    1.408   .     A
C947   C352    1.418   1_556 S
C947   C355    1.414   1_556 S
C948   C955    1.416   .     A
C948   C952    1.416   .     A
C949   C953    1.389   .     A
C950   C951    1.392   .     A
C950   C345    1.405   1_556 S
C950   C355    1.418   1_556 S
C951   C952    1.390   .     A
C952   H960    1.081   .     S
C953   H956    1.079   .     S
C961   H962    1.084   .     S
C961   C970    1.396   .     A
C961   C1161   1.371   .     S
C963   C965    1.394   .     A
C963   H964    1.084   .     S
C965   C966    1.396   .     A
C966   H967    1.084   .     S
C968   H969    1.083   .     S
C968   C970    1.394   .     A
C968   C1164   1.372   .     S
C971   H972    1.082   .     S
C971   N979    1.368   .     A
C971   C841    1.419   1_655 S
C973   N975    1.367   .     A
C973   H974    1.082   .     S
N975   C976    1.383   .     A
C976   C980    1.468   .     S
C977   H978    1.083   .     S
C977   N979    1.354   .     A
C977   C844    1.414   1_655 S
C980   C981    1.400   .     A
C980   C985    1.403   .     A
C981   C982    1.399   .     A
C982   C983    1.397   .     A
C982   H987    1.082   .     S
C983   H988    1.082   .     S
C983   C984    1.397   .     A
C984   H989    1.082   .     S
C984   C985    1.399   .     A
C985   H990    1.083   .     S
H986   C849    1.083   1_655 S
O991   Zn997   1.992   .     S
O991   C993    1.286   .     A
O992   C993    1.281   .     A
O992   Zn998   1.985   .     S
C993   C1036   1.411   .     S
O994   Zn997   1.963   .     S
O994   C996    1.303   .     A
O995   Zn998   1.906   .     S
O995   C996    1.291   .     A
C996   C1021   1.468   .     S
Zn997  O999    1.985   .     S
Zn997  N1041   2.017   .     S
Zn997  O1001   1.906   .     S
Zn998  O1002   1.963   .     S
Zn998  N1045   2.017   .     S
Zn998  O1000   1.992   .     S
O999   C1003   1.283   .     A
O1000  C1003   1.284   .     A
O1001  C1004   1.295   .     A
O1002  C1004   1.295   .     A
C1003  C1031   1.410   .     S
C1004  C1009   1.454   .     S
C1005  C1020   1.396   .     A
H1006  C1020   1.083   .     S
H1007  C1017   1.084   .     S
H1008  C411    1.084   1_556 S
C1009  C1020   1.400   .     A
C1009  C1019   1.389   .     A
C1010  H1023   1.072   .     S
C1010  C1011   1.387   .     A
C1010  C1021   1.399   .     A
C1011  C418    1.390   1_556 S
C1011  H431    1.082   1_556 S
C1012  H1024   1.079   .     S
C1013  C1014   1.408   .     A
C1013  C418    1.418   1_556 S
C1013  C421    1.414   1_556 S
C1014  C1021   1.416   .     A
C1014  C1018   1.416   .     A
C1015  C1019   1.389   .     A
C1016  C1017   1.392   .     A
C1016  C411    1.405   1_556 S
C1016  C421    1.418   1_556 S
C1017  C1018   1.390   .     A
C1018  H1026   1.081   .     S
C1019  H1022   1.079   .     S
C1027  H1028   1.084   .     S
C1027  C1036   1.396   .     A
C1027  C633    1.371   1_565 S
C1029  C1031   1.394   .     A
C1029  H1030   1.084   .     S
C1031  C1032   1.396   .     A
C1032  H1033   1.084   .     S
C1034  H1035   1.083   .     S
C1034  C1036   1.394   .     A
C1034  C636    1.372   1_565 S
C1037  H1038   1.082   .     S
C1037  N1045   1.368   .     A
C1037  C1105   1.419   .     S
C1039  N1041   1.367   .     A
C1039  H1040   1.082   .     S
C1039  C1169   1.419   1_455 S
N1041  C1042   1.383   .     A
C1042  C1046   1.468   .     S
C1042  C1175   1.414   1_455 S
C1043  H1044   1.083   .     S
C1043  N1045   1.354   .     A
C1043  C1108   1.414   .     S
C1046  C1047   1.400   .     A
C1046  C1051   1.403   .     A
C1047  C1048   1.399   .     A
C1047  H1184   1.083   1_455 S
C1048  C1049   1.397   .     A
C1048  H1053   1.082   .     S
C1049  H1054   1.082   .     S
C1049  C1050   1.397   .     A
C1050  H1055   1.082   .     S
C1050  C1051   1.399   .     A
C1051  H1056   1.083   .     S
H1052  C1113   1.083   .     S
O1057  Zn1063  1.992   .     S
O1057  C1059   1.286   .     A
O1058  C1059   1.281   .     A
O1058  Zn1064  1.985   .     S
C1059  C1102   1.411   .     S
O1060  Zn1063  1.963   .     S
O1060  C1062   1.303   .     A
O1061  Zn1064  1.906   .     S
O1061  C1062   1.291   .     A
C1062  C1087   1.468   .     S
Zn1063 O1065   1.985   .     S
Zn1063 N1107   2.017   .     S
Zn1063 O1067   1.906   .     S
Zn1064 O1068   1.963   .     S
Zn1064 N1111   2.017   .     S
Zn1064 O1066   1.992   .     S
O1065  C1069   1.283   .     A
O1066  C1069   1.284   .     A
O1067  C1070   1.295   .     A
O1068  C1070   1.295   .     A
C1069  C1097   1.410   .     S
C1070  C1075   1.454   .     S
C1071  C1086   1.396   .     A
H1072  C1086   1.083   .     S
H1073  C1083   1.084   .     S
H1074  C477    1.084   1_556 S
C1075  C1086   1.400   .     A
C1075  C1085   1.389   .     A
C1076  H1089   1.072   .     S
C1076  C1077   1.387   .     A
C1076  C1087   1.399   .     A
C1077  C484    1.390   1_556 S
C1077  H497    1.082   1_556 S
C1078  H1090   1.079   .     S
C1079  C1080   1.408   .     A
C1079  C484    1.418   1_556 S
C1079  C487    1.414   1_556 S
C1080  C1087   1.416   .     A
C1080  C1084   1.416   .     A
C1081  C1085   1.389   .     A
C1082  C1083   1.392   .     A
C1082  C477    1.405   1_556 S
C1082  C487    1.418   1_556 S
C1083  C1084   1.390   .     A
C1084  H1092   1.081   .     S
C1085  H1088   1.079   .     S
C1093  H1094   1.084   .     S
C1093  C1102   1.396   .     A
C1093  C699    1.371   1_565 S
C1095  C1097   1.394   .     A
C1095  H1096   1.084   .     S
C1097  C1098   1.396   .     A
C1098  H1099   1.084   .     S
C1100  H1101   1.083   .     S
C1100  C1102   1.394   .     A
C1100  C702    1.372   1_565 S
C1103  H1104   1.082   .     S
C1103  N1111   1.368   .     A
C1103  C1171   1.419   .     S
C1105  N1107   1.367   .     A
C1105  H1106   1.082   .     S
N1107  C1108   1.383   .     A
C1108  C1112   1.468   .     S
C1109  H1110   1.083   .     S
C1109  N1111   1.354   .     A
C1109  C1174   1.414   .     S
C1112  C1113   1.400   .     A
C1112  C1117   1.403   .     A
C1113  C1114   1.399   .     A
C1114  C1115   1.397   .     A
C1114  H1119   1.082   .     S
C1115  H1120   1.082   .     S
C1115  C1116   1.397   .     A
C1116  H1121   1.082   .     S
C1116  C1117   1.399   .     A
C1117  H1122   1.083   .     S
H1118  C1179   1.083   .     S
O1123  Zn1129  1.992   .     S
O1123  C1125   1.286   .     A
O1124  C1125   1.281   .     A
O1124  Zn1130  1.985   .     S
C1125  C1168   1.411   .     S
O1126  Zn1129  1.963   .     S
O1126  C1128   1.303   .     A
O1127  Zn1130  1.906   .     S
O1127  C1128   1.291   .     A
C1128  C1153   1.468   .     S
Zn1129 O1131   1.985   .     S
Zn1129 N1173   2.017   .     S
Zn1129 O1133   1.906   .     S
Zn1130 O1134   1.963   .     S
Zn1130 N1177   2.017   .     S
Zn1130 O1132   1.992   .     S
O1131  C1135   1.283   .     A
O1132  C1135   1.284   .     A
O1133  C1136   1.295   .     A
O1134  C1136   1.295   .     A
C1135  C1163   1.410   .     S
C1136  C1141   1.454   .     S
C1137  C1152   1.396   .     A
H1138  C1152   1.083   .     S
H1139  C1149   1.084   .     S
H1140  C543    1.084   1_556 S
C1141  C1152   1.400   .     A
C1141  C1151   1.389   .     A
C1142  H1155   1.072   .     S
C1142  C1143   1.387   .     A
C1142  C1153   1.399   .     A
C1143  C550    1.390   1_556 S
C1143  H563    1.082   1_556 S
C1144  H1156   1.079   .     S
C1145  C1146   1.408   .     A
C1145  C550    1.418   1_556 S
C1145  C553    1.414   1_556 S
C1146  C1153   1.416   .     A
C1146  C1150   1.416   .     A
C1147  C1151   1.389   .     A
C1148  C1149   1.392   .     A
C1148  C543    1.405   1_556 S
C1148  C553    1.418   1_556 S
C1149  C1150   1.390   .     A
C1150  H1158   1.081   .     S
C1151  H1154   1.079   .     S
C1159  H1160   1.084   .     S
C1159  C1168   1.396   .     A
C1159  C765    1.371   1_565 S
C1161  C1163   1.394   .     A
C1161  H1162   1.084   .     S
C1163  C1164   1.396   .     A
C1164  H1165   1.084   .     S
C1166  H1167   1.083   .     S
C1166  C1168   1.394   .     A
C1166  C768    1.372   1_565 S
C1169  H1170   1.082   .     S
C1169  N1177   1.368   .     A
C1169  C1039   1.419   1_655 S
C1171  N1173   1.367   .     A
C1171  H1172   1.082   .     S
N1173  C1174   1.383   .     A
C1174  C1178   1.468   .     S
C1175  H1176   1.083   .     S
C1175  N1177   1.354   .     A
C1175  C1042   1.414   1_655 S
C1178  C1179   1.400   .     A
C1178  C1183   1.403   .     A
C1179  C1180   1.399   .     A
C1180  C1181   1.397   .     A
C1180  H1185   1.082   .     S
C1181  H1186   1.082   .     S
C1181  C1182   1.397   .     A
C1182  H1187   1.082   .     S
C1182  C1183   1.399   .     A
C1183  H1188   1.083   .     S
H1184  C1047   1.083   1_655 S
