data_str_m3_o10_o16_pcu_sym.151
_audit_creation_date              2020-01-03
_audit_creation_method            'Materials Studio'
_symmetry_space_group_name_H-M    'P1'
_symmetry_Int_Tables_number       1
_symmetry_cell_setting            triclinic
loop_
_symmetry_equiv_pos_as_xyz
  x,y,z
_cell_length_a                    23.4642
_cell_length_b                    25.7247
_cell_length_c                    24.1474
_cell_angle_alpha                 92.1055
_cell_angle_beta                  100.6947
_cell_angle_gamma                 94.2255
loop_
_atom_site_label
_atom_site_type_symbol
_atom_site_fract_x
_atom_site_fract_y
_atom_site_fract_z
_atom_site_U_iso_or_equiv
_atom_site_adp_type
_atom_site_occupancy
C1     C     0.01391   0.26459   0.24526   0.00000  Uiso   1.00
C2     C     0.14639   0.19434   0.48258   0.00000  Uiso   1.00
C3     C     0.10733   0.16190   0.44160   0.00000  Uiso   1.00
C4     C     0.20077   0.17567   0.00634   0.00000  Uiso   1.00
C5     C     0.21961   0.13189   0.47866   0.00000  Uiso   1.00
C6     C     0.18077   0.10129   0.43772   0.00000  Uiso   1.00
C7     C     0.12341   0.11287   0.42419   0.00000  Uiso   1.00
C8     C     0.23327   0.19313   0.06018   0.00000  Uiso   1.00
C9     C     0.30496   0.13099   0.05067   0.00000  Uiso   1.00
C10    C     0.05510   0.18116   0.41546   0.00000  Uiso   1.00
C11    C     0.01823   0.31767   0.23298   0.00000  Uiso   1.00
C12    C     0.03547   0.16985   0.35532   0.00000  Uiso   1.00
C13    C     0.30995   0.01355   0.24611   0.00000  Uiso   1.00
C14    C     0.31751   0.06839   0.24753   0.00000  Uiso   1.00
C15    C     0.29828   0.16562   0.14482   0.00000  Uiso   1.00
C16    C     0.27437   0.11422   0.49775   0.00000  Uiso   1.00
C17    C     0.28084   0.16571   0.08386   0.00000  Uiso   1.00
C18    C     0.03548   0.22588   0.43816   0.00000  Uiso   1.00
C19    C     0.07340   0.25787   0.47818   0.00000  Uiso   1.00
C20    C     0.12979   0.24432   0.49657   0.00000  Uiso   1.00
H21    H     0.01002   0.11179   0.06823   0.00000  Uiso   1.00
H22    H     0.27295   0.33077   0.26303   0.00000  Uiso   1.00
H23    H     0.15676   0.12511   0.20818   0.00000  Uiso   1.00
H24    H     0.17659   0.20826   0.29180   0.00000  Uiso   1.00
H25    H     0.19315   0.06483   0.42133   0.00000  Uiso   1.00
H26    H     0.29005   0.08274   0.47511   0.00000  Uiso   1.00
H27    H     0.32800   0.24043   0.41883   0.00000  Uiso   1.00
H28    H     0.16024   0.27478   0.01883   0.00000  Uiso   1.00
H29    H     0.06089   0.29551   0.49097   0.00000  Uiso   1.00
N30    N     0.14493   0.15223   0.23542   0.00000  Uiso   1.00
N31    N     0.18840   0.18110   0.26457   0.00000  Uiso   1.00
O32    O     0.29769   0.24629   0.25357   0.00000  Uiso   1.00
O33    O     0.05742   0.23704   0.24424   0.00000  Uiso   1.00
O34    O     0.31490   0.17358   0.33380   0.00000  Uiso   1.00
O35    O     0.07463   0.16433   0.32446   0.00000  Uiso   1.00
O36    O     0.27592   0.09629   0.25576   0.00000  Uiso   1.00
O37    O     0.03565   0.08704   0.24643   0.00000  Uiso   1.00
O38    O     0.25870   0.16901   0.17554   0.00000  Uiso   1.00
O39    O     0.01843   0.15976   0.16620   0.00000  Uiso   1.00
Zn40   Zn    0.27119   0.17284   0.25623   0.00000  Uiso   1.00
Zn41   Zn    0.06214   0.16049   0.24377   0.00000  Uiso   1.00
C42    C     0.21473   0.23279   0.09596   0.00000  Uiso   1.00
N43    N     0.20050   0.26413   0.12510   0.00000  Uiso   1.00
I44    I     0.06274   0.05005   0.38707   0.00000  Uiso   1.00
C45    C     0.06430   0.00194   0.20333   0.00000  Uiso   1.00
N46    N     0.10089   0.01570   0.17971   0.00000  Uiso   1.00
C47    C     0.34724   0.26459   0.24526   0.00000  Uiso   1.00
C48    C     0.47972   0.19434   0.48258   0.00000  Uiso   1.00
C49    C     0.44067   0.16190   0.44160   0.00000  Uiso   1.00
C50    C     0.53410   0.17567   0.00634   0.00000  Uiso   1.00
C51    C     0.55295   0.13189   0.47866   0.00000  Uiso   1.00
C52    C     0.51410   0.10129   0.43772   0.00000  Uiso   1.00
C53    C     0.45675   0.11287   0.42419   0.00000  Uiso   1.00
C54    C     0.56660   0.19313   0.06018   0.00000  Uiso   1.00
C55    C     0.63829   0.13099   0.05067   0.00000  Uiso   1.00
C56    C     0.38843   0.18116   0.41546   0.00000  Uiso   1.00
C57    C     0.35156   0.31767   0.23298   0.00000  Uiso   1.00
C58    C     0.36881   0.16985   0.35532   0.00000  Uiso   1.00
C59    C     0.64328   0.01355   0.24611   0.00000  Uiso   1.00
C60    C     0.65084   0.06839   0.24753   0.00000  Uiso   1.00
C61    C     0.63161   0.16562   0.14482   0.00000  Uiso   1.00
C62    C     0.60770   0.11422   0.49775   0.00000  Uiso   1.00
C63    C     0.61417   0.16571   0.08386   0.00000  Uiso   1.00
C64    C     0.36881   0.22588   0.43816   0.00000  Uiso   1.00
C65    C     0.40673   0.25787   0.47818   0.00000  Uiso   1.00
C66    C     0.46313   0.24432   0.49657   0.00000  Uiso   1.00
H67    H     0.34336   0.11179   0.06823   0.00000  Uiso   1.00
H68    H     0.60629   0.33077   0.26303   0.00000  Uiso   1.00
H69    H     0.49009   0.12511   0.20818   0.00000  Uiso   1.00
H70    H     0.50992   0.20826   0.29180   0.00000  Uiso   1.00
H71    H     0.52648   0.06483   0.42133   0.00000  Uiso   1.00
H72    H     0.62338   0.08274   0.47511   0.00000  Uiso   1.00
H73    H     0.66133   0.24043   0.41883   0.00000  Uiso   1.00
H74    H     0.49357   0.27478   0.01883   0.00000  Uiso   1.00
H75    H     0.39422   0.29551   0.49097   0.00000  Uiso   1.00
N76    N     0.47827   0.15223   0.23542   0.00000  Uiso   1.00
N77    N     0.52173   0.18110   0.26457   0.00000  Uiso   1.00
O78    O     0.63102   0.24629   0.25357   0.00000  Uiso   1.00
O79    O     0.39075   0.23704   0.24424   0.00000  Uiso   1.00
O80    O     0.64823   0.17358   0.33380   0.00000  Uiso   1.00
O81    O     0.40796   0.16433   0.32446   0.00000  Uiso   1.00
O82    O     0.60925   0.09629   0.25576   0.00000  Uiso   1.00
O83    O     0.36898   0.08704   0.24643   0.00000  Uiso   1.00
O84    O     0.59204   0.16901   0.17554   0.00000  Uiso   1.00
O85    O     0.35177   0.15976   0.16620   0.00000  Uiso   1.00
Zn86   Zn    0.60453   0.17284   0.25623   0.00000  Uiso   1.00
Zn87   Zn    0.39547   0.16049   0.24377   0.00000  Uiso   1.00
C88    C     0.54806   0.23279   0.09596   0.00000  Uiso   1.00
N89    N     0.53383   0.26413   0.12510   0.00000  Uiso   1.00
I90    I     0.39607   0.05005   0.38707   0.00000  Uiso   1.00
C91    C     0.39763   0.00194   0.20333   0.00000  Uiso   1.00
N92    N     0.43423   0.01570   0.17971   0.00000  Uiso   1.00
C93    C     0.68057   0.26459   0.24526   0.00000  Uiso   1.00
C94    C     0.81305   0.19434   0.48258   0.00000  Uiso   1.00
C95    C     0.77400   0.16190   0.44160   0.00000  Uiso   1.00
C96    C     0.86744   0.17567   0.00634   0.00000  Uiso   1.00
C97    C     0.88628   0.13189   0.47866   0.00000  Uiso   1.00
C98    C     0.84743   0.10129   0.43772   0.00000  Uiso   1.00
C99    C     0.79008   0.11287   0.42419   0.00000  Uiso   1.00
C100   C     0.89994   0.19313   0.06018   0.00000  Uiso   1.00
C101   C     0.97163   0.13099   0.05067   0.00000  Uiso   1.00
C102   C     0.72176   0.18116   0.41546   0.00000  Uiso   1.00
C103   C     0.68489   0.31767   0.23298   0.00000  Uiso   1.00
C104   C     0.70214   0.16985   0.35532   0.00000  Uiso   1.00
C105   C     0.97662   0.01355   0.24611   0.00000  Uiso   1.00
C106   C     0.98417   0.06839   0.24753   0.00000  Uiso   1.00
C107   C     0.96495   0.16562   0.14482   0.00000  Uiso   1.00
C108   C     0.94103   0.11422   0.49775   0.00000  Uiso   1.00
C109   C     0.94751   0.16571   0.08386   0.00000  Uiso   1.00
C110   C     0.70215   0.22588   0.43816   0.00000  Uiso   1.00
C111   C     0.74007   0.25787   0.47818   0.00000  Uiso   1.00
C112   C     0.79646   0.24432   0.49657   0.00000  Uiso   1.00
H113   H     0.67669   0.11179   0.06823   0.00000  Uiso   1.00
H114   H     0.93962   0.33077   0.26303   0.00000  Uiso   1.00
H115   H     0.82342   0.12511   0.20818   0.00000  Uiso   1.00
H116   H     0.84325   0.20826   0.29180   0.00000  Uiso   1.00
H117   H     0.85982   0.06483   0.42133   0.00000  Uiso   1.00
H118   H     0.95672   0.08274   0.47511   0.00000  Uiso   1.00
H119   H     0.99467   0.24043   0.41883   0.00000  Uiso   1.00
H120   H     0.82691   0.27478   0.01883   0.00000  Uiso   1.00
H121   H     0.72756   0.29551   0.49097   0.00000  Uiso   1.00
N122   N     0.81160   0.15223   0.23542   0.00000  Uiso   1.00
N123   N     0.85507   0.18110   0.26457   0.00000  Uiso   1.00
O124   O     0.96435   0.24629   0.25357   0.00000  Uiso   1.00
O125   O     0.72408   0.23704   0.24424   0.00000  Uiso   1.00
O126   O     0.98157   0.17358   0.33380   0.00000  Uiso   1.00
O127   O     0.74130   0.16433   0.32446   0.00000  Uiso   1.00
O128   O     0.94258   0.09629   0.25576   0.00000  Uiso   1.00
O129   O     0.70231   0.08704   0.24643   0.00000  Uiso   1.00
O130   O     0.92537   0.16901   0.17554   0.00000  Uiso   1.00
O131   O     0.68510   0.15976   0.16620   0.00000  Uiso   1.00
Zn132  Zn    0.93786   0.17284   0.25623   0.00000  Uiso   1.00
Zn133  Zn    0.72881   0.16049   0.24377   0.00000  Uiso   1.00
C134   C     0.88140   0.23279   0.09596   0.00000  Uiso   1.00
N135   N     0.86716   0.26413   0.12510   0.00000  Uiso   1.00
I136   I     0.72941   0.05005   0.38707   0.00000  Uiso   1.00
C137   C     0.73096   0.00194   0.20333   0.00000  Uiso   1.00
N138   N     0.76756   0.01570   0.17971   0.00000  Uiso   1.00
C139   C     0.01391   0.59793   0.24526   0.00000  Uiso   1.00
C140   C     0.14639   0.52767   0.48258   0.00000  Uiso   1.00
C141   C     0.10733   0.49524   0.44160   0.00000  Uiso   1.00
C142   C     0.20077   0.50900   0.00634   0.00000  Uiso   1.00
C143   C     0.21961   0.46523   0.47866   0.00000  Uiso   1.00
C144   C     0.18077   0.43462   0.43772   0.00000  Uiso   1.00
C145   C     0.12341   0.44620   0.42419   0.00000  Uiso   1.00
C146   C     0.23327   0.52646   0.06018   0.00000  Uiso   1.00
C147   C     0.30496   0.46432   0.05067   0.00000  Uiso   1.00
C148   C     0.05510   0.51450   0.41546   0.00000  Uiso   1.00
C149   C     0.01823   0.65101   0.23298   0.00000  Uiso   1.00
C150   C     0.03547   0.50318   0.35532   0.00000  Uiso   1.00
C151   C     0.30995   0.34689   0.24611   0.00000  Uiso   1.00
C152   C     0.31751   0.40172   0.24753   0.00000  Uiso   1.00
C153   C     0.29828   0.49895   0.14482   0.00000  Uiso   1.00
C154   C     0.27437   0.44755   0.49775   0.00000  Uiso   1.00
C155   C     0.28084   0.49904   0.08386   0.00000  Uiso   1.00
C156   C     0.03548   0.55922   0.43816   0.00000  Uiso   1.00
C157   C     0.07340   0.59120   0.47818   0.00000  Uiso   1.00
C158   C     0.12979   0.57765   0.49657   0.00000  Uiso   1.00
H159   H     0.01002   0.44513   0.06823   0.00000  Uiso   1.00
H160   H     0.27295   0.66410   0.26303   0.00000  Uiso   1.00
H161   H     0.15676   0.45844   0.20818   0.00000  Uiso   1.00
H162   H     0.17659   0.54159   0.29180   0.00000  Uiso   1.00
H163   H     0.19315   0.39816   0.42133   0.00000  Uiso   1.00
H164   H     0.29005   0.41608   0.47511   0.00000  Uiso   1.00
H165   H     0.32800   0.57376   0.41883   0.00000  Uiso   1.00
H166   H     0.16024   0.60812   0.01883   0.00000  Uiso   1.00
H167   H     0.06089   0.62884   0.49097   0.00000  Uiso   1.00
N168   N     0.14493   0.48556   0.23542   0.00000  Uiso   1.00
N169   N     0.18840   0.51444   0.26457   0.00000  Uiso   1.00
O170   O     0.29769   0.57963   0.25357   0.00000  Uiso   1.00
O171   O     0.05742   0.57038   0.24424   0.00000  Uiso   1.00
O172   O     0.31490   0.50691   0.33380   0.00000  Uiso   1.00
O173   O     0.07463   0.49766   0.32446   0.00000  Uiso   1.00
O174   O     0.27592   0.42962   0.25576   0.00000  Uiso   1.00
O175   O     0.03565   0.42037   0.24643   0.00000  Uiso   1.00
O176   O     0.25870   0.50234   0.17554   0.00000  Uiso   1.00
O177   O     0.01843   0.49309   0.16620   0.00000  Uiso   1.00
Zn178  Zn    0.27119   0.50618   0.25623   0.00000  Uiso   1.00
Zn179  Zn    0.06214   0.49382   0.24377   0.00000  Uiso   1.00
C180   C     0.21473   0.56612   0.09596   0.00000  Uiso   1.00
N181   N     0.20050   0.59746   0.12510   0.00000  Uiso   1.00
I182   I     0.06274   0.38338   0.38707   0.00000  Uiso   1.00
C183   C     0.06430   0.33528   0.20333   0.00000  Uiso   1.00
N184   N     0.10089   0.34904   0.17971   0.00000  Uiso   1.00
C185   C     0.34724   0.59793   0.24526   0.00000  Uiso   1.00
C186   C     0.47972   0.52767   0.48258   0.00000  Uiso   1.00
C187   C     0.44067   0.49524   0.44160   0.00000  Uiso   1.00
C188   C     0.53410   0.50900   0.00634   0.00000  Uiso   1.00
C189   C     0.55295   0.46523   0.47866   0.00000  Uiso   1.00
C190   C     0.51410   0.43462   0.43772   0.00000  Uiso   1.00
C191   C     0.45675   0.44620   0.42419   0.00000  Uiso   1.00
C192   C     0.56660   0.52646   0.06018   0.00000  Uiso   1.00
C193   C     0.63829   0.46432   0.05067   0.00000  Uiso   1.00
C194   C     0.38843   0.51450   0.41546   0.00000  Uiso   1.00
C195   C     0.35156   0.65101   0.23298   0.00000  Uiso   1.00
C196   C     0.36881   0.50318   0.35532   0.00000  Uiso   1.00
C197   C     0.64328   0.34689   0.24611   0.00000  Uiso   1.00
C198   C     0.65084   0.40172   0.24753   0.00000  Uiso   1.00
C199   C     0.63161   0.49895   0.14482   0.00000  Uiso   1.00
C200   C     0.60770   0.44755   0.49775   0.00000  Uiso   1.00
C201   C     0.61417   0.49904   0.08386   0.00000  Uiso   1.00
C202   C     0.36881   0.55922   0.43816   0.00000  Uiso   1.00
C203   C     0.40673   0.59120   0.47818   0.00000  Uiso   1.00
C204   C     0.46313   0.57765   0.49657   0.00000  Uiso   1.00
H205   H     0.34336   0.44513   0.06823   0.00000  Uiso   1.00
H206   H     0.60629   0.66410   0.26303   0.00000  Uiso   1.00
H207   H     0.49009   0.45844   0.20818   0.00000  Uiso   1.00
H208   H     0.50992   0.54159   0.29180   0.00000  Uiso   1.00
H209   H     0.52648   0.39816   0.42133   0.00000  Uiso   1.00
H210   H     0.62338   0.41608   0.47511   0.00000  Uiso   1.00
H211   H     0.66133   0.57376   0.41883   0.00000  Uiso   1.00
H212   H     0.49357   0.60812   0.01883   0.00000  Uiso   1.00
H213   H     0.39422   0.62884   0.49097   0.00000  Uiso   1.00
N214   N     0.47827   0.48556   0.23542   0.00000  Uiso   1.00
N215   N     0.52173   0.51444   0.26457   0.00000  Uiso   1.00
O216   O     0.63102   0.57963   0.25357   0.00000  Uiso   1.00
O217   O     0.39075   0.57038   0.24424   0.00000  Uiso   1.00
O218   O     0.64823   0.50691   0.33380   0.00000  Uiso   1.00
O219   O     0.40796   0.49766   0.32446   0.00000  Uiso   1.00
O220   O     0.60925   0.42962   0.25576   0.00000  Uiso   1.00
O221   O     0.36898   0.42037   0.24643   0.00000  Uiso   1.00
O222   O     0.59204   0.50234   0.17554   0.00000  Uiso   1.00
O223   O     0.35177   0.49309   0.16620   0.00000  Uiso   1.00
Zn224  Zn    0.60453   0.50618   0.25623   0.00000  Uiso   1.00
Zn225  Zn    0.39547   0.49382   0.24377   0.00000  Uiso   1.00
C226   C     0.54806   0.56612   0.09596   0.00000  Uiso   1.00
N227   N     0.53383   0.59746   0.12510   0.00000  Uiso   1.00
I228   I     0.39607   0.38338   0.38707   0.00000  Uiso   1.00
C229   C     0.39763   0.33528   0.20333   0.00000  Uiso   1.00
N230   N     0.43423   0.34904   0.17971   0.00000  Uiso   1.00
C231   C     0.68057   0.59793   0.24526   0.00000  Uiso   1.00
C232   C     0.81305   0.52767   0.48258   0.00000  Uiso   1.00
C233   C     0.77400   0.49524   0.44160   0.00000  Uiso   1.00
C234   C     0.86744   0.50900   0.00634   0.00000  Uiso   1.00
C235   C     0.88628   0.46523   0.47866   0.00000  Uiso   1.00
C236   C     0.84743   0.43462   0.43772   0.00000  Uiso   1.00
C237   C     0.79008   0.44620   0.42419   0.00000  Uiso   1.00
C238   C     0.89994   0.52646   0.06018   0.00000  Uiso   1.00
C239   C     0.97163   0.46432   0.05067   0.00000  Uiso   1.00
C240   C     0.72176   0.51450   0.41546   0.00000  Uiso   1.00
C241   C     0.68489   0.65101   0.23298   0.00000  Uiso   1.00
C242   C     0.70214   0.50318   0.35532   0.00000  Uiso   1.00
C243   C     0.97662   0.34689   0.24611   0.00000  Uiso   1.00
C244   C     0.98417   0.40172   0.24753   0.00000  Uiso   1.00
C245   C     0.96495   0.49895   0.14482   0.00000  Uiso   1.00
C246   C     0.94103   0.44755   0.49775   0.00000  Uiso   1.00
C247   C     0.94751   0.49904   0.08386   0.00000  Uiso   1.00
C248   C     0.70215   0.55922   0.43816   0.00000  Uiso   1.00
C249   C     0.74007   0.59120   0.47818   0.00000  Uiso   1.00
C250   C     0.79646   0.57765   0.49657   0.00000  Uiso   1.00
H251   H     0.67669   0.44513   0.06823   0.00000  Uiso   1.00
H252   H     0.93962   0.66410   0.26303   0.00000  Uiso   1.00
H253   H     0.82342   0.45844   0.20818   0.00000  Uiso   1.00
H254   H     0.84325   0.54159   0.29180   0.00000  Uiso   1.00
H255   H     0.85982   0.39816   0.42133   0.00000  Uiso   1.00
H256   H     0.95672   0.41608   0.47511   0.00000  Uiso   1.00
H257   H     0.99467   0.57376   0.41883   0.00000  Uiso   1.00
H258   H     0.82691   0.60812   0.01883   0.00000  Uiso   1.00
H259   H     0.72756   0.62884   0.49097   0.00000  Uiso   1.00
N260   N     0.81160   0.48556   0.23542   0.00000  Uiso   1.00
N261   N     0.85507   0.51444   0.26457   0.00000  Uiso   1.00
O262   O     0.96435   0.57963   0.25357   0.00000  Uiso   1.00
O263   O     0.72408   0.57038   0.24424   0.00000  Uiso   1.00
O264   O     0.98157   0.50691   0.33380   0.00000  Uiso   1.00
O265   O     0.74130   0.49766   0.32446   0.00000  Uiso   1.00
O266   O     0.94258   0.42962   0.25576   0.00000  Uiso   1.00
O267   O     0.70231   0.42037   0.24643   0.00000  Uiso   1.00
O268   O     0.92537   0.50234   0.17554   0.00000  Uiso   1.00
O269   O     0.68510   0.49309   0.16620   0.00000  Uiso   1.00
Zn270  Zn    0.93786   0.50618   0.25623   0.00000  Uiso   1.00
Zn271  Zn    0.72881   0.49382   0.24377   0.00000  Uiso   1.00
C272   C     0.88140   0.56612   0.09596   0.00000  Uiso   1.00
N273   N     0.86716   0.59746   0.12510   0.00000  Uiso   1.00
I274   I     0.72941   0.38338   0.38707   0.00000  Uiso   1.00
C275   C     0.73096   0.33528   0.20333   0.00000  Uiso   1.00
N276   N     0.76756   0.34904   0.17971   0.00000  Uiso   1.00
C277   C     0.01391   0.93126   0.24526   0.00000  Uiso   1.00
C278   C     0.14639   0.86100   0.48258   0.00000  Uiso   1.00
C279   C     0.10733   0.82857   0.44160   0.00000  Uiso   1.00
C280   C     0.20077   0.84234   0.00634   0.00000  Uiso   1.00
C281   C     0.21961   0.79856   0.47866   0.00000  Uiso   1.00
C282   C     0.18077   0.76795   0.43772   0.00000  Uiso   1.00
C283   C     0.12341   0.77954   0.42419   0.00000  Uiso   1.00
C284   C     0.23327   0.85980   0.06018   0.00000  Uiso   1.00
C285   C     0.30496   0.79766   0.05067   0.00000  Uiso   1.00
C286   C     0.05510   0.84783   0.41546   0.00000  Uiso   1.00
C287   C     0.01823   0.98434   0.23298   0.00000  Uiso   1.00
C288   C     0.03547   0.83652   0.35532   0.00000  Uiso   1.00
C289   C     0.30995   0.68022   0.24611   0.00000  Uiso   1.00
C290   C     0.31751   0.73506   0.24753   0.00000  Uiso   1.00
C291   C     0.29828   0.83229   0.14482   0.00000  Uiso   1.00
C292   C     0.27437   0.78088   0.49775   0.00000  Uiso   1.00
C293   C     0.28084   0.83237   0.08386   0.00000  Uiso   1.00
C294   C     0.03548   0.89255   0.43816   0.00000  Uiso   1.00
C295   C     0.07340   0.92454   0.47818   0.00000  Uiso   1.00
C296   C     0.12979   0.91098   0.49657   0.00000  Uiso   1.00
H297   H     0.01002   0.77846   0.06823   0.00000  Uiso   1.00
H298   H     0.27295   0.99743   0.26303   0.00000  Uiso   1.00
H299   H     0.15676   0.79177   0.20818   0.00000  Uiso   1.00
H300   H     0.17659   0.87492   0.29180   0.00000  Uiso   1.00
H301   H     0.19315   0.73150   0.42133   0.00000  Uiso   1.00
H302   H     0.29005   0.74941   0.47511   0.00000  Uiso   1.00
H303   H     0.32800   0.90709   0.41883   0.00000  Uiso   1.00
H304   H     0.16024   0.94145   0.01883   0.00000  Uiso   1.00
H305   H     0.06089   0.96217   0.49097   0.00000  Uiso   1.00
N306   N     0.14493   0.81890   0.23542   0.00000  Uiso   1.00
N307   N     0.18840   0.84777   0.26457   0.00000  Uiso   1.00
O308   O     0.29769   0.91296   0.25357   0.00000  Uiso   1.00
O309   O     0.05742   0.90371   0.24424   0.00000  Uiso   1.00
O310   O     0.31490   0.84024   0.33380   0.00000  Uiso   1.00
O311   O     0.07463   0.83099   0.32446   0.00000  Uiso   1.00
O312   O     0.27592   0.76296   0.25576   0.00000  Uiso   1.00
O313   O     0.03565   0.75371   0.24643   0.00000  Uiso   1.00
O314   O     0.25870   0.83567   0.17554   0.00000  Uiso   1.00
O315   O     0.01843   0.82642   0.16620   0.00000  Uiso   1.00
Zn316  Zn    0.27119   0.83951   0.25623   0.00000  Uiso   1.00
Zn317  Zn    0.06214   0.82716   0.24377   0.00000  Uiso   1.00
C318   C     0.21473   0.89946   0.09596   0.00000  Uiso   1.00
N319   N     0.20050   0.93080   0.12510   0.00000  Uiso   1.00
I320   I     0.06274   0.71671   0.38707   0.00000  Uiso   1.00
C321   C     0.06430   0.66861   0.20333   0.00000  Uiso   1.00
N322   N     0.10089   0.68237   0.17971   0.00000  Uiso   1.00
C323   C     0.34724   0.93126   0.24526   0.00000  Uiso   1.00
C324   C     0.47972   0.86100   0.48258   0.00000  Uiso   1.00
C325   C     0.44067   0.82857   0.44160   0.00000  Uiso   1.00
C326   C     0.53410   0.84234   0.00634   0.00000  Uiso   1.00
C327   C     0.55295   0.79856   0.47866   0.00000  Uiso   1.00
C328   C     0.51410   0.76795   0.43772   0.00000  Uiso   1.00
C329   C     0.45675   0.77954   0.42419   0.00000  Uiso   1.00
C330   C     0.56660   0.85980   0.06018   0.00000  Uiso   1.00
C331   C     0.63829   0.79766   0.05067   0.00000  Uiso   1.00
C332   C     0.38843   0.84783   0.41546   0.00000  Uiso   1.00
C333   C     0.35156   0.98434   0.23298   0.00000  Uiso   1.00
C334   C     0.36881   0.83652   0.35532   0.00000  Uiso   1.00
C335   C     0.64328   0.68022   0.24611   0.00000  Uiso   1.00
C336   C     0.65084   0.73506   0.24753   0.00000  Uiso   1.00
C337   C     0.63161   0.83229   0.14482   0.00000  Uiso   1.00
C338   C     0.60770   0.78088   0.49775   0.00000  Uiso   1.00
C339   C     0.61417   0.83237   0.08386   0.00000  Uiso   1.00
C340   C     0.36881   0.89255   0.43816   0.00000  Uiso   1.00
C341   C     0.40673   0.92454   0.47818   0.00000  Uiso   1.00
C342   C     0.46313   0.91098   0.49657   0.00000  Uiso   1.00
H343   H     0.34336   0.77846   0.06823   0.00000  Uiso   1.00
H344   H     0.60629   0.99743   0.26303   0.00000  Uiso   1.00
H345   H     0.49009   0.79177   0.20818   0.00000  Uiso   1.00
H346   H     0.50992   0.87492   0.29180   0.00000  Uiso   1.00
H347   H     0.52648   0.73150   0.42133   0.00000  Uiso   1.00
H348   H     0.62338   0.74941   0.47511   0.00000  Uiso   1.00
H349   H     0.66133   0.90709   0.41883   0.00000  Uiso   1.00
H350   H     0.49357   0.94145   0.01883   0.00000  Uiso   1.00
H351   H     0.39422   0.96217   0.49097   0.00000  Uiso   1.00
N352   N     0.47827   0.81890   0.23542   0.00000  Uiso   1.00
N353   N     0.52173   0.84777   0.26457   0.00000  Uiso   1.00
O354   O     0.63102   0.91296   0.25357   0.00000  Uiso   1.00
O355   O     0.39075   0.90371   0.24424   0.00000  Uiso   1.00
O356   O     0.64823   0.84024   0.33380   0.00000  Uiso   1.00
O357   O     0.40796   0.83099   0.32446   0.00000  Uiso   1.00
O358   O     0.60925   0.76296   0.25576   0.00000  Uiso   1.00
O359   O     0.36898   0.75371   0.24643   0.00000  Uiso   1.00
O360   O     0.59204   0.83567   0.17554   0.00000  Uiso   1.00
O361   O     0.35177   0.82642   0.16620   0.00000  Uiso   1.00
Zn362  Zn    0.60453   0.83951   0.25623   0.00000  Uiso   1.00
Zn363  Zn    0.39547   0.82716   0.24377   0.00000  Uiso   1.00
C364   C     0.54806   0.89946   0.09596   0.00000  Uiso   1.00
N365   N     0.53383   0.93080   0.12510   0.00000  Uiso   1.00
I366   I     0.39607   0.71671   0.38707   0.00000  Uiso   1.00
C367   C     0.39763   0.66861   0.20333   0.00000  Uiso   1.00
N368   N     0.43423   0.68237   0.17971   0.00000  Uiso   1.00
C369   C     0.68057   0.93126   0.24526   0.00000  Uiso   1.00
C370   C     0.81305   0.86100   0.48258   0.00000  Uiso   1.00
C371   C     0.77400   0.82857   0.44160   0.00000  Uiso   1.00
C372   C     0.86744   0.84234   0.00634   0.00000  Uiso   1.00
C373   C     0.88628   0.79856   0.47866   0.00000  Uiso   1.00
C374   C     0.84743   0.76795   0.43772   0.00000  Uiso   1.00
C375   C     0.79008   0.77954   0.42419   0.00000  Uiso   1.00
C376   C     0.89994   0.85980   0.06018   0.00000  Uiso   1.00
C377   C     0.97163   0.79766   0.05067   0.00000  Uiso   1.00
C378   C     0.72176   0.84783   0.41546   0.00000  Uiso   1.00
C379   C     0.68489   0.98434   0.23298   0.00000  Uiso   1.00
C380   C     0.70214   0.83652   0.35532   0.00000  Uiso   1.00
C381   C     0.97662   0.68022   0.24611   0.00000  Uiso   1.00
C382   C     0.98417   0.73506   0.24753   0.00000  Uiso   1.00
C383   C     0.96495   0.83229   0.14482   0.00000  Uiso   1.00
C384   C     0.94103   0.78088   0.49775   0.00000  Uiso   1.00
C385   C     0.94751   0.83237   0.08386   0.00000  Uiso   1.00
C386   C     0.70215   0.89255   0.43816   0.00000  Uiso   1.00
C387   C     0.74007   0.92454   0.47818   0.00000  Uiso   1.00
C388   C     0.79646   0.91098   0.49657   0.00000  Uiso   1.00
H389   H     0.67669   0.77846   0.06823   0.00000  Uiso   1.00
H390   H     0.93962   0.99743   0.26303   0.00000  Uiso   1.00
H391   H     0.82342   0.79177   0.20818   0.00000  Uiso   1.00
H392   H     0.84325   0.87492   0.29180   0.00000  Uiso   1.00
H393   H     0.85982   0.73150   0.42133   0.00000  Uiso   1.00
H394   H     0.95672   0.74941   0.47511   0.00000  Uiso   1.00
H395   H     0.99467   0.90709   0.41883   0.00000  Uiso   1.00
H396   H     0.82691   0.94145   0.01883   0.00000  Uiso   1.00
H397   H     0.72756   0.96217   0.49097   0.00000  Uiso   1.00
N398   N     0.81160   0.81890   0.23542   0.00000  Uiso   1.00
N399   N     0.85507   0.84777   0.26457   0.00000  Uiso   1.00
O400   O     0.96435   0.91296   0.25357   0.00000  Uiso   1.00
O401   O     0.72408   0.90371   0.24424   0.00000  Uiso   1.00
O402   O     0.98157   0.84024   0.33380   0.00000  Uiso   1.00
O403   O     0.74130   0.83099   0.32446   0.00000  Uiso   1.00
O404   O     0.94258   0.76296   0.25576   0.00000  Uiso   1.00
O405   O     0.70231   0.75371   0.24643   0.00000  Uiso   1.00
O406   O     0.92537   0.83567   0.17554   0.00000  Uiso   1.00
O407   O     0.68510   0.82642   0.16620   0.00000  Uiso   1.00
Zn408  Zn    0.93786   0.83951   0.25623   0.00000  Uiso   1.00
Zn409  Zn    0.72881   0.82716   0.24377   0.00000  Uiso   1.00
C410   C     0.88140   0.89946   0.09596   0.00000  Uiso   1.00
N411   N     0.86716   0.93080   0.12510   0.00000  Uiso   1.00
I412   I     0.72941   0.71671   0.38707   0.00000  Uiso   1.00
C413   C     0.73096   0.66861   0.20333   0.00000  Uiso   1.00
N414   N     0.76756   0.68237   0.17971   0.00000  Uiso   1.00
C415   C     0.01391   0.26459   0.74526   0.00000  Uiso   1.00
C416   C     0.14639   0.19434   0.98258   0.00000  Uiso   1.00
C417   C     0.10733   0.16190   0.94160   0.00000  Uiso   1.00
C418   C     0.20077   0.17567   0.50634   0.00000  Uiso   1.00
C419   C     0.21961   0.13189   0.97866   0.00000  Uiso   1.00
C420   C     0.18077   0.10129   0.93772   0.00000  Uiso   1.00
C421   C     0.12341   0.11287   0.92419   0.00000  Uiso   1.00
C422   C     0.23327   0.19313   0.56018   0.00000  Uiso   1.00
C423   C     0.30496   0.13099   0.55067   0.00000  Uiso   1.00
C424   C     0.05510   0.18116   0.91546   0.00000  Uiso   1.00
C425   C     0.01823   0.31767   0.73298   0.00000  Uiso   1.00
C426   C     0.03547   0.16985   0.85532   0.00000  Uiso   1.00
C427   C     0.30995   0.01355   0.74611   0.00000  Uiso   1.00
C428   C     0.31751   0.06839   0.74753   0.00000  Uiso   1.00
C429   C     0.29828   0.16562   0.64482   0.00000  Uiso   1.00
C430   C     0.27437   0.11422   0.99775   0.00000  Uiso   1.00
C431   C     0.28084   0.16571   0.58386   0.00000  Uiso   1.00
C432   C     0.03548   0.22588   0.93816   0.00000  Uiso   1.00
C433   C     0.07340   0.25787   0.97818   0.00000  Uiso   1.00
C434   C     0.12979   0.24432   0.99657   0.00000  Uiso   1.00
H435   H     0.01002   0.11179   0.56823   0.00000  Uiso   1.00
H436   H     0.27295   0.33077   0.76303   0.00000  Uiso   1.00
H437   H     0.15676   0.12511   0.70818   0.00000  Uiso   1.00
H438   H     0.17659   0.20826   0.79180   0.00000  Uiso   1.00
H439   H     0.19315   0.06483   0.92133   0.00000  Uiso   1.00
H440   H     0.29005   0.08274   0.97511   0.00000  Uiso   1.00
H441   H     0.32800   0.24043   0.91883   0.00000  Uiso   1.00
H442   H     0.16024   0.27478   0.51883   0.00000  Uiso   1.00
H443   H     0.06089   0.29551   0.99097   0.00000  Uiso   1.00
N444   N     0.14493   0.15223   0.73542   0.00000  Uiso   1.00
N445   N     0.18840   0.18110   0.76457   0.00000  Uiso   1.00
O446   O     0.29769   0.24629   0.75357   0.00000  Uiso   1.00
O447   O     0.05742   0.23704   0.74424   0.00000  Uiso   1.00
O448   O     0.31490   0.17358   0.83380   0.00000  Uiso   1.00
O449   O     0.07463   0.16433   0.82446   0.00000  Uiso   1.00
O450   O     0.27592   0.09629   0.75576   0.00000  Uiso   1.00
O451   O     0.03565   0.08704   0.74643   0.00000  Uiso   1.00
O452   O     0.25870   0.16901   0.67554   0.00000  Uiso   1.00
O453   O     0.01843   0.15976   0.66620   0.00000  Uiso   1.00
Zn454  Zn    0.27119   0.17284   0.75623   0.00000  Uiso   1.00
Zn455  Zn    0.06214   0.16049   0.74377   0.00000  Uiso   1.00
C456   C     0.21473   0.23279   0.59596   0.00000  Uiso   1.00
N457   N     0.20050   0.26413   0.62510   0.00000  Uiso   1.00
I458   I     0.06274   0.05005   0.88707   0.00000  Uiso   1.00
C459   C     0.06430   0.00194   0.70333   0.00000  Uiso   1.00
N460   N     0.10089   0.01570   0.67971   0.00000  Uiso   1.00
C461   C     0.34724   0.26459   0.74526   0.00000  Uiso   1.00
C462   C     0.47972   0.19434   0.98258   0.00000  Uiso   1.00
C463   C     0.44067   0.16190   0.94160   0.00000  Uiso   1.00
C464   C     0.53410   0.17567   0.50634   0.00000  Uiso   1.00
C465   C     0.55295   0.13189   0.97866   0.00000  Uiso   1.00
C466   C     0.51410   0.10129   0.93772   0.00000  Uiso   1.00
C467   C     0.45675   0.11287   0.92419   0.00000  Uiso   1.00
C468   C     0.56660   0.19313   0.56018   0.00000  Uiso   1.00
C469   C     0.63829   0.13099   0.55067   0.00000  Uiso   1.00
C470   C     0.38843   0.18116   0.91546   0.00000  Uiso   1.00
C471   C     0.35156   0.31767   0.73298   0.00000  Uiso   1.00
C472   C     0.36881   0.16985   0.85532   0.00000  Uiso   1.00
C473   C     0.64328   0.01355   0.74611   0.00000  Uiso   1.00
C474   C     0.65084   0.06839   0.74753   0.00000  Uiso   1.00
C475   C     0.63161   0.16562   0.64482   0.00000  Uiso   1.00
C476   C     0.60770   0.11422   0.99775   0.00000  Uiso   1.00
C477   C     0.61417   0.16571   0.58386   0.00000  Uiso   1.00
C478   C     0.36881   0.22588   0.93816   0.00000  Uiso   1.00
C479   C     0.40673   0.25787   0.97818   0.00000  Uiso   1.00
C480   C     0.46313   0.24432   0.99657   0.00000  Uiso   1.00
H481   H     0.34336   0.11179   0.56823   0.00000  Uiso   1.00
H482   H     0.60629   0.33077   0.76303   0.00000  Uiso   1.00
H483   H     0.49009   0.12511   0.70818   0.00000  Uiso   1.00
H484   H     0.50992   0.20826   0.79180   0.00000  Uiso   1.00
H485   H     0.52648   0.06483   0.92133   0.00000  Uiso   1.00
H486   H     0.62338   0.08274   0.97511   0.00000  Uiso   1.00
H487   H     0.66133   0.24043   0.91883   0.00000  Uiso   1.00
H488   H     0.49357   0.27478   0.51883   0.00000  Uiso   1.00
H489   H     0.39422   0.29551   0.99097   0.00000  Uiso   1.00
N490   N     0.47827   0.15223   0.73542   0.00000  Uiso   1.00
N491   N     0.52173   0.18110   0.76457   0.00000  Uiso   1.00
O492   O     0.63102   0.24629   0.75357   0.00000  Uiso   1.00
O493   O     0.39075   0.23704   0.74424   0.00000  Uiso   1.00
O494   O     0.64823   0.17358   0.83380   0.00000  Uiso   1.00
O495   O     0.40796   0.16433   0.82446   0.00000  Uiso   1.00
O496   O     0.60925   0.09629   0.75576   0.00000  Uiso   1.00
O497   O     0.36898   0.08704   0.74643   0.00000  Uiso   1.00
O498   O     0.59204   0.16901   0.67554   0.00000  Uiso   1.00
O499   O     0.35177   0.15976   0.66620   0.00000  Uiso   1.00
Zn500  Zn    0.60453   0.17284   0.75623   0.00000  Uiso   1.00
Zn501  Zn    0.39547   0.16049   0.74377   0.00000  Uiso   1.00
C502   C     0.54806   0.23279   0.59596   0.00000  Uiso   1.00
N503   N     0.53383   0.26413   0.62510   0.00000  Uiso   1.00
I504   I     0.39607   0.05005   0.88707   0.00000  Uiso   1.00
C505   C     0.39763   0.00194   0.70333   0.00000  Uiso   1.00
N506   N     0.43423   0.01570   0.67971   0.00000  Uiso   1.00
C507   C     0.68057   0.26459   0.74526   0.00000  Uiso   1.00
C508   C     0.81305   0.19434   0.98258   0.00000  Uiso   1.00
C509   C     0.77400   0.16190   0.94160   0.00000  Uiso   1.00
C510   C     0.86744   0.17567   0.50634   0.00000  Uiso   1.00
C511   C     0.88628   0.13189   0.97866   0.00000  Uiso   1.00
C512   C     0.84743   0.10129   0.93772   0.00000  Uiso   1.00
C513   C     0.79008   0.11287   0.92419   0.00000  Uiso   1.00
C514   C     0.89994   0.19313   0.56018   0.00000  Uiso   1.00
C515   C     0.97163   0.13099   0.55067   0.00000  Uiso   1.00
C516   C     0.72176   0.18116   0.91546   0.00000  Uiso   1.00
C517   C     0.68489   0.31767   0.73298   0.00000  Uiso   1.00
C518   C     0.70214   0.16985   0.85532   0.00000  Uiso   1.00
C519   C     0.97662   0.01355   0.74611   0.00000  Uiso   1.00
C520   C     0.98417   0.06839   0.74753   0.00000  Uiso   1.00
C521   C     0.96495   0.16562   0.64482   0.00000  Uiso   1.00
C522   C     0.94103   0.11422   0.99775   0.00000  Uiso   1.00
C523   C     0.94751   0.16571   0.58386   0.00000  Uiso   1.00
C524   C     0.70215   0.22588   0.93816   0.00000  Uiso   1.00
C525   C     0.74007   0.25787   0.97818   0.00000  Uiso   1.00
C526   C     0.79646   0.24432   0.99657   0.00000  Uiso   1.00
H527   H     0.67669   0.11179   0.56823   0.00000  Uiso   1.00
H528   H     0.93962   0.33077   0.76303   0.00000  Uiso   1.00
H529   H     0.82342   0.12511   0.70818   0.00000  Uiso   1.00
H530   H     0.84325   0.20826   0.79180   0.00000  Uiso   1.00
H531   H     0.85982   0.06483   0.92133   0.00000  Uiso   1.00
H532   H     0.95672   0.08274   0.97511   0.00000  Uiso   1.00
H533   H     0.99467   0.24043   0.91883   0.00000  Uiso   1.00
H534   H     0.82691   0.27478   0.51883   0.00000  Uiso   1.00
H535   H     0.72756   0.29551   0.99097   0.00000  Uiso   1.00
N536   N     0.81160   0.15223   0.73542   0.00000  Uiso   1.00
N537   N     0.85507   0.18110   0.76457   0.00000  Uiso   1.00
O538   O     0.96435   0.24629   0.75357   0.00000  Uiso   1.00
O539   O     0.72408   0.23704   0.74424   0.00000  Uiso   1.00
O540   O     0.98157   0.17358   0.83380   0.00000  Uiso   1.00
O541   O     0.74130   0.16433   0.82446   0.00000  Uiso   1.00
O542   O     0.94258   0.09629   0.75576   0.00000  Uiso   1.00
O543   O     0.70231   0.08704   0.74643   0.00000  Uiso   1.00
O544   O     0.92537   0.16901   0.67554   0.00000  Uiso   1.00
O545   O     0.68510   0.15976   0.66620   0.00000  Uiso   1.00
Zn546  Zn    0.93786   0.17284   0.75623   0.00000  Uiso   1.00
Zn547  Zn    0.72881   0.16049   0.74377   0.00000  Uiso   1.00
C548   C     0.88140   0.23279   0.59596   0.00000  Uiso   1.00
N549   N     0.86716   0.26413   0.62510   0.00000  Uiso   1.00
I550   I     0.72941   0.05005   0.88707   0.00000  Uiso   1.00
C551   C     0.73096   0.00194   0.70333   0.00000  Uiso   1.00
N552   N     0.76756   0.01570   0.67971   0.00000  Uiso   1.00
C553   C     0.01391   0.59793   0.74526   0.00000  Uiso   1.00
C554   C     0.14639   0.52767   0.98258   0.00000  Uiso   1.00
C555   C     0.10733   0.49524   0.94160   0.00000  Uiso   1.00
C556   C     0.20077   0.50900   0.50634   0.00000  Uiso   1.00
C557   C     0.21961   0.46523   0.97866   0.00000  Uiso   1.00
C558   C     0.18077   0.43462   0.93772   0.00000  Uiso   1.00
C559   C     0.12341   0.44620   0.92419   0.00000  Uiso   1.00
C560   C     0.23327   0.52646   0.56018   0.00000  Uiso   1.00
C561   C     0.30496   0.46432   0.55067   0.00000  Uiso   1.00
C562   C     0.05510   0.51450   0.91546   0.00000  Uiso   1.00
C563   C     0.01823   0.65101   0.73298   0.00000  Uiso   1.00
C564   C     0.03547   0.50318   0.85532   0.00000  Uiso   1.00
C565   C     0.30995   0.34689   0.74611   0.00000  Uiso   1.00
C566   C     0.31751   0.40172   0.74753   0.00000  Uiso   1.00
C567   C     0.29828   0.49895   0.64482   0.00000  Uiso   1.00
C568   C     0.27437   0.44755   0.99775   0.00000  Uiso   1.00
C569   C     0.28084   0.49904   0.58386   0.00000  Uiso   1.00
C570   C     0.03548   0.55922   0.93816   0.00000  Uiso   1.00
C571   C     0.07340   0.59120   0.97818   0.00000  Uiso   1.00
C572   C     0.12979   0.57765   0.99657   0.00000  Uiso   1.00
H573   H     0.01002   0.44513   0.56823   0.00000  Uiso   1.00
H574   H     0.27295   0.66410   0.76303   0.00000  Uiso   1.00
H575   H     0.15676   0.45844   0.70818   0.00000  Uiso   1.00
H576   H     0.17659   0.54159   0.79180   0.00000  Uiso   1.00
H577   H     0.19315   0.39816   0.92133   0.00000  Uiso   1.00
H578   H     0.29005   0.41608   0.97511   0.00000  Uiso   1.00
H579   H     0.32800   0.57376   0.91883   0.00000  Uiso   1.00
H580   H     0.16024   0.60812   0.51883   0.00000  Uiso   1.00
H581   H     0.06089   0.62884   0.99097   0.00000  Uiso   1.00
N582   N     0.14493   0.48556   0.73542   0.00000  Uiso   1.00
N583   N     0.18840   0.51444   0.76457   0.00000  Uiso   1.00
O584   O     0.29769   0.57963   0.75357   0.00000  Uiso   1.00
O585   O     0.05742   0.57038   0.74424   0.00000  Uiso   1.00
O586   O     0.31490   0.50691   0.83380   0.00000  Uiso   1.00
O587   O     0.07463   0.49766   0.82446   0.00000  Uiso   1.00
O588   O     0.27592   0.42962   0.75576   0.00000  Uiso   1.00
O589   O     0.03565   0.42037   0.74643   0.00000  Uiso   1.00
O590   O     0.25870   0.50234   0.67554   0.00000  Uiso   1.00
O591   O     0.01843   0.49309   0.66620   0.00000  Uiso   1.00
Zn592  Zn    0.27119   0.50618   0.75623   0.00000  Uiso   1.00
Zn593  Zn    0.06214   0.49382   0.74377   0.00000  Uiso   1.00
C594   C     0.21473   0.56612   0.59596   0.00000  Uiso   1.00
N595   N     0.20050   0.59746   0.62510   0.00000  Uiso   1.00
I596   I     0.06274   0.38338   0.88707   0.00000  Uiso   1.00
C597   C     0.06430   0.33528   0.70333   0.00000  Uiso   1.00
N598   N     0.10089   0.34904   0.67971   0.00000  Uiso   1.00
C599   C     0.34724   0.59793   0.74526   0.00000  Uiso   1.00
C600   C     0.47972   0.52767   0.98258   0.00000  Uiso   1.00
C601   C     0.44067   0.49524   0.94160   0.00000  Uiso   1.00
C602   C     0.53410   0.50900   0.50634   0.00000  Uiso   1.00
C603   C     0.55295   0.46523   0.97866   0.00000  Uiso   1.00
C604   C     0.51410   0.43462   0.93772   0.00000  Uiso   1.00
C605   C     0.45675   0.44620   0.92419   0.00000  Uiso   1.00
C606   C     0.56660   0.52646   0.56018   0.00000  Uiso   1.00
C607   C     0.63829   0.46432   0.55067   0.00000  Uiso   1.00
C608   C     0.38843   0.51450   0.91546   0.00000  Uiso   1.00
C609   C     0.35156   0.65101   0.73298   0.00000  Uiso   1.00
C610   C     0.36881   0.50318   0.85532   0.00000  Uiso   1.00
C611   C     0.64328   0.34689   0.74611   0.00000  Uiso   1.00
C612   C     0.65084   0.40172   0.74753   0.00000  Uiso   1.00
C613   C     0.63161   0.49895   0.64482   0.00000  Uiso   1.00
C614   C     0.60770   0.44755   0.99775   0.00000  Uiso   1.00
C615   C     0.61417   0.49904   0.58386   0.00000  Uiso   1.00
C616   C     0.36881   0.55922   0.93816   0.00000  Uiso   1.00
C617   C     0.40673   0.59120   0.97818   0.00000  Uiso   1.00
C618   C     0.46313   0.57765   0.99657   0.00000  Uiso   1.00
H619   H     0.34336   0.44513   0.56823   0.00000  Uiso   1.00
H620   H     0.60629   0.66410   0.76303   0.00000  Uiso   1.00
H621   H     0.49009   0.45844   0.70818   0.00000  Uiso   1.00
H622   H     0.50992   0.54159   0.79180   0.00000  Uiso   1.00
H623   H     0.52648   0.39816   0.92133   0.00000  Uiso   1.00
H624   H     0.62338   0.41608   0.97511   0.00000  Uiso   1.00
H625   H     0.66133   0.57376   0.91883   0.00000  Uiso   1.00
H626   H     0.49357   0.60812   0.51883   0.00000  Uiso   1.00
H627   H     0.39422   0.62884   0.99097   0.00000  Uiso   1.00
N628   N     0.47827   0.48556   0.73542   0.00000  Uiso   1.00
N629   N     0.52173   0.51444   0.76457   0.00000  Uiso   1.00
O630   O     0.63102   0.57963   0.75357   0.00000  Uiso   1.00
O631   O     0.39075   0.57038   0.74424   0.00000  Uiso   1.00
O632   O     0.64823   0.50691   0.83380   0.00000  Uiso   1.00
O633   O     0.40796   0.49766   0.82446   0.00000  Uiso   1.00
O634   O     0.60925   0.42962   0.75576   0.00000  Uiso   1.00
O635   O     0.36898   0.42037   0.74643   0.00000  Uiso   1.00
O636   O     0.59204   0.50234   0.67554   0.00000  Uiso   1.00
O637   O     0.35177   0.49309   0.66620   0.00000  Uiso   1.00
Zn638  Zn    0.60453   0.50618   0.75623   0.00000  Uiso   1.00
Zn639  Zn    0.39547   0.49382   0.74377   0.00000  Uiso   1.00
C640   C     0.54806   0.56612   0.59596   0.00000  Uiso   1.00
N641   N     0.53383   0.59746   0.62510   0.00000  Uiso   1.00
I642   I     0.39607   0.38338   0.88707   0.00000  Uiso   1.00
C643   C     0.39763   0.33528   0.70333   0.00000  Uiso   1.00
N644   N     0.43423   0.34904   0.67971   0.00000  Uiso   1.00
C645   C     0.68057   0.59793   0.74526   0.00000  Uiso   1.00
C646   C     0.81305   0.52767   0.98258   0.00000  Uiso   1.00
C647   C     0.77400   0.49524   0.94160   0.00000  Uiso   1.00
C648   C     0.86744   0.50900   0.50634   0.00000  Uiso   1.00
C649   C     0.88628   0.46523   0.97866   0.00000  Uiso   1.00
C650   C     0.84743   0.43462   0.93772   0.00000  Uiso   1.00
C651   C     0.79008   0.44620   0.92419   0.00000  Uiso   1.00
C652   C     0.89994   0.52646   0.56018   0.00000  Uiso   1.00
C653   C     0.97163   0.46432   0.55067   0.00000  Uiso   1.00
C654   C     0.72176   0.51450   0.91546   0.00000  Uiso   1.00
C655   C     0.68489   0.65101   0.73298   0.00000  Uiso   1.00
C656   C     0.70214   0.50318   0.85532   0.00000  Uiso   1.00
C657   C     0.97662   0.34689   0.74611   0.00000  Uiso   1.00
C658   C     0.98417   0.40172   0.74753   0.00000  Uiso   1.00
C659   C     0.96495   0.49895   0.64482   0.00000  Uiso   1.00
C660   C     0.94103   0.44755   0.99775   0.00000  Uiso   1.00
C661   C     0.94751   0.49904   0.58386   0.00000  Uiso   1.00
C662   C     0.70215   0.55922   0.93816   0.00000  Uiso   1.00
C663   C     0.74007   0.59120   0.97818   0.00000  Uiso   1.00
C664   C     0.79646   0.57765   0.99657   0.00000  Uiso   1.00
H665   H     0.67669   0.44513   0.56823   0.00000  Uiso   1.00
H666   H     0.93962   0.66410   0.76303   0.00000  Uiso   1.00
H667   H     0.82342   0.45844   0.70818   0.00000  Uiso   1.00
H668   H     0.84325   0.54159   0.79180   0.00000  Uiso   1.00
H669   H     0.85982   0.39816   0.92133   0.00000  Uiso   1.00
H670   H     0.95672   0.41608   0.97511   0.00000  Uiso   1.00
H671   H     0.99467   0.57376   0.91883   0.00000  Uiso   1.00
H672   H     0.82691   0.60812   0.51883   0.00000  Uiso   1.00
H673   H     0.72756   0.62884   0.99097   0.00000  Uiso   1.00
N674   N     0.81160   0.48556   0.73542   0.00000  Uiso   1.00
N675   N     0.85507   0.51444   0.76457   0.00000  Uiso   1.00
O676   O     0.96435   0.57963   0.75357   0.00000  Uiso   1.00
O677   O     0.72408   0.57038   0.74424   0.00000  Uiso   1.00
O678   O     0.98157   0.50691   0.83380   0.00000  Uiso   1.00
O679   O     0.74130   0.49766   0.82446   0.00000  Uiso   1.00
O680   O     0.94258   0.42962   0.75576   0.00000  Uiso   1.00
O681   O     0.70231   0.42037   0.74643   0.00000  Uiso   1.00
O682   O     0.92537   0.50234   0.67554   0.00000  Uiso   1.00
O683   O     0.68510   0.49309   0.66620   0.00000  Uiso   1.00
Zn684  Zn    0.93786   0.50618   0.75623   0.00000  Uiso   1.00
Zn685  Zn    0.72881   0.49382   0.74377   0.00000  Uiso   1.00
C686   C     0.88140   0.56612   0.59596   0.00000  Uiso   1.00
N687   N     0.86716   0.59746   0.62510   0.00000  Uiso   1.00
I688   I     0.72941   0.38338   0.88707   0.00000  Uiso   1.00
C689   C     0.73096   0.33528   0.70333   0.00000  Uiso   1.00
N690   N     0.76756   0.34904   0.67971   0.00000  Uiso   1.00
C691   C     0.01391   0.93126   0.74526   0.00000  Uiso   1.00
C692   C     0.14639   0.86100   0.98258   0.00000  Uiso   1.00
C693   C     0.10733   0.82857   0.94160   0.00000  Uiso   1.00
C694   C     0.20077   0.84234   0.50634   0.00000  Uiso   1.00
C695   C     0.21961   0.79856   0.97866   0.00000  Uiso   1.00
C696   C     0.18077   0.76795   0.93772   0.00000  Uiso   1.00
C697   C     0.12341   0.77954   0.92419   0.00000  Uiso   1.00
C698   C     0.23327   0.85980   0.56018   0.00000  Uiso   1.00
C699   C     0.30496   0.79766   0.55067   0.00000  Uiso   1.00
C700   C     0.05510   0.84783   0.91546   0.00000  Uiso   1.00
C701   C     0.01823   0.98434   0.73298   0.00000  Uiso   1.00
C702   C     0.03547   0.83652   0.85532   0.00000  Uiso   1.00
C703   C     0.30995   0.68022   0.74611   0.00000  Uiso   1.00
C704   C     0.31751   0.73506   0.74753   0.00000  Uiso   1.00
C705   C     0.29828   0.83229   0.64482   0.00000  Uiso   1.00
C706   C     0.27437   0.78088   0.99775   0.00000  Uiso   1.00
C707   C     0.28084   0.83237   0.58386   0.00000  Uiso   1.00
C708   C     0.03548   0.89255   0.93816   0.00000  Uiso   1.00
C709   C     0.07340   0.92454   0.97818   0.00000  Uiso   1.00
C710   C     0.12979   0.91098   0.99657   0.00000  Uiso   1.00
H711   H     0.01002   0.77846   0.56823   0.00000  Uiso   1.00
H712   H     0.27295   0.99743   0.76303   0.00000  Uiso   1.00
H713   H     0.15676   0.79177   0.70818   0.00000  Uiso   1.00
H714   H     0.17659   0.87492   0.79180   0.00000  Uiso   1.00
H715   H     0.19315   0.73150   0.92133   0.00000  Uiso   1.00
H716   H     0.29005   0.74941   0.97511   0.00000  Uiso   1.00
H717   H     0.32800   0.90709   0.91883   0.00000  Uiso   1.00
H718   H     0.16024   0.94145   0.51883   0.00000  Uiso   1.00
H719   H     0.06089   0.96217   0.99097   0.00000  Uiso   1.00
N720   N     0.14493   0.81890   0.73542   0.00000  Uiso   1.00
N721   N     0.18840   0.84777   0.76457   0.00000  Uiso   1.00
O722   O     0.29769   0.91296   0.75357   0.00000  Uiso   1.00
O723   O     0.05742   0.90371   0.74424   0.00000  Uiso   1.00
O724   O     0.31490   0.84024   0.83380   0.00000  Uiso   1.00
O725   O     0.07463   0.83099   0.82446   0.00000  Uiso   1.00
O726   O     0.27592   0.76296   0.75576   0.00000  Uiso   1.00
O727   O     0.03565   0.75371   0.74643   0.00000  Uiso   1.00
O728   O     0.25870   0.83567   0.67554   0.00000  Uiso   1.00
O729   O     0.01843   0.82642   0.66620   0.00000  Uiso   1.00
Zn730  Zn    0.27119   0.83951   0.75623   0.00000  Uiso   1.00
Zn731  Zn    0.06214   0.82716   0.74377   0.00000  Uiso   1.00
C732   C     0.21473   0.89946   0.59596   0.00000  Uiso   1.00
N733   N     0.20050   0.93080   0.62510   0.00000  Uiso   1.00
I734   I     0.06274   0.71671   0.88707   0.00000  Uiso   1.00
C735   C     0.06430   0.66861   0.70333   0.00000  Uiso   1.00
N736   N     0.10089   0.68237   0.67971   0.00000  Uiso   1.00
C737   C     0.34724   0.93126   0.74526   0.00000  Uiso   1.00
C738   C     0.47972   0.86100   0.98258   0.00000  Uiso   1.00
C739   C     0.44067   0.82857   0.94160   0.00000  Uiso   1.00
C740   C     0.53410   0.84234   0.50634   0.00000  Uiso   1.00
C741   C     0.55295   0.79856   0.97866   0.00000  Uiso   1.00
C742   C     0.51410   0.76795   0.93772   0.00000  Uiso   1.00
C743   C     0.45675   0.77954   0.92419   0.00000  Uiso   1.00
C744   C     0.56660   0.85980   0.56018   0.00000  Uiso   1.00
C745   C     0.63829   0.79766   0.55067   0.00000  Uiso   1.00
C746   C     0.38843   0.84783   0.91546   0.00000  Uiso   1.00
C747   C     0.35156   0.98434   0.73298   0.00000  Uiso   1.00
C748   C     0.36881   0.83652   0.85532   0.00000  Uiso   1.00
C749   C     0.64328   0.68022   0.74611   0.00000  Uiso   1.00
C750   C     0.65084   0.73506   0.74753   0.00000  Uiso   1.00
C751   C     0.63161   0.83229   0.64482   0.00000  Uiso   1.00
C752   C     0.60770   0.78088   0.99775   0.00000  Uiso   1.00
C753   C     0.61417   0.83237   0.58386   0.00000  Uiso   1.00
C754   C     0.36881   0.89255   0.93816   0.00000  Uiso   1.00
C755   C     0.40673   0.92454   0.97818   0.00000  Uiso   1.00
C756   C     0.46313   0.91098   0.99657   0.00000  Uiso   1.00
H757   H     0.34336   0.77846   0.56823   0.00000  Uiso   1.00
H758   H     0.60629   0.99743   0.76303   0.00000  Uiso   1.00
H759   H     0.49009   0.79177   0.70818   0.00000  Uiso   1.00
H760   H     0.50992   0.87492   0.79180   0.00000  Uiso   1.00
H761   H     0.52648   0.73150   0.92133   0.00000  Uiso   1.00
H762   H     0.62338   0.74941   0.97511   0.00000  Uiso   1.00
H763   H     0.66133   0.90709   0.91883   0.00000  Uiso   1.00
H764   H     0.49357   0.94145   0.51883   0.00000  Uiso   1.00
H765   H     0.39422   0.96217   0.99097   0.00000  Uiso   1.00
N766   N     0.47827   0.81890   0.73542   0.00000  Uiso   1.00
N767   N     0.52173   0.84777   0.76457   0.00000  Uiso   1.00
O768   O     0.63102   0.91296   0.75357   0.00000  Uiso   1.00
O769   O     0.39075   0.90371   0.74424   0.00000  Uiso   1.00
O770   O     0.64823   0.84024   0.83380   0.00000  Uiso   1.00
O771   O     0.40796   0.83099   0.82446   0.00000  Uiso   1.00
O772   O     0.60925   0.76296   0.75576   0.00000  Uiso   1.00
O773   O     0.36898   0.75371   0.74643   0.00000  Uiso   1.00
O774   O     0.59204   0.83567   0.67554   0.00000  Uiso   1.00
O775   O     0.35177   0.82642   0.66620   0.00000  Uiso   1.00
Zn776  Zn    0.60453   0.83951   0.75623   0.00000  Uiso   1.00
Zn777  Zn    0.39547   0.82716   0.74377   0.00000  Uiso   1.00
C778   C     0.54806   0.89946   0.59596   0.00000  Uiso   1.00
N779   N     0.53383   0.93080   0.62510   0.00000  Uiso   1.00
I780   I     0.39607   0.71671   0.88707   0.00000  Uiso   1.00
C781   C     0.39763   0.66861   0.70333   0.00000  Uiso   1.00
N782   N     0.43423   0.68237   0.67971   0.00000  Uiso   1.00
C783   C     0.68057   0.93126   0.74526   0.00000  Uiso   1.00
C784   C     0.81305   0.86100   0.98258   0.00000  Uiso   1.00
C785   C     0.77400   0.82857   0.94160   0.00000  Uiso   1.00
C786   C     0.86744   0.84234   0.50634   0.00000  Uiso   1.00
C787   C     0.88628   0.79856   0.97866   0.00000  Uiso   1.00
C788   C     0.84743   0.76795   0.93772   0.00000  Uiso   1.00
C789   C     0.79008   0.77954   0.92419   0.00000  Uiso   1.00
C790   C     0.89994   0.85980   0.56018   0.00000  Uiso   1.00
C791   C     0.97163   0.79766   0.55067   0.00000  Uiso   1.00
C792   C     0.72176   0.84783   0.91546   0.00000  Uiso   1.00
C793   C     0.68489   0.98434   0.73298   0.00000  Uiso   1.00
C794   C     0.70214   0.83652   0.85532   0.00000  Uiso   1.00
C795   C     0.97662   0.68022   0.74611   0.00000  Uiso   1.00
C796   C     0.98417   0.73506   0.74753   0.00000  Uiso   1.00
C797   C     0.96495   0.83229   0.64482   0.00000  Uiso   1.00
C798   C     0.94103   0.78088   0.99775   0.00000  Uiso   1.00
C799   C     0.94751   0.83237   0.58386   0.00000  Uiso   1.00
C800   C     0.70215   0.89255   0.93816   0.00000  Uiso   1.00
C801   C     0.74007   0.92454   0.97818   0.00000  Uiso   1.00
C802   C     0.79646   0.91098   0.99657   0.00000  Uiso   1.00
H803   H     0.67669   0.77846   0.56823   0.00000  Uiso   1.00
H804   H     0.93962   0.99743   0.76303   0.00000  Uiso   1.00
H805   H     0.82342   0.79177   0.70818   0.00000  Uiso   1.00
H806   H     0.84325   0.87492   0.79180   0.00000  Uiso   1.00
H807   H     0.85982   0.73150   0.92133   0.00000  Uiso   1.00
H808   H     0.95672   0.74941   0.97511   0.00000  Uiso   1.00
H809   H     0.99467   0.90709   0.91883   0.00000  Uiso   1.00
H810   H     0.82691   0.94145   0.51883   0.00000  Uiso   1.00
H811   H     0.72756   0.96217   0.99097   0.00000  Uiso   1.00
N812   N     0.81160   0.81890   0.73542   0.00000  Uiso   1.00
N813   N     0.85507   0.84777   0.76457   0.00000  Uiso   1.00
O814   O     0.96435   0.91296   0.75357   0.00000  Uiso   1.00
O815   O     0.72408   0.90371   0.74424   0.00000  Uiso   1.00
O816   O     0.98157   0.84024   0.83380   0.00000  Uiso   1.00
O817   O     0.74130   0.83099   0.82446   0.00000  Uiso   1.00
O818   O     0.94258   0.76296   0.75576   0.00000  Uiso   1.00
O819   O     0.70231   0.75371   0.74643   0.00000  Uiso   1.00
O820   O     0.92537   0.83567   0.67554   0.00000  Uiso   1.00
O821   O     0.68510   0.82642   0.66620   0.00000  Uiso   1.00
Zn822  Zn    0.93786   0.83951   0.75623   0.00000  Uiso   1.00
Zn823  Zn    0.72881   0.82716   0.74377   0.00000  Uiso   1.00
C824   C     0.88140   0.89946   0.59596   0.00000  Uiso   1.00
N825   N     0.86716   0.93080   0.62510   0.00000  Uiso   1.00
I826   I     0.72941   0.71671   0.88707   0.00000  Uiso   1.00
C827   C     0.73096   0.66861   0.70333   0.00000  Uiso   1.00
N828   N     0.76756   0.68237   0.67971   0.00000  Uiso   1.00
loop_
_geom_bond_atom_site_label_1
_geom_bond_atom_site_label_2
_geom_bond_distance
_geom_bond_site_symmetry_2
_ccdc_geom_bond_type
C1     C11     1.408   .     S
C1     O33     1.288   .     A
C1     O124    1.275   1_455 S
C2     C3      1.416   .     A
C2     C20     1.418   .     A
C2     C418    1.424   .     S
C3     C10     1.404   .     A
C3     C7      1.414   .     A
C4     C8      1.419   .     A
C4     C416    1.424   1_554 S
C4     C419    1.428   1_554 S
C5     C16     1.397   .     A
C5     C6      1.390   .     A
C5     C418    1.428   .     S
C6     C7      1.382   .     A
C6     H25     1.085   .     S
C7     I44     2.127   .     S
C8     C42     1.455   .     S
C8     C17     1.407   .     A
C9     C17     1.397   .     A
C9     C430    1.381   1_554 S
C9     H67     1.084   .     S
C10    C12     1.451   .     S
C10    C18     1.400   .     A
C11    C243    1.351   1_455 S
C11    C183    1.458   .     S
C12    O35     1.298   .     A
C12    O126    1.287   1_455 S
C13    C14     1.407   .     S
C13    C333    1.351   1_545 S
C13    H298    1.088   1_545 S
C14    O36     1.293   .     A
C14    O83     1.272   .     S
C15    O38     1.297   .     A
C15    C17     1.453   .     S
C15    O85     1.287   .     S
C16    H26     1.084   .     S
C16    C423    1.381   .     S
C18    C19     1.385   .     A
C18    H119    1.084   1_455 S
C19    C20     1.390   .     A
C19    H29     1.083   .     S
C20    H442    1.076   .     S
H21    C101    1.084   1_455 S
H22    C151    1.088   .     S
H23    N30     1.029   .     S
H24    N31     1.029   .     S
H27    C64     1.084   .     S
H28    C434    1.076   1_554 S
N30    N31     1.293   .     D
N30    Zn41    2.016   .     S
N31    Zn40    2.016   .     S
O32    Zn40    1.952   .     S
O32    C47     1.275   .     S
O33    Zn41    1.980   .     S
O34    Zn40    1.960   .     S
O34    C58     1.287   .     S
O35    Zn41    1.914   .     S
O36    Zn40    1.980   .     S
O37    Zn41    1.952   .     S
O37    C106    1.272   1_455 S
O38    Zn40    1.914   .     S
O39    Zn41    1.960   .     S
O39    C107    1.287   1_455 S
C42    N43     1.158   .     T
C45    N46     1.158   .     T
C45    C287    1.458   1_545 S
C47    C57     1.408   .     S
C47    O79     1.288   .     A
C48    C49     1.416   .     A
C48    C66     1.418   .     A
C48    C464    1.424   .     S
C49    C56     1.404   .     A
C49    C53     1.414   .     A
C50    C54     1.419   .     A
C50    C462    1.424   1_554 S
C50    C465    1.428   1_554 S
C51    C62     1.397   .     A
C51    C52     1.390   .     A
C51    C464    1.428   .     S
C52    C53     1.382   .     A
C52    H71     1.085   .     S
C53    I90     2.127   .     S
C54    C88     1.455   .     S
C54    C63     1.407   .     A
C55    C63     1.397   .     A
C55    C476    1.381   1_554 S
C55    H113    1.084   .     S
C56    C58     1.451   .     S
C56    C64     1.400   .     A
C57    C151    1.351   .     S
C57    C229    1.458   .     S
C58    O81     1.298   .     A
C59    C60     1.407   .     S
C59    C379    1.351   1_545 S
C59    H344    1.088   1_545 S
C60    O82     1.293   .     A
C60    O129    1.272   .     S
C61    O84     1.297   .     A
C61    C63     1.453   .     S
C61    O131    1.287   .     S
C62    H72     1.084   .     S
C62    C469    1.381   .     S
C64    C65     1.385   .     A
C65    C66     1.390   .     A
C65    H75     1.083   .     S
C66    H488    1.076   .     S
H68    C197    1.088   .     S
H69    N76     1.029   .     S
H70    N77     1.029   .     S
H73    C110    1.084   .     S
H74    C480    1.076   1_554 S
N76    N77     1.293   .     D
N76    Zn87    2.016   .     S
N77    Zn86    2.016   .     S
O78    Zn86    1.952   .     S
O78    C93     1.275   .     S
O79    Zn87    1.980   .     S
O80    Zn86    1.960   .     S
O80    C104    1.287   .     S
O81    Zn87    1.914   .     S
O82    Zn86    1.980   .     S
O83    Zn87    1.952   .     S
O84    Zn86    1.914   .     S
O85    Zn87    1.960   .     S
C88    N89     1.158   .     T
C91    N92     1.158   .     T
C91    C333    1.458   1_545 S
C93    C103    1.408   .     S
C93    O125    1.288   .     A
C94    C95     1.416   .     A
C94    C112    1.418   .     A
C94    C510    1.424   .     S
C95    C102    1.404   .     A
C95    C99     1.414   .     A
C96    C100    1.419   .     A
C96    C508    1.424   1_554 S
C96    C511    1.428   1_554 S
C97    C108    1.397   .     A
C97    C98     1.390   .     A
C97    C510    1.428   .     S
C98    C99     1.382   .     A
C98    H117    1.085   .     S
C99    I136    2.127   .     S
C100   C134    1.455   .     S
C100   C109    1.407   .     A
C101   C109    1.397   .     A
C101   C522    1.381   1_554 S
C101   H21     1.084   1_655 S
C102   C104    1.451   .     S
C102   C110    1.400   .     A
C103   C197    1.351   .     S
C103   C275    1.458   .     S
C104   O127    1.298   .     A
C105   C106    1.407   .     S
C105   C287    1.351   1_645 S
C105   H390    1.088   1_545 S
C106   O128    1.293   .     A
C106   O37     1.272   1_655 S
C107   O130    1.297   .     A
C107   C109    1.453   .     S
C107   O39     1.287   1_655 S
C108   H118    1.084   .     S
C108   C515    1.381   .     S
C110   C111    1.385   .     A
C111   C112    1.390   .     A
C111   H121    1.083   .     S
C112   H534    1.076   .     S
H114   C243    1.088   .     S
H115   N122    1.029   .     S
H116   N123    1.029   .     S
H119   C18     1.084   1_655 S
H120   C526    1.076   1_554 S
N122   N123    1.293   .     D
N122   Zn133   2.016   .     S
N123   Zn132   2.016   .     S
O124   Zn132   1.952   .     S
O124   C1      1.275   1_655 S
O125   Zn133   1.980   .     S
O126   Zn132   1.960   .     S
O126   C12     1.287   1_655 S
O127   Zn133   1.914   .     S
O128   Zn132   1.980   .     S
O129   Zn133   1.952   .     S
O130   Zn132   1.914   .     S
O131   Zn133   1.960   .     S
C134   N135    1.158   .     T
C137   N138    1.158   .     T
C137   C379    1.458   1_545 S
C139   C149    1.408   .     S
C139   O171    1.288   .     A
C139   O262    1.275   1_455 S
C140   C141    1.416   .     A
C140   C158    1.418   .     A
C140   C556    1.424   .     S
C141   C148    1.404   .     A
C141   C145    1.414   .     A
C142   C146    1.419   .     A
C142   C554    1.424   1_554 S
C142   C557    1.428   1_554 S
C143   C154    1.397   .     A
C143   C144    1.390   .     A
C143   C556    1.428   .     S
C144   C145    1.382   .     A
C144   H163    1.085   .     S
C145   I182    2.127   .     S
C146   C180    1.455   .     S
C146   C155    1.407   .     A
C147   C155    1.397   .     A
C147   C568    1.381   1_554 S
C147   H205    1.084   .     S
C148   C150    1.451   .     S
C148   C156    1.400   .     A
C149   C381    1.351   1_455 S
C149   C321    1.458   .     S
C150   O173    1.298   .     A
C150   O264    1.287   1_455 S
C151   C152    1.407   .     S
C152   O174    1.293   .     A
C152   O221    1.272   .     S
C153   O176    1.297   .     A
C153   C155    1.453   .     S
C153   O223    1.287   .     S
C154   H164    1.084   .     S
C154   C561    1.381   .     S
C156   C157    1.385   .     A
C156   H257    1.084   1_455 S
C157   C158    1.390   .     A
C157   H167    1.083   .     S
C158   H580    1.076   .     S
H159   C239    1.084   1_455 S
H160   C289    1.088   .     S
H161   N168    1.029   .     S
H162   N169    1.029   .     S
H165   C202    1.084   .     S
H166   C572    1.076   1_554 S
N168   N169    1.293   .     D
N168   Zn179   2.016   .     S
N169   Zn178   2.016   .     S
O170   Zn178   1.952   .     S
O170   C185    1.275   .     S
O171   Zn179   1.980   .     S
O172   Zn178   1.960   .     S
O172   C196    1.287   .     S
O173   Zn179   1.914   .     S
O174   Zn178   1.980   .     S
O175   Zn179   1.952   .     S
O175   C244    1.272   1_455 S
O176   Zn178   1.914   .     S
O177   Zn179   1.960   .     S
O177   C245    1.287   1_455 S
C180   N181    1.158   .     T
C183   N184    1.158   .     T
C185   C195    1.408   .     S
C185   O217    1.288   .     A
C186   C187    1.416   .     A
C186   C204    1.418   .     A
C186   C602    1.424   .     S
C187   C194    1.404   .     A
C187   C191    1.414   .     A
C188   C192    1.419   .     A
C188   C600    1.424   1_554 S
C188   C603    1.428   1_554 S
C189   C200    1.397   .     A
C189   C190    1.390   .     A
C189   C602    1.428   .     S
C190   C191    1.382   .     A
C190   H209    1.085   .     S
C191   I228    2.127   .     S
C192   C226    1.455   .     S
C192   C201    1.407   .     A
C193   C201    1.397   .     A
C193   C614    1.381   1_554 S
C193   H251    1.084   .     S
C194   C196    1.451   .     S
C194   C202    1.400   .     A
C195   C289    1.351   .     S
C195   C367    1.458   .     S
C196   O219    1.298   .     A
C197   C198    1.407   .     S
C198   O220    1.293   .     A
C198   O267    1.272   .     S
C199   O222    1.297   .     A
C199   C201    1.453   .     S
C199   O269    1.287   .     S
C200   H210    1.084   .     S
C200   C607    1.381   .     S
C202   C203    1.385   .     A
C203   C204    1.390   .     A
C203   H213    1.083   .     S
C204   H626    1.076   .     S
H206   C335    1.088   .     S
H207   N214    1.029   .     S
H208   N215    1.029   .     S
H211   C248    1.084   .     S
H212   C618    1.076   1_554 S
N214   N215    1.293   .     D
N214   Zn225   2.016   .     S
N215   Zn224   2.016   .     S
O216   Zn224   1.952   .     S
O216   C231    1.275   .     S
O217   Zn225   1.980   .     S
O218   Zn224   1.960   .     S
O218   C242    1.287   .     S
O219   Zn225   1.914   .     S
O220   Zn224   1.980   .     S
O221   Zn225   1.952   .     S
O222   Zn224   1.914   .     S
O223   Zn225   1.960   .     S
C226   N227    1.158   .     T
C229   N230    1.158   .     T
C231   C241    1.408   .     S
C231   O263    1.288   .     A
C232   C233    1.416   .     A
C232   C250    1.418   .     A
C232   C648    1.424   .     S
C233   C240    1.404   .     A
C233   C237    1.414   .     A
C234   C238    1.419   .     A
C234   C646    1.424   1_554 S
C234   C649    1.428   1_554 S
C235   C246    1.397   .     A
C235   C236    1.390   .     A
C235   C648    1.428   .     S
C236   C237    1.382   .     A
C236   H255    1.085   .     S
C237   I274    2.127   .     S
C238   C272    1.455   .     S
C238   C247    1.407   .     A
C239   C247    1.397   .     A
C239   C660    1.381   1_554 S
C239   H159    1.084   1_655 S
C240   C242    1.451   .     S
C240   C248    1.400   .     A
C241   C335    1.351   .     S
C241   C413    1.458   .     S
C242   O265    1.298   .     A
C243   C244    1.407   .     S
C243   C11     1.351   1_655 S
C244   O266    1.293   .     A
C244   O175    1.272   1_655 S
C245   O268    1.297   .     A
C245   C247    1.453   .     S
C245   O177    1.287   1_655 S
C246   H256    1.084   .     S
C246   C653    1.381   .     S
C248   C249    1.385   .     A
C249   C250    1.390   .     A
C249   H259    1.083   .     S
C250   H672    1.076   .     S
H252   C381    1.088   .     S
H253   N260    1.029   .     S
H254   N261    1.029   .     S
H257   C156    1.084   1_655 S
H258   C664    1.076   1_554 S
N260   N261    1.293   .     D
N260   Zn271   2.016   .     S
N261   Zn270   2.016   .     S
O262   Zn270   1.952   .     S
O262   C139    1.275   1_655 S
O263   Zn271   1.980   .     S
O264   Zn270   1.960   .     S
O264   C150    1.287   1_655 S
O265   Zn271   1.914   .     S
O266   Zn270   1.980   .     S
O267   Zn271   1.952   .     S
O268   Zn270   1.914   .     S
O269   Zn271   1.960   .     S
C272   N273    1.158   .     T
C275   N276    1.158   .     T
C277   C287    1.408   .     S
C277   O309    1.288   .     A
C277   O400    1.275   1_455 S
C278   C279    1.416   .     A
C278   C296    1.418   .     A
C278   C694    1.424   .     S
C279   C286    1.404   .     A
C279   C283    1.414   .     A
C280   C284    1.419   .     A
C280   C692    1.424   1_554 S
C280   C695    1.428   1_554 S
C281   C292    1.397   .     A
C281   C282    1.390   .     A
C281   C694    1.428   .     S
C282   C283    1.382   .     A
C282   H301    1.085   .     S
C283   I320    2.127   .     S
C284   C318    1.455   .     S
C284   C293    1.407   .     A
C285   C293    1.397   .     A
C285   C706    1.381   1_554 S
C285   H343    1.084   .     S
C286   C288    1.451   .     S
C286   C294    1.400   .     A
C287   C105    1.351   1_465 S
C287   C45     1.458   1_565 S
C288   O311    1.298   .     A
C288   O402    1.287   1_455 S
C289   C290    1.407   .     S
C290   O312    1.293   .     A
C290   O359    1.272   .     S
C291   O314    1.297   .     A
C291   C293    1.453   .     S
C291   O361    1.287   .     S
C292   H302    1.084   .     S
C292   C699    1.381   .     S
C294   C295    1.385   .     A
C294   H395    1.084   1_455 S
C295   C296    1.390   .     A
C295   H305    1.083   .     S
C296   H718    1.076   .     S
H297   C377    1.084   1_455 S
H298   C13     1.088   1_565 S
H299   N306    1.029   .     S
H300   N307    1.029   .     S
H303   C340    1.084   .     S
H304   C710    1.076   1_554 S
N306   N307    1.293   .     D
N306   Zn317   2.016   .     S
N307   Zn316   2.016   .     S
O308   Zn316   1.952   .     S
O308   C323    1.275   .     S
O309   Zn317   1.980   .     S
O310   Zn316   1.960   .     S
O310   C334    1.287   .     S
O311   Zn317   1.914   .     S
O312   Zn316   1.980   .     S
O313   Zn317   1.952   .     S
O313   C382    1.272   1_455 S
O314   Zn316   1.914   .     S
O315   Zn317   1.960   .     S
O315   C383    1.287   1_455 S
C318   N319    1.158   .     T
C321   N322    1.158   .     T
C323   C333    1.408   .     S
C323   O355    1.288   .     A
C324   C325    1.416   .     A
C324   C342    1.418   .     A
C324   C740    1.424   .     S
C325   C332    1.404   .     A
C325   C329    1.414   .     A
C326   C330    1.419   .     A
C326   C738    1.424   1_554 S
C326   C741    1.428   1_554 S
C327   C338    1.397   .     A
C327   C328    1.390   .     A
C327   C740    1.428   .     S
C328   C329    1.382   .     A
C328   H347    1.085   .     S
C329   I366    2.127   .     S
C330   C364    1.455   .     S
C330   C339    1.407   .     A
C331   C339    1.397   .     A
C331   C752    1.381   1_554 S
C331   H389    1.084   .     S
C332   C334    1.451   .     S
C332   C340    1.400   .     A
C333   C13     1.351   1_565 S
C333   C91     1.458   1_565 S
C334   O357    1.298   .     A
C335   C336    1.407   .     S
C336   O358    1.293   .     A
C336   O405    1.272   .     S
C337   O360    1.297   .     A
C337   C339    1.453   .     S
C337   O407    1.287   .     S
C338   H348    1.084   .     S
C338   C745    1.381   .     S
C340   C341    1.385   .     A
C341   C342    1.390   .     A
C341   H351    1.083   .     S
C342   H764    1.076   .     S
H344   C59     1.088   1_565 S
H345   N352    1.029   .     S
H346   N353    1.029   .     S
H349   C386    1.084   .     S
H350   C756    1.076   1_554 S
N352   N353    1.293   .     D
N352   Zn363   2.016   .     S
N353   Zn362   2.016   .     S
O354   Zn362   1.952   .     S
O354   C369    1.275   .     S
O355   Zn363   1.980   .     S
O356   Zn362   1.960   .     S
O356   C380    1.287   .     S
O357   Zn363   1.914   .     S
O358   Zn362   1.980   .     S
O359   Zn363   1.952   .     S
O360   Zn362   1.914   .     S
O361   Zn363   1.960   .     S
C364   N365    1.158   .     T
C367   N368    1.158   .     T
C369   C379    1.408   .     S
C369   O401    1.288   .     A
C370   C371    1.416   .     A
C370   C388    1.418   .     A
C370   C786    1.424   .     S
C371   C378    1.404   .     A
C371   C375    1.414   .     A
C372   C376    1.419   .     A
C372   C784    1.424   1_554 S
C372   C787    1.428   1_554 S
C373   C384    1.397   .     A
C373   C374    1.390   .     A
C373   C786    1.428   .     S
C374   C375    1.382   .     A
C374   H393    1.085   .     S
C375   I412    2.127   .     S
C376   C410    1.455   .     S
C376   C385    1.407   .     A
C377   C385    1.397   .     A
C377   C798    1.381   1_554 S
C377   H297    1.084   1_655 S
C378   C380    1.451   .     S
C378   C386    1.400   .     A
C379   C59     1.351   1_565 S
C379   C137    1.458   1_565 S
C380   O403    1.298   .     A
C381   C382    1.407   .     S
C381   C149    1.351   1_655 S
C382   O404    1.293   .     A
C382   O313    1.272   1_655 S
C383   O406    1.297   .     A
C383   C385    1.453   .     S
C383   O315    1.287   1_655 S
C384   H394    1.084   .     S
C384   C791    1.381   .     S
C386   C387    1.385   .     A
C387   C388    1.390   .     A
C387   H397    1.083   .     S
C388   H810    1.076   .     S
H390   C105    1.088   1_565 S
H391   N398    1.029   .     S
H392   N399    1.029   .     S
H395   C294    1.084   1_655 S
H396   C802    1.076   1_554 S
N398   N399    1.293   .     D
N398   Zn409   2.016   .     S
N399   Zn408   2.016   .     S
O400   Zn408   1.952   .     S
O400   C277    1.275   1_655 S
O401   Zn409   1.980   .     S
O402   Zn408   1.960   .     S
O402   C288    1.287   1_655 S
O403   Zn409   1.914   .     S
O404   Zn408   1.980   .     S
O405   Zn409   1.952   .     S
O406   Zn408   1.914   .     S
O407   Zn409   1.960   .     S
C410   N411    1.158   .     T
C413   N414    1.158   .     T
C415   C425    1.408   .     S
C415   O447    1.288   .     A
C415   O538    1.275   1_455 S
C416   C417    1.416   .     A
C416   C434    1.418   .     A
C416   C4      1.424   1_556 S
C417   C424    1.404   .     A
C417   C421    1.414   .     A
C418   C422    1.419   .     A
C419   C430    1.397   .     A
C419   C420    1.390   .     A
C419   C4      1.428   1_556 S
C420   C421    1.382   .     A
C420   H439    1.085   .     S
C421   I458    2.127   .     S
C422   C456    1.455   .     S
C422   C431    1.407   .     A
C423   C431    1.397   .     A
C423   H481    1.084   .     S
C424   C426    1.451   .     S
C424   C432    1.400   .     A
C425   C657    1.351   1_455 S
C425   C597    1.458   .     S
C426   O449    1.298   .     A
C426   O540    1.287   1_455 S
C427   C428    1.407   .     S
C427   C747    1.351   1_545 S
C427   H712    1.088   1_545 S
C428   O450    1.293   .     A
C428   O497    1.272   .     S
C429   O452    1.297   .     A
C429   C431    1.453   .     S
C429   O499    1.287   .     S
C430   H440    1.084   .     S
C430   C9      1.381   1_556 S
C432   C433    1.385   .     A
C432   H533    1.084   1_455 S
C433   C434    1.390   .     A
C433   H443    1.083   .     S
C434   H28     1.076   1_556 S
H435   C515    1.084   1_455 S
H436   C565    1.088   .     S
H437   N444    1.029   .     S
H438   N445    1.029   .     S
H441   C478    1.084   .     S
N444   N445    1.293   .     D
N444   Zn455   2.016   .     S
N445   Zn454   2.016   .     S
O446   Zn454   1.952   .     S
O446   C461    1.275   .     S
O447   Zn455   1.980   .     S
O448   Zn454   1.960   .     S
O448   C472    1.287   .     S
O449   Zn455   1.914   .     S
O450   Zn454   1.980   .     S
O451   Zn455   1.952   .     S
O451   C520    1.272   1_455 S
O452   Zn454   1.914   .     S
O453   Zn455   1.960   .     S
O453   C521    1.287   1_455 S
C456   N457    1.158   .     T
C459   N460    1.158   .     T
C459   C701    1.458   1_545 S
C461   C471    1.408   .     S
C461   O493    1.288   .     A
C462   C463    1.416   .     A
C462   C480    1.418   .     A
C462   C50     1.424   1_556 S
C463   C470    1.404   .     A
C463   C467    1.414   .     A
C464   C468    1.419   .     A
C465   C476    1.397   .     A
C465   C466    1.390   .     A
C465   C50     1.428   1_556 S
C466   C467    1.382   .     A
C466   H485    1.085   .     S
C467   I504    2.127   .     S
C468   C502    1.455   .     S
C468   C477    1.407   .     A
C469   C477    1.397   .     A
C469   H527    1.084   .     S
C470   C472    1.451   .     S
C470   C478    1.400   .     A
C471   C565    1.351   .     S
C471   C643    1.458   .     S
C472   O495    1.298   .     A
C473   C474    1.407   .     S
C473   C793    1.351   1_545 S
C473   H758    1.088   1_545 S
C474   O496    1.293   .     A
C474   O543    1.272   .     S
C475   O498    1.297   .     A
C475   C477    1.453   .     S
C475   O545    1.287   .     S
C476   H486    1.084   .     S
C476   C55     1.381   1_556 S
C478   C479    1.385   .     A
C479   C480    1.390   .     A
C479   H489    1.083   .     S
C480   H74     1.076   1_556 S
H482   C611    1.088   .     S
H483   N490    1.029   .     S
H484   N491    1.029   .     S
H487   C524    1.084   .     S
N490   N491    1.293   .     D
N490   Zn501   2.016   .     S
N491   Zn500   2.016   .     S
O492   Zn500   1.952   .     S
O492   C507    1.275   .     S
O493   Zn501   1.980   .     S
O494   Zn500   1.960   .     S
O494   C518    1.287   .     S
O495   Zn501   1.914   .     S
O496   Zn500   1.980   .     S
O497   Zn501   1.952   .     S
O498   Zn500   1.914   .     S
O499   Zn501   1.960   .     S
C502   N503    1.158   .     T
C505   N506    1.158   .     T
C505   C747    1.458   1_545 S
C507   C517    1.408   .     S
C507   O539    1.288   .     A
C508   C509    1.416   .     A
C508   C526    1.418   .     A
C508   C96     1.424   1_556 S
C509   C516    1.404   .     A
C509   C513    1.414   .     A
C510   C514    1.419   .     A
C511   C522    1.397   .     A
C511   C512    1.390   .     A
C511   C96     1.428   1_556 S
C512   C513    1.382   .     A
C512   H531    1.085   .     S
C513   I550    2.127   .     S
C514   C548    1.455   .     S
C514   C523    1.407   .     A
C515   C523    1.397   .     A
C515   H435    1.084   1_655 S
C516   C518    1.451   .     S
C516   C524    1.400   .     A
C517   C611    1.351   .     S
C517   C689    1.458   .     S
C518   O541    1.298   .     A
C519   C520    1.407   .     S
C519   C701    1.351   1_645 S
C519   H804    1.088   1_545 S
C520   O542    1.293   .     A
C520   O451    1.272   1_655 S
C521   O544    1.297   .     A
C521   C523    1.453   .     S
C521   O453    1.287   1_655 S
C522   H532    1.084   .     S
C522   C101    1.381   1_556 S
C524   C525    1.385   .     A
C525   C526    1.390   .     A
C525   H535    1.083   .     S
C526   H120    1.076   1_556 S
H528   C657    1.088   .     S
H529   N536    1.029   .     S
H530   N537    1.029   .     S
H533   C432    1.084   1_655 S
N536   N537    1.293   .     D
N536   Zn547   2.016   .     S
N537   Zn546   2.016   .     S
O538   Zn546   1.952   .     S
O538   C415    1.275   1_655 S
O539   Zn547   1.980   .     S
O540   Zn546   1.960   .     S
O540   C426    1.287   1_655 S
O541   Zn547   1.914   .     S
O542   Zn546   1.980   .     S
O543   Zn547   1.952   .     S
O544   Zn546   1.914   .     S
O545   Zn547   1.960   .     S
C548   N549    1.158   .     T
C551   N552    1.158   .     T
C551   C793    1.458   1_545 S
C553   C563    1.408   .     S
C553   O585    1.288   .     A
C553   O676    1.275   1_455 S
C554   C555    1.416   .     A
C554   C572    1.418   .     A
C554   C142    1.424   1_556 S
C555   C562    1.404   .     A
C555   C559    1.414   .     A
C556   C560    1.419   .     A
C557   C568    1.397   .     A
C557   C558    1.390   .     A
C557   C142    1.428   1_556 S
C558   C559    1.382   .     A
C558   H577    1.085   .     S
C559   I596    2.127   .     S
C560   C594    1.455   .     S
C560   C569    1.407   .     A
C561   C569    1.397   .     A
C561   H619    1.084   .     S
C562   C564    1.451   .     S
C562   C570    1.400   .     A
C563   C795    1.351   1_455 S
C563   C735    1.458   .     S
C564   O587    1.298   .     A
C564   O678    1.287   1_455 S
C565   C566    1.407   .     S
C566   O588    1.293   .     A
C566   O635    1.272   .     S
C567   O590    1.297   .     A
C567   C569    1.453   .     S
C567   O637    1.287   .     S
C568   H578    1.084   .     S
C568   C147    1.381   1_556 S
C570   C571    1.385   .     A
C570   H671    1.084   1_455 S
C571   C572    1.390   .     A
C571   H581    1.083   .     S
C572   H166    1.076   1_556 S
H573   C653    1.084   1_455 S
H574   C703    1.088   .     S
H575   N582    1.029   .     S
H576   N583    1.029   .     S
H579   C616    1.084   .     S
N582   N583    1.293   .     D
N582   Zn593   2.016   .     S
N583   Zn592   2.016   .     S
O584   Zn592   1.952   .     S
O584   C599    1.275   .     S
O585   Zn593   1.980   .     S
O586   Zn592   1.960   .     S
O586   C610    1.287   .     S
O587   Zn593   1.914   .     S
O588   Zn592   1.980   .     S
O589   Zn593   1.952   .     S
O589   C658    1.272   1_455 S
O590   Zn592   1.914   .     S
O591   Zn593   1.960   .     S
O591   C659    1.287   1_455 S
C594   N595    1.158   .     T
C597   N598    1.158   .     T
C599   C609    1.408   .     S
C599   O631    1.288   .     A
C600   C601    1.416   .     A
C600   C618    1.418   .     A
C600   C188    1.424   1_556 S
C601   C608    1.404   .     A
C601   C605    1.414   .     A
C602   C606    1.419   .     A
C603   C614    1.397   .     A
C603   C604    1.390   .     A
C603   C188    1.428   1_556 S
C604   C605    1.382   .     A
C604   H623    1.085   .     S
C605   I642    2.127   .     S
C606   C640    1.455   .     S
C606   C615    1.407   .     A
C607   C615    1.397   .     A
C607   H665    1.084   .     S
C608   C610    1.451   .     S
C608   C616    1.400   .     A
C609   C703    1.351   .     S
C609   C781    1.458   .     S
C610   O633    1.298   .     A
C611   C612    1.407   .     S
C612   O634    1.293   .     A
C612   O681    1.272   .     S
C613   O636    1.297   .     A
C613   C615    1.453   .     S
C613   O683    1.287   .     S
C614   H624    1.084   .     S
C614   C193    1.381   1_556 S
C616   C617    1.385   .     A
C617   C618    1.390   .     A
C617   H627    1.083   .     S
C618   H212    1.076   1_556 S
H620   C749    1.088   .     S
H621   N628    1.029   .     S
H622   N629    1.029   .     S
H625   C662    1.084   .     S
N628   N629    1.293   .     D
N628   Zn639   2.016   .     S
N629   Zn638   2.016   .     S
O630   Zn638   1.952   .     S
O630   C645    1.275   .     S
O631   Zn639   1.980   .     S
O632   Zn638   1.960   .     S
O632   C656    1.287   .     S
O633   Zn639   1.914   .     S
O634   Zn638   1.980   .     S
O635   Zn639   1.952   .     S
O636   Zn638   1.914   .     S
O637   Zn639   1.960   .     S
C640   N641    1.158   .     T
C643   N644    1.158   .     T
C645   C655    1.408   .     S
C645   O677    1.288   .     A
C646   C647    1.416   .     A
C646   C664    1.418   .     A
C646   C234    1.424   1_556 S
C647   C654    1.404   .     A
C647   C651    1.414   .     A
C648   C652    1.419   .     A
C649   C660    1.397   .     A
C649   C650    1.390   .     A
C649   C234    1.428   1_556 S
C650   C651    1.382   .     A
C650   H669    1.085   .     S
C651   I688    2.127   .     S
C652   C686    1.455   .     S
C652   C661    1.407   .     A
C653   C661    1.397   .     A
C653   H573    1.084   1_655 S
C654   C656    1.451   .     S
C654   C662    1.400   .     A
C655   C749    1.351   .     S
C655   C827    1.458   .     S
C656   O679    1.298   .     A
C657   C658    1.407   .     S
C657   C425    1.351   1_655 S
C658   O680    1.293   .     A
C658   O589    1.272   1_655 S
C659   O682    1.297   .     A
C659   C661    1.453   .     S
C659   O591    1.287   1_655 S
C660   H670    1.084   .     S
C660   C239    1.381   1_556 S
C662   C663    1.385   .     A
C663   C664    1.390   .     A
C663   H673    1.083   .     S
C664   H258    1.076   1_556 S
H666   C795    1.088   .     S
H667   N674    1.029   .     S
H668   N675    1.029   .     S
H671   C570    1.084   1_655 S
N674   N675    1.293   .     D
N674   Zn685   2.016   .     S
N675   Zn684   2.016   .     S
O676   Zn684   1.952   .     S
O676   C553    1.275   1_655 S
O677   Zn685   1.980   .     S
O678   Zn684   1.960   .     S
O678   C564    1.287   1_655 S
O679   Zn685   1.914   .     S
O680   Zn684   1.980   .     S
O681   Zn685   1.952   .     S
O682   Zn684   1.914   .     S
O683   Zn685   1.960   .     S
C686   N687    1.158   .     T
C689   N690    1.158   .     T
C691   C701    1.408   .     S
C691   O723    1.288   .     A
C691   O814    1.275   1_455 S
C692   C693    1.416   .     A
C692   C710    1.418   .     A
C692   C280    1.424   1_556 S
C693   C700    1.404   .     A
C693   C697    1.414   .     A
C694   C698    1.419   .     A
C695   C706    1.397   .     A
C695   C696    1.390   .     A
C695   C280    1.428   1_556 S
C696   C697    1.382   .     A
C696   H715    1.085   .     S
C697   I734    2.127   .     S
C698   C732    1.455   .     S
C698   C707    1.407   .     A
C699   C707    1.397   .     A
C699   H757    1.084   .     S
C700   C702    1.451   .     S
C700   C708    1.400   .     A
C701   C519    1.351   1_465 S
C701   C459    1.458   1_565 S
C702   O725    1.298   .     A
C702   O816    1.287   1_455 S
C703   C704    1.407   .     S
C704   O726    1.293   .     A
C704   O773    1.272   .     S
C705   O728    1.297   .     A
C705   C707    1.453   .     S
C705   O775    1.287   .     S
C706   H716    1.084   .     S
C706   C285    1.381   1_556 S
C708   C709    1.385   .     A
C708   H809    1.084   1_455 S
C709   C710    1.390   .     A
C709   H719    1.083   .     S
C710   H304    1.076   1_556 S
H711   C791    1.084   1_455 S
H712   C427    1.088   1_565 S
H713   N720    1.029   .     S
H714   N721    1.029   .     S
H717   C754    1.084   .     S
N720   N721    1.293   .     D
N720   Zn731   2.016   .     S
N721   Zn730   2.016   .     S
O722   Zn730   1.952   .     S
O722   C737    1.275   .     S
O723   Zn731   1.980   .     S
O724   Zn730   1.960   .     S
O724   C748    1.287   .     S
O725   Zn731   1.914   .     S
O726   Zn730   1.980   .     S
O727   Zn731   1.952   .     S
O727   C796    1.272   1_455 S
O728   Zn730   1.914   .     S
O729   Zn731   1.960   .     S
O729   C797    1.287   1_455 S
C732   N733    1.158   .     T
C735   N736    1.158   .     T
C737   C747    1.408   .     S
C737   O769    1.288   .     A
C738   C739    1.416   .     A
C738   C756    1.418   .     A
C738   C326    1.424   1_556 S
C739   C746    1.404   .     A
C739   C743    1.414   .     A
C740   C744    1.419   .     A
C741   C752    1.397   .     A
C741   C742    1.390   .     A
C741   C326    1.428   1_556 S
C742   C743    1.382   .     A
C742   H761    1.085   .     S
C743   I780    2.127   .     S
C744   C778    1.455   .     S
C744   C753    1.407   .     A
C745   C753    1.397   .     A
C745   H803    1.084   .     S
C746   C748    1.451   .     S
C746   C754    1.400   .     A
C747   C427    1.351   1_565 S
C747   C505    1.458   1_565 S
C748   O771    1.298   .     A
C749   C750    1.407   .     S
C750   O772    1.293   .     A
C750   O819    1.272   .     S
C751   O774    1.297   .     A
C751   C753    1.453   .     S
C751   O821    1.287   .     S
C752   H762    1.084   .     S
C752   C331    1.381   1_556 S
C754   C755    1.385   .     A
C755   C756    1.390   .     A
C755   H765    1.083   .     S
C756   H350    1.076   1_556 S
H758   C473    1.088   1_565 S
H759   N766    1.029   .     S
H760   N767    1.029   .     S
H763   C800    1.084   .     S
N766   N767    1.293   .     D
N766   Zn777   2.016   .     S
N767   Zn776   2.016   .     S
O768   Zn776   1.952   .     S
O768   C783    1.275   .     S
O769   Zn777   1.980   .     S
O770   Zn776   1.960   .     S
O770   C794    1.287   .     S
O771   Zn777   1.914   .     S
O772   Zn776   1.980   .     S
O773   Zn777   1.952   .     S
O774   Zn776   1.914   .     S
O775   Zn777   1.960   .     S
C778   N779    1.158   .     T
C781   N782    1.158   .     T
C783   C793    1.408   .     S
C783   O815    1.288   .     A
C784   C785    1.416   .     A
C784   C802    1.418   .     A
C784   C372    1.424   1_556 S
C785   C792    1.404   .     A
C785   C789    1.414   .     A
C786   C790    1.419   .     A
C787   C798    1.397   .     A
C787   C788    1.390   .     A
C787   C372    1.428   1_556 S
C788   C789    1.382   .     A
C788   H807    1.085   .     S
C789   I826    2.127   .     S
C790   C824    1.455   .     S
C790   C799    1.407   .     A
C791   C799    1.397   .     A
C791   H711    1.084   1_655 S
C792   C794    1.451   .     S
C792   C800    1.400   .     A
C793   C473    1.351   1_565 S
C793   C551    1.458   1_565 S
C794   O817    1.298   .     A
C795   C796    1.407   .     S
C795   C563    1.351   1_655 S
C796   O818    1.293   .     A
C796   O727    1.272   1_655 S
C797   O820    1.297   .     A
C797   C799    1.453   .     S
C797   O729    1.287   1_655 S
C798   H808    1.084   .     S
C798   C377    1.381   1_556 S
C800   C801    1.385   .     A
C801   C802    1.390   .     A
C801   H811    1.083   .     S
C802   H396    1.076   1_556 S
H804   C519    1.088   1_565 S
H805   N812    1.029   .     S
H806   N813    1.029   .     S
H809   C708    1.084   1_655 S
N812   N813    1.293   .     D
N812   Zn823   2.016   .     S
N813   Zn822   2.016   .     S
O814   Zn822   1.952   .     S
O814   C691    1.275   1_655 S
O815   Zn823   1.980   .     S
O816   Zn822   1.960   .     S
O816   C702    1.287   1_655 S
O817   Zn823   1.914   .     S
O818   Zn822   1.980   .     S
O819   Zn823   1.952   .     S
O820   Zn822   1.914   .     S
O821   Zn823   1.960   .     S
C824   N825    1.158   .     T
C827   N828    1.158   .     T
