data_str_m3_o10_o17_pcu_sym.139
_audit_creation_date              2020-01-03
_audit_creation_method            'Materials Studio'
_symmetry_space_group_name_H-M    'P1'
_symmetry_Int_Tables_number       1
_symmetry_cell_setting            triclinic
loop_
_symmetry_equiv_pos_as_xyz
  x,y,z
_cell_length_a                    23.5234
_cell_length_b                    26.1675
_cell_length_c                    30.0649
_cell_angle_alpha                 93.8400
_cell_angle_beta                  86.2742
_cell_angle_gamma                 93.4454
loop_
_atom_site_label
_atom_site_type_symbol
_atom_site_fract_x
_atom_site_fract_y
_atom_site_fract_z
_atom_site_U_iso_or_equiv
_atom_site_adp_type
_atom_site_occupancy
O1     O     0.12975   0.24619   0.25298   0.00000  Uiso   1.00
O2     O     0.20358   0.08714   0.24701   0.00000  Uiso   1.00
O3     O     0.22613   0.23721   0.24518   0.00000  Uiso   1.00
O4     O     0.10720   0.09613   0.25481   0.00000  Uiso   1.00
C5     C     0.18150   0.26451   0.24889   0.00000  Uiso   1.00
C6     C     0.15183   0.06883   0.25111   0.00000  Uiso   1.00
O7     O     0.11847   0.17117   0.31997   0.00000  Uiso   1.00
O8     O     0.21486   0.16216   0.18002   0.00000  Uiso   1.00
O9     O     0.21485   0.16219   0.31217   0.00000  Uiso   1.00
O10    O     0.11848   0.17115   0.18782   0.00000  Uiso   1.00
C11    C     0.16772   0.16922   0.33636   0.00000  Uiso   1.00
C12    C     0.16562   0.16411   0.16364   0.00000  Uiso   1.00
Zn13   Zn    0.10231   0.17266   0.25521   0.00000  Uiso   1.00
Zn14   Zn    0.23102   0.16067   0.24479   0.00000  Uiso   1.00
C15    C     0.13609   0.12343   0.09149   0.00000  Uiso   1.00
C16    C     0.19722   0.20989   0.40851   0.00000  Uiso   1.00
C17    C     0.16514   0.16356   0.11579   0.00000  Uiso   1.00
C18    C     0.16820   0.16975   0.38421   0.00000  Uiso   1.00
C19    C     0.19615   0.20326   0.09473   0.00000  Uiso   1.00
C20    C     0.13726   0.13000   0.40527   0.00000  Uiso   1.00
C21    C     0.19633   0.20459   0.04854   0.00000  Uiso   1.00
C22    C     0.13710   0.12865   0.45145   0.00000  Uiso   1.00
C23    C     0.16682   0.16528   0.02329   0.00000  Uiso   1.00
C24    C     0.16658   0.16798   0.47671   0.00000  Uiso   1.00
C25    C     0.13863   0.12290   0.04440   0.00000  Uiso   1.00
C26    C     0.19474   0.21038   0.45560   0.00000  Uiso   1.00
C27    C     0.22350   0.24623   0.02772   0.00000  Uiso   1.00
C28    C     0.10998   0.08699   0.47226   0.00000  Uiso   1.00
C29    C     0.21963   0.25136   0.48251   0.00000  Uiso   1.00
C30    C     0.11374   0.08190   0.01749   0.00000  Uiso   1.00
H31    H     0.24429   0.27746   0.04714   0.00000  Uiso   1.00
H32    H     0.08926   0.05573   0.45282   0.00000  Uiso   1.00
C33    C     0.18949   0.31858   0.25060   0.00000  Uiso   1.00
C34    C     0.14385   0.01476   0.24948   0.00000  Uiso   1.00
N35    N     0.31678   0.15265   0.23783   0.00000  Uiso   1.00
N36    N     0.01656   0.18068   0.26217   0.00000  Uiso   1.00
N37    N     0.10283   0.08480   0.11496   0.00000  Uiso   1.00
O38    O     0.12613   0.05859   0.14351   0.00000  Uiso   1.00
O39    O     0.04923   0.07540   0.10743   0.00000  Uiso   1.00
N40    N     0.23043   0.24856   0.38505   0.00000  Uiso   1.00
O41    O     0.20710   0.27475   0.35651   0.00000  Uiso   1.00
O42    O     0.28402   0.25800   0.39258   0.00000  Uiso   1.00
O43    O     0.22872   0.23954   0.11936   0.00000  Uiso   1.00
C44    C     0.19407   0.27959   0.13580   0.00000  Uiso   1.00
H45    H     0.17593   0.29813   0.10843   0.00000  Uiso   1.00
H46    H     0.22071   0.30933   0.15401   0.00000  Uiso   1.00
H47    H     0.15890   0.26591   0.15915   0.00000  Uiso   1.00
O48    O     0.10485   0.09361   0.38063   0.00000  Uiso   1.00
C49    C     0.13971   0.05371   0.36420   0.00000  Uiso   1.00
H50    H     0.11299   0.02335   0.34676   0.00000  Uiso   1.00
H51    H     0.15905   0.03597   0.39148   0.00000  Uiso   1.00
H52    H     0.17407   0.06741   0.34017   0.00000  Uiso   1.00
N53    N     0.23382   0.30110   0.46646   0.00000  Uiso   1.00
O54    O     0.19398   0.32590   0.45103   0.00000  Uiso   1.00
O55    O     0.28097   0.32612   0.47711   0.00000  Uiso   1.00
N56    N     0.09932   0.03221   0.03358   0.00000  Uiso   1.00
O57    O     0.05211   0.00732   0.02288   0.00000  Uiso   1.00
O58    O     0.13897   0.00731   0.04916   0.00000  Uiso   1.00
N59    N     0.24686   0.00571   0.25600   0.00000  Uiso   1.00
O60    O     0.28565   0.33151   0.22382   0.00000  Uiso   1.00
O61    O     0.26190   0.02418   0.29503   0.00000  Uiso   1.00
N62    N     0.08646   0.32763   0.24417   0.00000  Uiso   1.00
O63    O     0.04775   0.00181   0.27642   0.00000  Uiso   1.00
O64    O     0.07132   0.30920   0.20516   0.00000  Uiso   1.00
N65    N     0.00853   0.13287   0.19819   0.00000  Uiso   1.00
O66    O     0.00316   0.15599   0.16185   0.00000  Uiso   1.00
O67    O     0.02078   0.08500   0.19522   0.00000  Uiso   1.00
N68    N     0.32481   0.20046   0.30181   0.00000  Uiso   1.00
O69    O     0.33019   0.17736   0.33815   0.00000  Uiso   1.00
O70    O     0.31249   0.24831   0.30478   0.00000  Uiso   1.00
O71    O     0.46308   0.24619   0.25298   0.00000  Uiso   1.00
O72    O     0.53692   0.08714   0.24701   0.00000  Uiso   1.00
O73    O     0.55946   0.23721   0.24518   0.00000  Uiso   1.00
O74    O     0.44054   0.09613   0.25481   0.00000  Uiso   1.00
C75    C     0.51483   0.26451   0.24889   0.00000  Uiso   1.00
C76    C     0.48517   0.06883   0.25111   0.00000  Uiso   1.00
O77    O     0.45181   0.17117   0.31997   0.00000  Uiso   1.00
O78    O     0.54819   0.16216   0.18002   0.00000  Uiso   1.00
O79    O     0.54819   0.16219   0.31217   0.00000  Uiso   1.00
O80    O     0.45181   0.17115   0.18782   0.00000  Uiso   1.00
C81    C     0.50105   0.16922   0.33636   0.00000  Uiso   1.00
C82    C     0.49895   0.16411   0.16364   0.00000  Uiso   1.00
Zn83   Zn    0.43565   0.17266   0.25521   0.00000  Uiso   1.00
Zn84   Zn    0.56435   0.16067   0.24479   0.00000  Uiso   1.00
C85    C     0.46942   0.12343   0.09149   0.00000  Uiso   1.00
C86    C     0.53056   0.20989   0.40851   0.00000  Uiso   1.00
C87    C     0.49847   0.16356   0.11579   0.00000  Uiso   1.00
C88    C     0.50154   0.16975   0.38421   0.00000  Uiso   1.00
C89    C     0.52948   0.20326   0.09473   0.00000  Uiso   1.00
C90    C     0.47060   0.13000   0.40527   0.00000  Uiso   1.00
C91    C     0.52967   0.20459   0.04854   0.00000  Uiso   1.00
C92    C     0.47044   0.12865   0.45145   0.00000  Uiso   1.00
C93    C     0.50015   0.16528   0.02329   0.00000  Uiso   1.00
C94    C     0.49991   0.16798   0.47671   0.00000  Uiso   1.00
C95    C     0.47196   0.12290   0.04440   0.00000  Uiso   1.00
C96    C     0.52807   0.21038   0.45560   0.00000  Uiso   1.00
C97    C     0.55683   0.24623   0.02772   0.00000  Uiso   1.00
C98    C     0.44331   0.08699   0.47226   0.00000  Uiso   1.00
C99    C     0.55297   0.25136   0.48251   0.00000  Uiso   1.00
C100   C     0.44708   0.08190   0.01749   0.00000  Uiso   1.00
H101   H     0.57763   0.27746   0.04714   0.00000  Uiso   1.00
H102   H     0.42260   0.05573   0.45282   0.00000  Uiso   1.00
C103   C     0.52282   0.31858   0.25060   0.00000  Uiso   1.00
C104   C     0.47718   0.01476   0.24948   0.00000  Uiso   1.00
N105   N     0.65011   0.15265   0.23783   0.00000  Uiso   1.00
N106   N     0.34989   0.18068   0.26217   0.00000  Uiso   1.00
N107   N     0.43616   0.08480   0.11496   0.00000  Uiso   1.00
O108   O     0.45946   0.05859   0.14351   0.00000  Uiso   1.00
O109   O     0.38257   0.07540   0.10743   0.00000  Uiso   1.00
N110   N     0.56376   0.24856   0.38505   0.00000  Uiso   1.00
O111   O     0.54043   0.27475   0.35651   0.00000  Uiso   1.00
O112   O     0.61736   0.25800   0.39258   0.00000  Uiso   1.00
O113   O     0.56205   0.23954   0.11936   0.00000  Uiso   1.00
C114   C     0.52741   0.27959   0.13580   0.00000  Uiso   1.00
H115   H     0.50926   0.29813   0.10843   0.00000  Uiso   1.00
H116   H     0.55405   0.30933   0.15401   0.00000  Uiso   1.00
H117   H     0.49224   0.26591   0.15915   0.00000  Uiso   1.00
O118   O     0.43818   0.09361   0.38063   0.00000  Uiso   1.00
C119   C     0.47305   0.05371   0.36420   0.00000  Uiso   1.00
H120   H     0.44632   0.02335   0.34676   0.00000  Uiso   1.00
H121   H     0.49239   0.03597   0.39148   0.00000  Uiso   1.00
H122   H     0.50741   0.06741   0.34017   0.00000  Uiso   1.00
N123   N     0.56715   0.30110   0.46646   0.00000  Uiso   1.00
O124   O     0.52731   0.32590   0.45103   0.00000  Uiso   1.00
O125   O     0.61430   0.32612   0.47711   0.00000  Uiso   1.00
N126   N     0.43265   0.03221   0.03358   0.00000  Uiso   1.00
O127   O     0.38545   0.00732   0.02288   0.00000  Uiso   1.00
O128   O     0.47230   0.00731   0.04916   0.00000  Uiso   1.00
N129   N     0.58019   0.00571   0.25600   0.00000  Uiso   1.00
O130   O     0.61898   0.33151   0.22382   0.00000  Uiso   1.00
O131   O     0.59523   0.02418   0.29503   0.00000  Uiso   1.00
N132   N     0.41979   0.32763   0.24417   0.00000  Uiso   1.00
O133   O     0.38109   0.00181   0.27642   0.00000  Uiso   1.00
O134   O     0.40466   0.30920   0.20516   0.00000  Uiso   1.00
N135   N     0.34186   0.13287   0.19819   0.00000  Uiso   1.00
O136   O     0.33650   0.15599   0.16185   0.00000  Uiso   1.00
O137   O     0.35411   0.08500   0.19522   0.00000  Uiso   1.00
N138   N     0.65814   0.20046   0.30181   0.00000  Uiso   1.00
O139   O     0.66353   0.17736   0.33815   0.00000  Uiso   1.00
O140   O     0.64582   0.24831   0.30478   0.00000  Uiso   1.00
O141   O     0.79642   0.24619   0.25298   0.00000  Uiso   1.00
O142   O     0.87025   0.08714   0.24701   0.00000  Uiso   1.00
O143   O     0.89280   0.23721   0.24518   0.00000  Uiso   1.00
O144   O     0.77387   0.09613   0.25481   0.00000  Uiso   1.00
C145   C     0.84817   0.26451   0.24889   0.00000  Uiso   1.00
C146   C     0.81850   0.06883   0.25111   0.00000  Uiso   1.00
O147   O     0.78514   0.17117   0.31997   0.00000  Uiso   1.00
O148   O     0.88153   0.16216   0.18002   0.00000  Uiso   1.00
O149   O     0.88152   0.16219   0.31217   0.00000  Uiso   1.00
O150   O     0.78515   0.17115   0.18782   0.00000  Uiso   1.00
C151   C     0.83438   0.16922   0.33636   0.00000  Uiso   1.00
C152   C     0.83228   0.16411   0.16364   0.00000  Uiso   1.00
Zn153  Zn    0.76898   0.17266   0.25521   0.00000  Uiso   1.00
Zn154  Zn    0.89769   0.16067   0.24479   0.00000  Uiso   1.00
C155   C     0.80276   0.12343   0.09149   0.00000  Uiso   1.00
C156   C     0.86389   0.20989   0.40851   0.00000  Uiso   1.00
C157   C     0.83180   0.16356   0.11579   0.00000  Uiso   1.00
C158   C     0.83487   0.16975   0.38421   0.00000  Uiso   1.00
C159   C     0.86282   0.20326   0.09473   0.00000  Uiso   1.00
C160   C     0.80393   0.13000   0.40527   0.00000  Uiso   1.00
C161   C     0.86300   0.20459   0.04854   0.00000  Uiso   1.00
C162   C     0.80377   0.12865   0.45145   0.00000  Uiso   1.00
C163   C     0.83349   0.16528   0.02329   0.00000  Uiso   1.00
C164   C     0.83325   0.16798   0.47671   0.00000  Uiso   1.00
C165   C     0.80529   0.12290   0.04440   0.00000  Uiso   1.00
C166   C     0.86140   0.21038   0.45560   0.00000  Uiso   1.00
C167   C     0.89017   0.24623   0.02772   0.00000  Uiso   1.00
C168   C     0.77665   0.08699   0.47226   0.00000  Uiso   1.00
C169   C     0.88630   0.25136   0.48251   0.00000  Uiso   1.00
C170   C     0.78041   0.08190   0.01749   0.00000  Uiso   1.00
H171   H     0.91096   0.27746   0.04714   0.00000  Uiso   1.00
H172   H     0.75593   0.05573   0.45282   0.00000  Uiso   1.00
C173   C     0.85615   0.31858   0.25060   0.00000  Uiso   1.00
C174   C     0.81051   0.01476   0.24948   0.00000  Uiso   1.00
N175   N     0.98344   0.15265   0.23783   0.00000  Uiso   1.00
N176   N     0.68322   0.18068   0.26217   0.00000  Uiso   1.00
N177   N     0.76950   0.08480   0.11496   0.00000  Uiso   1.00
O178   O     0.79279   0.05859   0.14351   0.00000  Uiso   1.00
O179   O     0.71590   0.07540   0.10743   0.00000  Uiso   1.00
N180   N     0.89710   0.24856   0.38505   0.00000  Uiso   1.00
O181   O     0.87376   0.27475   0.35651   0.00000  Uiso   1.00
O182   O     0.95069   0.25800   0.39258   0.00000  Uiso   1.00
O183   O     0.89538   0.23954   0.11936   0.00000  Uiso   1.00
C184   C     0.86074   0.27959   0.13580   0.00000  Uiso   1.00
H185   H     0.84260   0.29813   0.10843   0.00000  Uiso   1.00
H186   H     0.88738   0.30933   0.15401   0.00000  Uiso   1.00
H187   H     0.82557   0.26591   0.15915   0.00000  Uiso   1.00
O188   O     0.77152   0.09361   0.38063   0.00000  Uiso   1.00
C189   C     0.80638   0.05371   0.36420   0.00000  Uiso   1.00
H190   H     0.77965   0.02335   0.34676   0.00000  Uiso   1.00
H191   H     0.82572   0.03597   0.39148   0.00000  Uiso   1.00
H192   H     0.84074   0.06741   0.34017   0.00000  Uiso   1.00
N193   N     0.90049   0.30110   0.46646   0.00000  Uiso   1.00
O194   O     0.86064   0.32590   0.45103   0.00000  Uiso   1.00
O195   O     0.94764   0.32612   0.47711   0.00000  Uiso   1.00
N196   N     0.76598   0.03221   0.03358   0.00000  Uiso   1.00
O197   O     0.71878   0.00732   0.02288   0.00000  Uiso   1.00
O198   O     0.80564   0.00731   0.04916   0.00000  Uiso   1.00
N199   N     0.91353   0.00571   0.25600   0.00000  Uiso   1.00
O200   O     0.95232   0.33151   0.22382   0.00000  Uiso   1.00
O201   O     0.92856   0.02418   0.29503   0.00000  Uiso   1.00
N202   N     0.75312   0.32763   0.24417   0.00000  Uiso   1.00
O203   O     0.71442   0.00181   0.27642   0.00000  Uiso   1.00
O204   O     0.73799   0.30920   0.20516   0.00000  Uiso   1.00
N205   N     0.67519   0.13287   0.19819   0.00000  Uiso   1.00
O206   O     0.66983   0.15599   0.16185   0.00000  Uiso   1.00
O207   O     0.68745   0.08500   0.19522   0.00000  Uiso   1.00
N208   N     0.99147   0.20046   0.30181   0.00000  Uiso   1.00
O209   O     0.99686   0.17736   0.33815   0.00000  Uiso   1.00
O210   O     0.97916   0.24831   0.30478   0.00000  Uiso   1.00
O211   O     0.12975   0.57952   0.25298   0.00000  Uiso   1.00
O212   O     0.20358   0.42048   0.24701   0.00000  Uiso   1.00
O213   O     0.22613   0.57054   0.24518   0.00000  Uiso   1.00
O214   O     0.10720   0.42946   0.25481   0.00000  Uiso   1.00
C215   C     0.18150   0.59784   0.24889   0.00000  Uiso   1.00
C216   C     0.15183   0.40216   0.25111   0.00000  Uiso   1.00
O217   O     0.11847   0.50450   0.31997   0.00000  Uiso   1.00
O218   O     0.21486   0.49550   0.18002   0.00000  Uiso   1.00
O219   O     0.21485   0.49552   0.31217   0.00000  Uiso   1.00
O220   O     0.11848   0.50448   0.18782   0.00000  Uiso   1.00
C221   C     0.16772   0.50255   0.33636   0.00000  Uiso   1.00
C222   C     0.16562   0.49744   0.16364   0.00000  Uiso   1.00
Zn223  Zn    0.10231   0.50600   0.25521   0.00000  Uiso   1.00
Zn224  Zn    0.23102   0.49400   0.24479   0.00000  Uiso   1.00
C225   C     0.13609   0.45676   0.09149   0.00000  Uiso   1.00
C226   C     0.19722   0.54322   0.40851   0.00000  Uiso   1.00
C227   C     0.16514   0.49689   0.11579   0.00000  Uiso   1.00
C228   C     0.16820   0.50309   0.38421   0.00000  Uiso   1.00
C229   C     0.19615   0.53660   0.09473   0.00000  Uiso   1.00
C230   C     0.13726   0.46334   0.40527   0.00000  Uiso   1.00
C231   C     0.19633   0.53793   0.04854   0.00000  Uiso   1.00
C232   C     0.13710   0.46199   0.45145   0.00000  Uiso   1.00
C233   C     0.16682   0.49861   0.02329   0.00000  Uiso   1.00
C234   C     0.16658   0.50131   0.47671   0.00000  Uiso   1.00
C235   C     0.13863   0.45623   0.04440   0.00000  Uiso   1.00
C236   C     0.19474   0.54371   0.45560   0.00000  Uiso   1.00
C237   C     0.22350   0.57956   0.02772   0.00000  Uiso   1.00
C238   C     0.10998   0.42033   0.47226   0.00000  Uiso   1.00
C239   C     0.21963   0.58469   0.48251   0.00000  Uiso   1.00
C240   C     0.11374   0.41523   0.01749   0.00000  Uiso   1.00
H241   H     0.24429   0.61079   0.04714   0.00000  Uiso   1.00
H242   H     0.08926   0.38906   0.45282   0.00000  Uiso   1.00
C243   C     0.18949   0.65191   0.25060   0.00000  Uiso   1.00
C244   C     0.14385   0.34810   0.24948   0.00000  Uiso   1.00
N245   N     0.31678   0.48598   0.23783   0.00000  Uiso   1.00
N246   N     0.01656   0.51402   0.26217   0.00000  Uiso   1.00
N247   N     0.10283   0.41814   0.11496   0.00000  Uiso   1.00
O248   O     0.12613   0.39192   0.14351   0.00000  Uiso   1.00
O249   O     0.04923   0.40874   0.10743   0.00000  Uiso   1.00
N250   N     0.23043   0.58189   0.38505   0.00000  Uiso   1.00
O251   O     0.20710   0.60808   0.35651   0.00000  Uiso   1.00
O252   O     0.28402   0.59134   0.39258   0.00000  Uiso   1.00
O253   O     0.22872   0.57287   0.11936   0.00000  Uiso   1.00
C254   C     0.19407   0.61293   0.13580   0.00000  Uiso   1.00
H255   H     0.17593   0.63146   0.10843   0.00000  Uiso   1.00
H256   H     0.22071   0.64266   0.15401   0.00000  Uiso   1.00
H257   H     0.15890   0.59924   0.15915   0.00000  Uiso   1.00
O258   O     0.10485   0.42694   0.38063   0.00000  Uiso   1.00
C259   C     0.13971   0.38704   0.36420   0.00000  Uiso   1.00
H260   H     0.11299   0.35668   0.34676   0.00000  Uiso   1.00
H261   H     0.15905   0.36931   0.39148   0.00000  Uiso   1.00
H262   H     0.17407   0.40075   0.34017   0.00000  Uiso   1.00
N263   N     0.23382   0.63443   0.46646   0.00000  Uiso   1.00
O264   O     0.19398   0.65923   0.45103   0.00000  Uiso   1.00
O265   O     0.28097   0.65946   0.47711   0.00000  Uiso   1.00
N266   N     0.09932   0.36555   0.03358   0.00000  Uiso   1.00
O267   O     0.05211   0.34065   0.02288   0.00000  Uiso   1.00
O268   O     0.13897   0.34065   0.04916   0.00000  Uiso   1.00
N269   N     0.24686   0.33905   0.25600   0.00000  Uiso   1.00
O270   O     0.28565   0.66484   0.22382   0.00000  Uiso   1.00
O271   O     0.26190   0.35751   0.29503   0.00000  Uiso   1.00
N272   N     0.08646   0.66097   0.24417   0.00000  Uiso   1.00
O273   O     0.04775   0.33515   0.27642   0.00000  Uiso   1.00
O274   O     0.07132   0.64253   0.20516   0.00000  Uiso   1.00
N275   N     0.00853   0.46620   0.19819   0.00000  Uiso   1.00
O276   O     0.00316   0.48932   0.16185   0.00000  Uiso   1.00
O277   O     0.02078   0.41834   0.19522   0.00000  Uiso   1.00
N278   N     0.32481   0.53379   0.30181   0.00000  Uiso   1.00
O279   O     0.33019   0.51069   0.33815   0.00000  Uiso   1.00
O280   O     0.31249   0.58164   0.30478   0.00000  Uiso   1.00
O281   O     0.46308   0.57952   0.25298   0.00000  Uiso   1.00
O282   O     0.53692   0.42048   0.24701   0.00000  Uiso   1.00
O283   O     0.55946   0.57054   0.24518   0.00000  Uiso   1.00
O284   O     0.44054   0.42946   0.25481   0.00000  Uiso   1.00
C285   C     0.51483   0.59784   0.24889   0.00000  Uiso   1.00
C286   C     0.48517   0.40216   0.25111   0.00000  Uiso   1.00
O287   O     0.45181   0.50450   0.31997   0.00000  Uiso   1.00
O288   O     0.54819   0.49550   0.18002   0.00000  Uiso   1.00
O289   O     0.54819   0.49552   0.31217   0.00000  Uiso   1.00
O290   O     0.45181   0.50448   0.18782   0.00000  Uiso   1.00
C291   C     0.50105   0.50255   0.33636   0.00000  Uiso   1.00
C292   C     0.49895   0.49744   0.16364   0.00000  Uiso   1.00
Zn293  Zn    0.43565   0.50600   0.25521   0.00000  Uiso   1.00
Zn294  Zn    0.56435   0.49400   0.24479   0.00000  Uiso   1.00
C295   C     0.46942   0.45676   0.09149   0.00000  Uiso   1.00
C296   C     0.53056   0.54322   0.40851   0.00000  Uiso   1.00
C297   C     0.49847   0.49689   0.11579   0.00000  Uiso   1.00
C298   C     0.50154   0.50309   0.38421   0.00000  Uiso   1.00
C299   C     0.52948   0.53660   0.09473   0.00000  Uiso   1.00
C300   C     0.47060   0.46334   0.40527   0.00000  Uiso   1.00
C301   C     0.52967   0.53793   0.04854   0.00000  Uiso   1.00
C302   C     0.47044   0.46199   0.45145   0.00000  Uiso   1.00
C303   C     0.50015   0.49861   0.02329   0.00000  Uiso   1.00
C304   C     0.49991   0.50131   0.47671   0.00000  Uiso   1.00
C305   C     0.47196   0.45623   0.04440   0.00000  Uiso   1.00
C306   C     0.52807   0.54371   0.45560   0.00000  Uiso   1.00
C307   C     0.55683   0.57956   0.02772   0.00000  Uiso   1.00
C308   C     0.44331   0.42033   0.47226   0.00000  Uiso   1.00
C309   C     0.55297   0.58469   0.48251   0.00000  Uiso   1.00
C310   C     0.44708   0.41523   0.01749   0.00000  Uiso   1.00
H311   H     0.57763   0.61079   0.04714   0.00000  Uiso   1.00
H312   H     0.42260   0.38906   0.45282   0.00000  Uiso   1.00
C313   C     0.52282   0.65191   0.25060   0.00000  Uiso   1.00
C314   C     0.47718   0.34810   0.24948   0.00000  Uiso   1.00
N315   N     0.65011   0.48598   0.23783   0.00000  Uiso   1.00
N316   N     0.34989   0.51402   0.26217   0.00000  Uiso   1.00
N317   N     0.43616   0.41814   0.11496   0.00000  Uiso   1.00
O318   O     0.45946   0.39192   0.14351   0.00000  Uiso   1.00
O319   O     0.38257   0.40874   0.10743   0.00000  Uiso   1.00
N320   N     0.56376   0.58189   0.38505   0.00000  Uiso   1.00
O321   O     0.54043   0.60808   0.35651   0.00000  Uiso   1.00
O322   O     0.61736   0.59134   0.39258   0.00000  Uiso   1.00
O323   O     0.56205   0.57287   0.11936   0.00000  Uiso   1.00
C324   C     0.52741   0.61293   0.13580   0.00000  Uiso   1.00
H325   H     0.50926   0.63146   0.10843   0.00000  Uiso   1.00
H326   H     0.55405   0.64266   0.15401   0.00000  Uiso   1.00
H327   H     0.49224   0.59924   0.15915   0.00000  Uiso   1.00
O328   O     0.43818   0.42694   0.38063   0.00000  Uiso   1.00
C329   C     0.47305   0.38704   0.36420   0.00000  Uiso   1.00
H330   H     0.44632   0.35668   0.34676   0.00000  Uiso   1.00
H331   H     0.49239   0.36931   0.39148   0.00000  Uiso   1.00
H332   H     0.50741   0.40075   0.34017   0.00000  Uiso   1.00
N333   N     0.56715   0.63443   0.46646   0.00000  Uiso   1.00
O334   O     0.52731   0.65923   0.45103   0.00000  Uiso   1.00
O335   O     0.61430   0.65946   0.47711   0.00000  Uiso   1.00
N336   N     0.43265   0.36555   0.03358   0.00000  Uiso   1.00
O337   O     0.38545   0.34065   0.02288   0.00000  Uiso   1.00
O338   O     0.47230   0.34065   0.04916   0.00000  Uiso   1.00
N339   N     0.58019   0.33905   0.25600   0.00000  Uiso   1.00
O340   O     0.61898   0.66484   0.22382   0.00000  Uiso   1.00
O341   O     0.59523   0.35751   0.29503   0.00000  Uiso   1.00
N342   N     0.41979   0.66097   0.24417   0.00000  Uiso   1.00
O343   O     0.38109   0.33515   0.27642   0.00000  Uiso   1.00
O344   O     0.40466   0.64253   0.20516   0.00000  Uiso   1.00
N345   N     0.34186   0.46620   0.19819   0.00000  Uiso   1.00
O346   O     0.33650   0.48932   0.16185   0.00000  Uiso   1.00
O347   O     0.35411   0.41834   0.19522   0.00000  Uiso   1.00
N348   N     0.65814   0.53379   0.30181   0.00000  Uiso   1.00
O349   O     0.66353   0.51069   0.33815   0.00000  Uiso   1.00
O350   O     0.64582   0.58164   0.30478   0.00000  Uiso   1.00
O351   O     0.79642   0.57952   0.25298   0.00000  Uiso   1.00
O352   O     0.87025   0.42048   0.24701   0.00000  Uiso   1.00
O353   O     0.89280   0.57054   0.24518   0.00000  Uiso   1.00
O354   O     0.77387   0.42946   0.25481   0.00000  Uiso   1.00
C355   C     0.84817   0.59784   0.24889   0.00000  Uiso   1.00
C356   C     0.81850   0.40216   0.25111   0.00000  Uiso   1.00
O357   O     0.78514   0.50450   0.31997   0.00000  Uiso   1.00
O358   O     0.88153   0.49550   0.18002   0.00000  Uiso   1.00
O359   O     0.88152   0.49552   0.31217   0.00000  Uiso   1.00
O360   O     0.78515   0.50448   0.18782   0.00000  Uiso   1.00
C361   C     0.83438   0.50255   0.33636   0.00000  Uiso   1.00
C362   C     0.83228   0.49744   0.16364   0.00000  Uiso   1.00
Zn363  Zn    0.76898   0.50600   0.25521   0.00000  Uiso   1.00
Zn364  Zn    0.89769   0.49400   0.24479   0.00000  Uiso   1.00
C365   C     0.80276   0.45676   0.09149   0.00000  Uiso   1.00
C366   C     0.86389   0.54322   0.40851   0.00000  Uiso   1.00
C367   C     0.83180   0.49689   0.11579   0.00000  Uiso   1.00
C368   C     0.83487   0.50309   0.38421   0.00000  Uiso   1.00
C369   C     0.86282   0.53660   0.09473   0.00000  Uiso   1.00
C370   C     0.80393   0.46334   0.40527   0.00000  Uiso   1.00
C371   C     0.86300   0.53793   0.04854   0.00000  Uiso   1.00
C372   C     0.80377   0.46199   0.45145   0.00000  Uiso   1.00
C373   C     0.83349   0.49861   0.02329   0.00000  Uiso   1.00
C374   C     0.83325   0.50131   0.47671   0.00000  Uiso   1.00
C375   C     0.80529   0.45623   0.04440   0.00000  Uiso   1.00
C376   C     0.86140   0.54371   0.45560   0.00000  Uiso   1.00
C377   C     0.89017   0.57956   0.02772   0.00000  Uiso   1.00
C378   C     0.77665   0.42033   0.47226   0.00000  Uiso   1.00
C379   C     0.88630   0.58469   0.48251   0.00000  Uiso   1.00
C380   C     0.78041   0.41523   0.01749   0.00000  Uiso   1.00
H381   H     0.91096   0.61079   0.04714   0.00000  Uiso   1.00
H382   H     0.75593   0.38906   0.45282   0.00000  Uiso   1.00
C383   C     0.85615   0.65191   0.25060   0.00000  Uiso   1.00
C384   C     0.81051   0.34810   0.24948   0.00000  Uiso   1.00
N385   N     0.98344   0.48598   0.23783   0.00000  Uiso   1.00
N386   N     0.68322   0.51402   0.26217   0.00000  Uiso   1.00
N387   N     0.76950   0.41814   0.11496   0.00000  Uiso   1.00
O388   O     0.79279   0.39192   0.14351   0.00000  Uiso   1.00
O389   O     0.71590   0.40874   0.10743   0.00000  Uiso   1.00
N390   N     0.89710   0.58189   0.38505   0.00000  Uiso   1.00
O391   O     0.87376   0.60808   0.35651   0.00000  Uiso   1.00
O392   O     0.95069   0.59134   0.39258   0.00000  Uiso   1.00
O393   O     0.89538   0.57287   0.11936   0.00000  Uiso   1.00
C394   C     0.86074   0.61293   0.13580   0.00000  Uiso   1.00
H395   H     0.84260   0.63146   0.10843   0.00000  Uiso   1.00
H396   H     0.88738   0.64266   0.15401   0.00000  Uiso   1.00
H397   H     0.82557   0.59924   0.15915   0.00000  Uiso   1.00
O398   O     0.77152   0.42694   0.38063   0.00000  Uiso   1.00
C399   C     0.80638   0.38704   0.36420   0.00000  Uiso   1.00
H400   H     0.77965   0.35668   0.34676   0.00000  Uiso   1.00
H401   H     0.82572   0.36931   0.39148   0.00000  Uiso   1.00
H402   H     0.84074   0.40075   0.34017   0.00000  Uiso   1.00
N403   N     0.90049   0.63443   0.46646   0.00000  Uiso   1.00
O404   O     0.86064   0.65923   0.45103   0.00000  Uiso   1.00
O405   O     0.94764   0.65946   0.47711   0.00000  Uiso   1.00
N406   N     0.76598   0.36555   0.03358   0.00000  Uiso   1.00
O407   O     0.71878   0.34065   0.02288   0.00000  Uiso   1.00
O408   O     0.80564   0.34065   0.04916   0.00000  Uiso   1.00
N409   N     0.91353   0.33905   0.25600   0.00000  Uiso   1.00
O410   O     0.95232   0.66484   0.22382   0.00000  Uiso   1.00
O411   O     0.92856   0.35751   0.29503   0.00000  Uiso   1.00
N412   N     0.75312   0.66097   0.24417   0.00000  Uiso   1.00
O413   O     0.71442   0.33515   0.27642   0.00000  Uiso   1.00
O414   O     0.73799   0.64253   0.20516   0.00000  Uiso   1.00
N415   N     0.67519   0.46620   0.19819   0.00000  Uiso   1.00
O416   O     0.66983   0.48932   0.16185   0.00000  Uiso   1.00
O417   O     0.68745   0.41834   0.19522   0.00000  Uiso   1.00
N418   N     0.99147   0.53379   0.30181   0.00000  Uiso   1.00
O419   O     0.99686   0.51069   0.33815   0.00000  Uiso   1.00
O420   O     0.97916   0.58164   0.30478   0.00000  Uiso   1.00
O421   O     0.12975   0.91286   0.25298   0.00000  Uiso   1.00
O422   O     0.20358   0.75381   0.24701   0.00000  Uiso   1.00
O423   O     0.22613   0.90387   0.24518   0.00000  Uiso   1.00
O424   O     0.10720   0.76279   0.25481   0.00000  Uiso   1.00
C425   C     0.18150   0.93117   0.24889   0.00000  Uiso   1.00
C426   C     0.15183   0.73549   0.25111   0.00000  Uiso   1.00
O427   O     0.11847   0.83784   0.31997   0.00000  Uiso   1.00
O428   O     0.21486   0.82883   0.18002   0.00000  Uiso   1.00
O429   O     0.21485   0.82885   0.31217   0.00000  Uiso   1.00
O430   O     0.11848   0.83781   0.18782   0.00000  Uiso   1.00
C431   C     0.16772   0.83589   0.33636   0.00000  Uiso   1.00
C432   C     0.16562   0.83078   0.16364   0.00000  Uiso   1.00
Zn433  Zn    0.10231   0.83933   0.25521   0.00000  Uiso   1.00
Zn434  Zn    0.23102   0.82734   0.24479   0.00000  Uiso   1.00
C435   C     0.13609   0.79010   0.09149   0.00000  Uiso   1.00
C436   C     0.19722   0.87655   0.40851   0.00000  Uiso   1.00
C437   C     0.16514   0.83022   0.11579   0.00000  Uiso   1.00
C438   C     0.16820   0.83642   0.38421   0.00000  Uiso   1.00
C439   C     0.19615   0.86993   0.09473   0.00000  Uiso   1.00
C440   C     0.13726   0.79667   0.40527   0.00000  Uiso   1.00
C441   C     0.19633   0.87126   0.04854   0.00000  Uiso   1.00
C442   C     0.13710   0.79532   0.45145   0.00000  Uiso   1.00
C443   C     0.16682   0.83195   0.02329   0.00000  Uiso   1.00
C444   C     0.16658   0.83464   0.47671   0.00000  Uiso   1.00
C445   C     0.13863   0.78956   0.04440   0.00000  Uiso   1.00
C446   C     0.19474   0.87705   0.45560   0.00000  Uiso   1.00
C447   C     0.22350   0.91289   0.02772   0.00000  Uiso   1.00
C448   C     0.10998   0.75366   0.47226   0.00000  Uiso   1.00
C449   C     0.21963   0.91803   0.48251   0.00000  Uiso   1.00
C450   C     0.11374   0.74857   0.01749   0.00000  Uiso   1.00
H451   H     0.24429   0.94413   0.04714   0.00000  Uiso   1.00
H452   H     0.08926   0.72240   0.45282   0.00000  Uiso   1.00
C453   C     0.18949   0.98525   0.25060   0.00000  Uiso   1.00
C454   C     0.14385   0.68143   0.24948   0.00000  Uiso   1.00
N455   N     0.31678   0.81932   0.23783   0.00000  Uiso   1.00
N456   N     0.01656   0.84735   0.26217   0.00000  Uiso   1.00
N457   N     0.10283   0.75147   0.11496   0.00000  Uiso   1.00
O458   O     0.12613   0.72525   0.14351   0.00000  Uiso   1.00
O459   O     0.04923   0.74207   0.10743   0.00000  Uiso   1.00
N460   N     0.23043   0.91522   0.38505   0.00000  Uiso   1.00
O461   O     0.20710   0.94141   0.35651   0.00000  Uiso   1.00
O462   O     0.28402   0.92467   0.39258   0.00000  Uiso   1.00
O463   O     0.22872   0.90620   0.11936   0.00000  Uiso   1.00
C464   C     0.19407   0.94626   0.13580   0.00000  Uiso   1.00
H465   H     0.17593   0.96479   0.10843   0.00000  Uiso   1.00
H466   H     0.22071   0.97599   0.15401   0.00000  Uiso   1.00
H467   H     0.15890   0.93258   0.15915   0.00000  Uiso   1.00
O468   O     0.10485   0.76028   0.38063   0.00000  Uiso   1.00
C469   C     0.13971   0.72037   0.36420   0.00000  Uiso   1.00
H470   H     0.11299   0.69002   0.34676   0.00000  Uiso   1.00
H471   H     0.15905   0.70264   0.39148   0.00000  Uiso   1.00
H472   H     0.17407   0.73408   0.34017   0.00000  Uiso   1.00
N473   N     0.23382   0.96777   0.46646   0.00000  Uiso   1.00
O474   O     0.19398   0.99256   0.45103   0.00000  Uiso   1.00
O475   O     0.28097   0.99279   0.47711   0.00000  Uiso   1.00
N476   N     0.09932   0.69888   0.03358   0.00000  Uiso   1.00
O477   O     0.05211   0.67399   0.02288   0.00000  Uiso   1.00
O478   O     0.13897   0.67398   0.04916   0.00000  Uiso   1.00
N479   N     0.24686   0.67238   0.25600   0.00000  Uiso   1.00
O480   O     0.28565   0.99817   0.22382   0.00000  Uiso   1.00
O481   O     0.26190   0.69084   0.29503   0.00000  Uiso   1.00
N482   N     0.08646   0.99430   0.24417   0.00000  Uiso   1.00
O483   O     0.04775   0.66848   0.27642   0.00000  Uiso   1.00
O484   O     0.07132   0.97587   0.20516   0.00000  Uiso   1.00
N485   N     0.00853   0.79953   0.19819   0.00000  Uiso   1.00
O486   O     0.00316   0.82265   0.16185   0.00000  Uiso   1.00
O487   O     0.02078   0.75167   0.19522   0.00000  Uiso   1.00
N488   N     0.32481   0.86713   0.30181   0.00000  Uiso   1.00
O489   O     0.33019   0.84403   0.33815   0.00000  Uiso   1.00
O490   O     0.31249   0.91498   0.30478   0.00000  Uiso   1.00
O491   O     0.46308   0.91286   0.25298   0.00000  Uiso   1.00
O492   O     0.53692   0.75381   0.24701   0.00000  Uiso   1.00
O493   O     0.55946   0.90387   0.24518   0.00000  Uiso   1.00
O494   O     0.44054   0.76279   0.25481   0.00000  Uiso   1.00
C495   C     0.51483   0.93117   0.24889   0.00000  Uiso   1.00
C496   C     0.48517   0.73549   0.25111   0.00000  Uiso   1.00
O497   O     0.45181   0.83784   0.31997   0.00000  Uiso   1.00
O498   O     0.54819   0.82883   0.18002   0.00000  Uiso   1.00
O499   O     0.54819   0.82885   0.31217   0.00000  Uiso   1.00
O500   O     0.45181   0.83781   0.18782   0.00000  Uiso   1.00
C501   C     0.50105   0.83589   0.33636   0.00000  Uiso   1.00
C502   C     0.49895   0.83078   0.16364   0.00000  Uiso   1.00
Zn503  Zn    0.43565   0.83933   0.25521   0.00000  Uiso   1.00
Zn504  Zn    0.56435   0.82734   0.24479   0.00000  Uiso   1.00
C505   C     0.46942   0.79010   0.09149   0.00000  Uiso   1.00
C506   C     0.53056   0.87655   0.40851   0.00000  Uiso   1.00
C507   C     0.49847   0.83022   0.11579   0.00000  Uiso   1.00
C508   C     0.50154   0.83642   0.38421   0.00000  Uiso   1.00
C509   C     0.52948   0.86993   0.09473   0.00000  Uiso   1.00
C510   C     0.47060   0.79667   0.40527   0.00000  Uiso   1.00
C511   C     0.52967   0.87126   0.04854   0.00000  Uiso   1.00
C512   C     0.47044   0.79532   0.45145   0.00000  Uiso   1.00
C513   C     0.50015   0.83195   0.02329   0.00000  Uiso   1.00
C514   C     0.49991   0.83464   0.47671   0.00000  Uiso   1.00
C515   C     0.47196   0.78956   0.04440   0.00000  Uiso   1.00
C516   C     0.52807   0.87705   0.45560   0.00000  Uiso   1.00
C517   C     0.55683   0.91289   0.02772   0.00000  Uiso   1.00
C518   C     0.44331   0.75366   0.47226   0.00000  Uiso   1.00
C519   C     0.55297   0.91803   0.48251   0.00000  Uiso   1.00
C520   C     0.44708   0.74857   0.01749   0.00000  Uiso   1.00
H521   H     0.57763   0.94413   0.04714   0.00000  Uiso   1.00
H522   H     0.42260   0.72240   0.45282   0.00000  Uiso   1.00
C523   C     0.52282   0.98525   0.25060   0.00000  Uiso   1.00
C524   C     0.47718   0.68143   0.24948   0.00000  Uiso   1.00
N525   N     0.65011   0.81932   0.23783   0.00000  Uiso   1.00
N526   N     0.34989   0.84735   0.26217   0.00000  Uiso   1.00
N527   N     0.43616   0.75147   0.11496   0.00000  Uiso   1.00
O528   O     0.45946   0.72525   0.14351   0.00000  Uiso   1.00
O529   O     0.38257   0.74207   0.10743   0.00000  Uiso   1.00
N530   N     0.56376   0.91522   0.38505   0.00000  Uiso   1.00
O531   O     0.54043   0.94141   0.35651   0.00000  Uiso   1.00
O532   O     0.61736   0.92467   0.39258   0.00000  Uiso   1.00
O533   O     0.56205   0.90620   0.11936   0.00000  Uiso   1.00
C534   C     0.52741   0.94626   0.13580   0.00000  Uiso   1.00
H535   H     0.50926   0.96479   0.10843   0.00000  Uiso   1.00
H536   H     0.55405   0.97599   0.15401   0.00000  Uiso   1.00
H537   H     0.49224   0.93258   0.15915   0.00000  Uiso   1.00
O538   O     0.43818   0.76028   0.38063   0.00000  Uiso   1.00
C539   C     0.47305   0.72037   0.36420   0.00000  Uiso   1.00
H540   H     0.44632   0.69002   0.34676   0.00000  Uiso   1.00
H541   H     0.49239   0.70264   0.39148   0.00000  Uiso   1.00
H542   H     0.50741   0.73408   0.34017   0.00000  Uiso   1.00
N543   N     0.56715   0.96777   0.46646   0.00000  Uiso   1.00
O544   O     0.52731   0.99256   0.45103   0.00000  Uiso   1.00
O545   O     0.61430   0.99279   0.47711   0.00000  Uiso   1.00
N546   N     0.43265   0.69888   0.03358   0.00000  Uiso   1.00
O547   O     0.38545   0.67399   0.02288   0.00000  Uiso   1.00
O548   O     0.47230   0.67398   0.04916   0.00000  Uiso   1.00
N549   N     0.58019   0.67238   0.25600   0.00000  Uiso   1.00
O550   O     0.61898   0.99817   0.22382   0.00000  Uiso   1.00
O551   O     0.59523   0.69084   0.29503   0.00000  Uiso   1.00
N552   N     0.41979   0.99430   0.24417   0.00000  Uiso   1.00
O553   O     0.38109   0.66848   0.27642   0.00000  Uiso   1.00
O554   O     0.40466   0.97587   0.20516   0.00000  Uiso   1.00
N555   N     0.34186   0.79953   0.19819   0.00000  Uiso   1.00
O556   O     0.33650   0.82265   0.16185   0.00000  Uiso   1.00
O557   O     0.35411   0.75167   0.19522   0.00000  Uiso   1.00
N558   N     0.65814   0.86713   0.30181   0.00000  Uiso   1.00
O559   O     0.66353   0.84403   0.33815   0.00000  Uiso   1.00
O560   O     0.64582   0.91498   0.30478   0.00000  Uiso   1.00
O561   O     0.79642   0.91286   0.25298   0.00000  Uiso   1.00
O562   O     0.87025   0.75381   0.24701   0.00000  Uiso   1.00
O563   O     0.89280   0.90387   0.24518   0.00000  Uiso   1.00
O564   O     0.77387   0.76279   0.25481   0.00000  Uiso   1.00
C565   C     0.84817   0.93117   0.24889   0.00000  Uiso   1.00
C566   C     0.81850   0.73549   0.25111   0.00000  Uiso   1.00
O567   O     0.78514   0.83784   0.31997   0.00000  Uiso   1.00
O568   O     0.88153   0.82883   0.18002   0.00000  Uiso   1.00
O569   O     0.88152   0.82885   0.31217   0.00000  Uiso   1.00
O570   O     0.78515   0.83781   0.18782   0.00000  Uiso   1.00
C571   C     0.83438   0.83589   0.33636   0.00000  Uiso   1.00
C572   C     0.83228   0.83078   0.16364   0.00000  Uiso   1.00
Zn573  Zn    0.76898   0.83933   0.25521   0.00000  Uiso   1.00
Zn574  Zn    0.89769   0.82734   0.24479   0.00000  Uiso   1.00
C575   C     0.80276   0.79010   0.09149   0.00000  Uiso   1.00
C576   C     0.86389   0.87655   0.40851   0.00000  Uiso   1.00
C577   C     0.83180   0.83022   0.11579   0.00000  Uiso   1.00
C578   C     0.83487   0.83642   0.38421   0.00000  Uiso   1.00
C579   C     0.86282   0.86993   0.09473   0.00000  Uiso   1.00
C580   C     0.80393   0.79667   0.40527   0.00000  Uiso   1.00
C581   C     0.86300   0.87126   0.04854   0.00000  Uiso   1.00
C582   C     0.80377   0.79532   0.45145   0.00000  Uiso   1.00
C583   C     0.83349   0.83195   0.02329   0.00000  Uiso   1.00
C584   C     0.83325   0.83464   0.47671   0.00000  Uiso   1.00
C585   C     0.80529   0.78956   0.04440   0.00000  Uiso   1.00
C586   C     0.86140   0.87705   0.45560   0.00000  Uiso   1.00
C587   C     0.89017   0.91289   0.02772   0.00000  Uiso   1.00
C588   C     0.77665   0.75366   0.47226   0.00000  Uiso   1.00
C589   C     0.88630   0.91803   0.48251   0.00000  Uiso   1.00
C590   C     0.78041   0.74857   0.01749   0.00000  Uiso   1.00
H591   H     0.91096   0.94413   0.04714   0.00000  Uiso   1.00
H592   H     0.75593   0.72240   0.45282   0.00000  Uiso   1.00
C593   C     0.85615   0.98525   0.25060   0.00000  Uiso   1.00
C594   C     0.81051   0.68143   0.24948   0.00000  Uiso   1.00
N595   N     0.98344   0.81932   0.23783   0.00000  Uiso   1.00
N596   N     0.68322   0.84735   0.26217   0.00000  Uiso   1.00
N597   N     0.76950   0.75147   0.11496   0.00000  Uiso   1.00
O598   O     0.79279   0.72525   0.14351   0.00000  Uiso   1.00
O599   O     0.71590   0.74207   0.10743   0.00000  Uiso   1.00
N600   N     0.89710   0.91522   0.38505   0.00000  Uiso   1.00
O601   O     0.87376   0.94141   0.35651   0.00000  Uiso   1.00
O602   O     0.95069   0.92467   0.39258   0.00000  Uiso   1.00
O603   O     0.89538   0.90620   0.11936   0.00000  Uiso   1.00
C604   C     0.86074   0.94626   0.13580   0.00000  Uiso   1.00
H605   H     0.84260   0.96479   0.10843   0.00000  Uiso   1.00
H606   H     0.88738   0.97599   0.15401   0.00000  Uiso   1.00
H607   H     0.82557   0.93258   0.15915   0.00000  Uiso   1.00
O608   O     0.77152   0.76028   0.38063   0.00000  Uiso   1.00
C609   C     0.80638   0.72037   0.36420   0.00000  Uiso   1.00
H610   H     0.77965   0.69002   0.34676   0.00000  Uiso   1.00
H611   H     0.82572   0.70264   0.39148   0.00000  Uiso   1.00
H612   H     0.84074   0.73408   0.34017   0.00000  Uiso   1.00
N613   N     0.90049   0.96777   0.46646   0.00000  Uiso   1.00
O614   O     0.86064   0.99256   0.45103   0.00000  Uiso   1.00
O615   O     0.94764   0.99279   0.47711   0.00000  Uiso   1.00
N616   N     0.76598   0.69888   0.03358   0.00000  Uiso   1.00
O617   O     0.71878   0.67399   0.02288   0.00000  Uiso   1.00
O618   O     0.80564   0.67398   0.04916   0.00000  Uiso   1.00
N619   N     0.91353   0.67238   0.25600   0.00000  Uiso   1.00
O620   O     0.95232   0.99817   0.22382   0.00000  Uiso   1.00
O621   O     0.92856   0.69084   0.29503   0.00000  Uiso   1.00
N622   N     0.75312   0.99430   0.24417   0.00000  Uiso   1.00
O623   O     0.71442   0.66848   0.27642   0.00000  Uiso   1.00
O624   O     0.73799   0.97587   0.20516   0.00000  Uiso   1.00
N625   N     0.67519   0.79953   0.19819   0.00000  Uiso   1.00
O626   O     0.66983   0.82265   0.16185   0.00000  Uiso   1.00
O627   O     0.68745   0.75167   0.19522   0.00000  Uiso   1.00
N628   N     0.99147   0.86713   0.30181   0.00000  Uiso   1.00
O629   O     0.99686   0.84403   0.33815   0.00000  Uiso   1.00
O630   O     0.97916   0.91498   0.30478   0.00000  Uiso   1.00
O631   O     0.12975   0.24619   0.75298   0.00000  Uiso   1.00
O632   O     0.20358   0.08714   0.74701   0.00000  Uiso   1.00
O633   O     0.22613   0.23721   0.74518   0.00000  Uiso   1.00
O634   O     0.10720   0.09613   0.75481   0.00000  Uiso   1.00
C635   C     0.18150   0.26451   0.74889   0.00000  Uiso   1.00
C636   C     0.15183   0.06883   0.75111   0.00000  Uiso   1.00
O637   O     0.11847   0.17117   0.81997   0.00000  Uiso   1.00
O638   O     0.21486   0.16216   0.68002   0.00000  Uiso   1.00
O639   O     0.21485   0.16219   0.81217   0.00000  Uiso   1.00
O640   O     0.11848   0.17115   0.68782   0.00000  Uiso   1.00
C641   C     0.16772   0.16922   0.83636   0.00000  Uiso   1.00
C642   C     0.16562   0.16411   0.66364   0.00000  Uiso   1.00
Zn643  Zn    0.10231   0.17266   0.75521   0.00000  Uiso   1.00
Zn644  Zn    0.23102   0.16067   0.74479   0.00000  Uiso   1.00
C645   C     0.13609   0.12343   0.59149   0.00000  Uiso   1.00
C646   C     0.19722   0.20989   0.90851   0.00000  Uiso   1.00
C647   C     0.16514   0.16356   0.61579   0.00000  Uiso   1.00
C648   C     0.16820   0.16975   0.88421   0.00000  Uiso   1.00
C649   C     0.19615   0.20326   0.59473   0.00000  Uiso   1.00
C650   C     0.13726   0.13000   0.90527   0.00000  Uiso   1.00
C651   C     0.19633   0.20459   0.54854   0.00000  Uiso   1.00
C652   C     0.13710   0.12865   0.95145   0.00000  Uiso   1.00
C653   C     0.16682   0.16528   0.52329   0.00000  Uiso   1.00
C654   C     0.16658   0.16798   0.97671   0.00000  Uiso   1.00
C655   C     0.13863   0.12290   0.54440   0.00000  Uiso   1.00
C656   C     0.19474   0.21038   0.95560   0.00000  Uiso   1.00
C657   C     0.22350   0.24623   0.52772   0.00000  Uiso   1.00
C658   C     0.10998   0.08699   0.97226   0.00000  Uiso   1.00
C659   C     0.21963   0.25136   0.98251   0.00000  Uiso   1.00
C660   C     0.11374   0.08190   0.51749   0.00000  Uiso   1.00
H661   H     0.24429   0.27746   0.54714   0.00000  Uiso   1.00
H662   H     0.08926   0.05573   0.95282   0.00000  Uiso   1.00
C663   C     0.18949   0.31858   0.75060   0.00000  Uiso   1.00
C664   C     0.14385   0.01476   0.74948   0.00000  Uiso   1.00
N665   N     0.31678   0.15265   0.73783   0.00000  Uiso   1.00
N666   N     0.01656   0.18068   0.76217   0.00000  Uiso   1.00
N667   N     0.10283   0.08480   0.61496   0.00000  Uiso   1.00
O668   O     0.12613   0.05859   0.64351   0.00000  Uiso   1.00
O669   O     0.04923   0.07540   0.60743   0.00000  Uiso   1.00
N670   N     0.23043   0.24856   0.88505   0.00000  Uiso   1.00
O671   O     0.20710   0.27475   0.85651   0.00000  Uiso   1.00
O672   O     0.28402   0.25800   0.89258   0.00000  Uiso   1.00
O673   O     0.22872   0.23954   0.61936   0.00000  Uiso   1.00
C674   C     0.19407   0.27959   0.63580   0.00000  Uiso   1.00
H675   H     0.17593   0.29813   0.60843   0.00000  Uiso   1.00
H676   H     0.22071   0.30933   0.65401   0.00000  Uiso   1.00
H677   H     0.15890   0.26591   0.65915   0.00000  Uiso   1.00
O678   O     0.10485   0.09361   0.88063   0.00000  Uiso   1.00
C679   C     0.13971   0.05371   0.86420   0.00000  Uiso   1.00
H680   H     0.11299   0.02335   0.84676   0.00000  Uiso   1.00
H681   H     0.15905   0.03597   0.89148   0.00000  Uiso   1.00
H682   H     0.17407   0.06741   0.84017   0.00000  Uiso   1.00
N683   N     0.23382   0.30110   0.96646   0.00000  Uiso   1.00
O684   O     0.19398   0.32590   0.95103   0.00000  Uiso   1.00
O685   O     0.28097   0.32612   0.97711   0.00000  Uiso   1.00
N686   N     0.09932   0.03221   0.53358   0.00000  Uiso   1.00
O687   O     0.05211   0.00732   0.52288   0.00000  Uiso   1.00
O688   O     0.13897   0.00731   0.54916   0.00000  Uiso   1.00
N689   N     0.24686   0.00571   0.75600   0.00000  Uiso   1.00
O690   O     0.28565   0.33151   0.72382   0.00000  Uiso   1.00
O691   O     0.26190   0.02418   0.79503   0.00000  Uiso   1.00
N692   N     0.08646   0.32763   0.74417   0.00000  Uiso   1.00
O693   O     0.04775   0.00181   0.77642   0.00000  Uiso   1.00
O694   O     0.07132   0.30920   0.70516   0.00000  Uiso   1.00
N695   N     0.00853   0.13287   0.69819   0.00000  Uiso   1.00
O696   O     0.00316   0.15599   0.66185   0.00000  Uiso   1.00
O697   O     0.02078   0.08500   0.69522   0.00000  Uiso   1.00
N698   N     0.32481   0.20046   0.80181   0.00000  Uiso   1.00
O699   O     0.33019   0.17736   0.83815   0.00000  Uiso   1.00
O700   O     0.31249   0.24831   0.80478   0.00000  Uiso   1.00
O701   O     0.46308   0.24619   0.75298   0.00000  Uiso   1.00
O702   O     0.53692   0.08714   0.74701   0.00000  Uiso   1.00
O703   O     0.55946   0.23721   0.74518   0.00000  Uiso   1.00
O704   O     0.44054   0.09613   0.75481   0.00000  Uiso   1.00
C705   C     0.51483   0.26451   0.74889   0.00000  Uiso   1.00
C706   C     0.48517   0.06883   0.75111   0.00000  Uiso   1.00
O707   O     0.45181   0.17117   0.81997   0.00000  Uiso   1.00
O708   O     0.54819   0.16216   0.68002   0.00000  Uiso   1.00
O709   O     0.54819   0.16219   0.81217   0.00000  Uiso   1.00
O710   O     0.45181   0.17115   0.68782   0.00000  Uiso   1.00
C711   C     0.50105   0.16922   0.83636   0.00000  Uiso   1.00
C712   C     0.49895   0.16411   0.66364   0.00000  Uiso   1.00
Zn713  Zn    0.43565   0.17266   0.75521   0.00000  Uiso   1.00
Zn714  Zn    0.56435   0.16067   0.74479   0.00000  Uiso   1.00
C715   C     0.46942   0.12343   0.59149   0.00000  Uiso   1.00
C716   C     0.53056   0.20989   0.90851   0.00000  Uiso   1.00
C717   C     0.49847   0.16356   0.61579   0.00000  Uiso   1.00
C718   C     0.50154   0.16975   0.88421   0.00000  Uiso   1.00
C719   C     0.52948   0.20326   0.59473   0.00000  Uiso   1.00
C720   C     0.47060   0.13000   0.90527   0.00000  Uiso   1.00
C721   C     0.52967   0.20459   0.54854   0.00000  Uiso   1.00
C722   C     0.47044   0.12865   0.95145   0.00000  Uiso   1.00
C723   C     0.50015   0.16528   0.52329   0.00000  Uiso   1.00
C724   C     0.49991   0.16798   0.97671   0.00000  Uiso   1.00
C725   C     0.47196   0.12290   0.54440   0.00000  Uiso   1.00
C726   C     0.52807   0.21038   0.95560   0.00000  Uiso   1.00
C727   C     0.55683   0.24623   0.52772   0.00000  Uiso   1.00
C728   C     0.44331   0.08699   0.97226   0.00000  Uiso   1.00
C729   C     0.55297   0.25136   0.98251   0.00000  Uiso   1.00
C730   C     0.44708   0.08190   0.51749   0.00000  Uiso   1.00
H731   H     0.57763   0.27746   0.54714   0.00000  Uiso   1.00
H732   H     0.42260   0.05573   0.95282   0.00000  Uiso   1.00
C733   C     0.52282   0.31858   0.75060   0.00000  Uiso   1.00
C734   C     0.47718   0.01476   0.74948   0.00000  Uiso   1.00
N735   N     0.65011   0.15265   0.73783   0.00000  Uiso   1.00
N736   N     0.34989   0.18068   0.76217   0.00000  Uiso   1.00
N737   N     0.43616   0.08480   0.61496   0.00000  Uiso   1.00
O738   O     0.45946   0.05859   0.64351   0.00000  Uiso   1.00
O739   O     0.38257   0.07540   0.60743   0.00000  Uiso   1.00
N740   N     0.56376   0.24856   0.88505   0.00000  Uiso   1.00
O741   O     0.54043   0.27475   0.85651   0.00000  Uiso   1.00
O742   O     0.61736   0.25800   0.89258   0.00000  Uiso   1.00
O743   O     0.56205   0.23954   0.61936   0.00000  Uiso   1.00
C744   C     0.52741   0.27959   0.63580   0.00000  Uiso   1.00
H745   H     0.50926   0.29813   0.60843   0.00000  Uiso   1.00
H746   H     0.55405   0.30933   0.65401   0.00000  Uiso   1.00
H747   H     0.49224   0.26591   0.65915   0.00000  Uiso   1.00
O748   O     0.43818   0.09361   0.88063   0.00000  Uiso   1.00
C749   C     0.47305   0.05371   0.86420   0.00000  Uiso   1.00
H750   H     0.44632   0.02335   0.84676   0.00000  Uiso   1.00
H751   H     0.49239   0.03597   0.89148   0.00000  Uiso   1.00
H752   H     0.50741   0.06741   0.84017   0.00000  Uiso   1.00
N753   N     0.56715   0.30110   0.96646   0.00000  Uiso   1.00
O754   O     0.52731   0.32590   0.95103   0.00000  Uiso   1.00
O755   O     0.61430   0.32612   0.97711   0.00000  Uiso   1.00
N756   N     0.43265   0.03221   0.53358   0.00000  Uiso   1.00
O757   O     0.38545   0.00732   0.52288   0.00000  Uiso   1.00
O758   O     0.47230   0.00731   0.54916   0.00000  Uiso   1.00
N759   N     0.58019   0.00571   0.75600   0.00000  Uiso   1.00
O760   O     0.61898   0.33151   0.72382   0.00000  Uiso   1.00
O761   O     0.59523   0.02418   0.79503   0.00000  Uiso   1.00
N762   N     0.41979   0.32763   0.74417   0.00000  Uiso   1.00
O763   O     0.38109   0.00181   0.77642   0.00000  Uiso   1.00
O764   O     0.40466   0.30920   0.70516   0.00000  Uiso   1.00
N765   N     0.34186   0.13287   0.69819   0.00000  Uiso   1.00
O766   O     0.33650   0.15599   0.66185   0.00000  Uiso   1.00
O767   O     0.35411   0.08500   0.69522   0.00000  Uiso   1.00
N768   N     0.65814   0.20046   0.80181   0.00000  Uiso   1.00
O769   O     0.66353   0.17736   0.83815   0.00000  Uiso   1.00
O770   O     0.64582   0.24831   0.80478   0.00000  Uiso   1.00
O771   O     0.79642   0.24619   0.75298   0.00000  Uiso   1.00
O772   O     0.87025   0.08714   0.74701   0.00000  Uiso   1.00
O773   O     0.89280   0.23721   0.74518   0.00000  Uiso   1.00
O774   O     0.77387   0.09613   0.75481   0.00000  Uiso   1.00
C775   C     0.84817   0.26451   0.74889   0.00000  Uiso   1.00
C776   C     0.81850   0.06883   0.75111   0.00000  Uiso   1.00
O777   O     0.78514   0.17117   0.81997   0.00000  Uiso   1.00
O778   O     0.88153   0.16216   0.68002   0.00000  Uiso   1.00
O779   O     0.88152   0.16219   0.81217   0.00000  Uiso   1.00
O780   O     0.78515   0.17115   0.68782   0.00000  Uiso   1.00
C781   C     0.83438   0.16922   0.83636   0.00000  Uiso   1.00
C782   C     0.83228   0.16411   0.66364   0.00000  Uiso   1.00
Zn783  Zn    0.76898   0.17266   0.75521   0.00000  Uiso   1.00
Zn784  Zn    0.89769   0.16067   0.74479   0.00000  Uiso   1.00
C785   C     0.80276   0.12343   0.59149   0.00000  Uiso   1.00
C786   C     0.86389   0.20989   0.90851   0.00000  Uiso   1.00
C787   C     0.83180   0.16356   0.61579   0.00000  Uiso   1.00
C788   C     0.83487   0.16975   0.88421   0.00000  Uiso   1.00
C789   C     0.86282   0.20326   0.59473   0.00000  Uiso   1.00
C790   C     0.80393   0.13000   0.90527   0.00000  Uiso   1.00
C791   C     0.86300   0.20459   0.54854   0.00000  Uiso   1.00
C792   C     0.80377   0.12865   0.95145   0.00000  Uiso   1.00
C793   C     0.83349   0.16528   0.52329   0.00000  Uiso   1.00
C794   C     0.83325   0.16798   0.97671   0.00000  Uiso   1.00
C795   C     0.80529   0.12290   0.54440   0.00000  Uiso   1.00
C796   C     0.86140   0.21038   0.95560   0.00000  Uiso   1.00
C797   C     0.89017   0.24623   0.52772   0.00000  Uiso   1.00
C798   C     0.77665   0.08699   0.97226   0.00000  Uiso   1.00
C799   C     0.88630   0.25136   0.98251   0.00000  Uiso   1.00
C800   C     0.78041   0.08190   0.51749   0.00000  Uiso   1.00
H801   H     0.91096   0.27746   0.54714   0.00000  Uiso   1.00
H802   H     0.75593   0.05573   0.95282   0.00000  Uiso   1.00
C803   C     0.85615   0.31858   0.75060   0.00000  Uiso   1.00
C804   C     0.81051   0.01476   0.74948   0.00000  Uiso   1.00
N805   N     0.98344   0.15265   0.73783   0.00000  Uiso   1.00
N806   N     0.68322   0.18068   0.76217   0.00000  Uiso   1.00
N807   N     0.76950   0.08480   0.61496   0.00000  Uiso   1.00
O808   O     0.79279   0.05859   0.64351   0.00000  Uiso   1.00
O809   O     0.71590   0.07540   0.60743   0.00000  Uiso   1.00
N810   N     0.89710   0.24856   0.88505   0.00000  Uiso   1.00
O811   O     0.87376   0.27475   0.85651   0.00000  Uiso   1.00
O812   O     0.95069   0.25800   0.89258   0.00000  Uiso   1.00
O813   O     0.89538   0.23954   0.61936   0.00000  Uiso   1.00
C814   C     0.86074   0.27959   0.63580   0.00000  Uiso   1.00
H815   H     0.84260   0.29813   0.60843   0.00000  Uiso   1.00
H816   H     0.88738   0.30933   0.65401   0.00000  Uiso   1.00
H817   H     0.82557   0.26591   0.65915   0.00000  Uiso   1.00
O818   O     0.77152   0.09361   0.88063   0.00000  Uiso   1.00
C819   C     0.80638   0.05371   0.86420   0.00000  Uiso   1.00
H820   H     0.77965   0.02335   0.84676   0.00000  Uiso   1.00
H821   H     0.82572   0.03597   0.89148   0.00000  Uiso   1.00
H822   H     0.84074   0.06741   0.84017   0.00000  Uiso   1.00
N823   N     0.90049   0.30110   0.96646   0.00000  Uiso   1.00
O824   O     0.86064   0.32590   0.95103   0.00000  Uiso   1.00
O825   O     0.94764   0.32612   0.97711   0.00000  Uiso   1.00
N826   N     0.76598   0.03221   0.53358   0.00000  Uiso   1.00
O827   O     0.71878   0.00732   0.52288   0.00000  Uiso   1.00
O828   O     0.80564   0.00731   0.54916   0.00000  Uiso   1.00
N829   N     0.91353   0.00571   0.75600   0.00000  Uiso   1.00
O830   O     0.95232   0.33151   0.72382   0.00000  Uiso   1.00
O831   O     0.92856   0.02418   0.79503   0.00000  Uiso   1.00
N832   N     0.75312   0.32763   0.74417   0.00000  Uiso   1.00
O833   O     0.71442   0.00181   0.77642   0.00000  Uiso   1.00
O834   O     0.73799   0.30920   0.70516   0.00000  Uiso   1.00
N835   N     0.67519   0.13287   0.69819   0.00000  Uiso   1.00
O836   O     0.66983   0.15599   0.66185   0.00000  Uiso   1.00
O837   O     0.68745   0.08500   0.69522   0.00000  Uiso   1.00
N838   N     0.99147   0.20046   0.80181   0.00000  Uiso   1.00
O839   O     0.99686   0.17736   0.83815   0.00000  Uiso   1.00
O840   O     0.97916   0.24831   0.80478   0.00000  Uiso   1.00
O841   O     0.12975   0.57952   0.75298   0.00000  Uiso   1.00
O842   O     0.20358   0.42048   0.74701   0.00000  Uiso   1.00
O843   O     0.22613   0.57054   0.74518   0.00000  Uiso   1.00
O844   O     0.10720   0.42946   0.75481   0.00000  Uiso   1.00
C845   C     0.18150   0.59784   0.74889   0.00000  Uiso   1.00
C846   C     0.15183   0.40216   0.75111   0.00000  Uiso   1.00
O847   O     0.11847   0.50450   0.81997   0.00000  Uiso   1.00
O848   O     0.21486   0.49550   0.68002   0.00000  Uiso   1.00
O849   O     0.21485   0.49552   0.81217   0.00000  Uiso   1.00
O850   O     0.11848   0.50448   0.68782   0.00000  Uiso   1.00
C851   C     0.16772   0.50255   0.83636   0.00000  Uiso   1.00
C852   C     0.16562   0.49744   0.66364   0.00000  Uiso   1.00
Zn853  Zn    0.10231   0.50600   0.75521   0.00000  Uiso   1.00
Zn854  Zn    0.23102   0.49400   0.74479   0.00000  Uiso   1.00
C855   C     0.13609   0.45676   0.59149   0.00000  Uiso   1.00
C856   C     0.19722   0.54322   0.90851   0.00000  Uiso   1.00
C857   C     0.16514   0.49689   0.61579   0.00000  Uiso   1.00
C858   C     0.16820   0.50309   0.88421   0.00000  Uiso   1.00
C859   C     0.19615   0.53660   0.59473   0.00000  Uiso   1.00
C860   C     0.13726   0.46334   0.90527   0.00000  Uiso   1.00
C861   C     0.19633   0.53793   0.54854   0.00000  Uiso   1.00
C862   C     0.13710   0.46199   0.95145   0.00000  Uiso   1.00
C863   C     0.16682   0.49861   0.52329   0.00000  Uiso   1.00
C864   C     0.16658   0.50131   0.97671   0.00000  Uiso   1.00
C865   C     0.13863   0.45623   0.54440   0.00000  Uiso   1.00
C866   C     0.19474   0.54371   0.95560   0.00000  Uiso   1.00
C867   C     0.22350   0.57956   0.52772   0.00000  Uiso   1.00
C868   C     0.10998   0.42033   0.97226   0.00000  Uiso   1.00
C869   C     0.21963   0.58469   0.98251   0.00000  Uiso   1.00
C870   C     0.11374   0.41523   0.51749   0.00000  Uiso   1.00
H871   H     0.24429   0.61079   0.54714   0.00000  Uiso   1.00
H872   H     0.08926   0.38906   0.95282   0.00000  Uiso   1.00
C873   C     0.18949   0.65191   0.75060   0.00000  Uiso   1.00
C874   C     0.14385   0.34810   0.74948   0.00000  Uiso   1.00
N875   N     0.31678   0.48598   0.73783   0.00000  Uiso   1.00
N876   N     0.01656   0.51402   0.76217   0.00000  Uiso   1.00
N877   N     0.10283   0.41814   0.61496   0.00000  Uiso   1.00
O878   O     0.12613   0.39192   0.64351   0.00000  Uiso   1.00
O879   O     0.04923   0.40874   0.60743   0.00000  Uiso   1.00
N880   N     0.23043   0.58189   0.88505   0.00000  Uiso   1.00
O881   O     0.20710   0.60808   0.85651   0.00000  Uiso   1.00
O882   O     0.28402   0.59134   0.89258   0.00000  Uiso   1.00
O883   O     0.22872   0.57287   0.61936   0.00000  Uiso   1.00
C884   C     0.19407   0.61293   0.63580   0.00000  Uiso   1.00
H885   H     0.17593   0.63146   0.60843   0.00000  Uiso   1.00
H886   H     0.22071   0.64266   0.65401   0.00000  Uiso   1.00
H887   H     0.15890   0.59924   0.65915   0.00000  Uiso   1.00
O888   O     0.10485   0.42694   0.88063   0.00000  Uiso   1.00
C889   C     0.13971   0.38704   0.86420   0.00000  Uiso   1.00
H890   H     0.11299   0.35668   0.84676   0.00000  Uiso   1.00
H891   H     0.15905   0.36931   0.89148   0.00000  Uiso   1.00
H892   H     0.17407   0.40075   0.84017   0.00000  Uiso   1.00
N893   N     0.23382   0.63443   0.96646   0.00000  Uiso   1.00
O894   O     0.19398   0.65923   0.95103   0.00000  Uiso   1.00
O895   O     0.28097   0.65946   0.97711   0.00000  Uiso   1.00
N896   N     0.09932   0.36555   0.53358   0.00000  Uiso   1.00
O897   O     0.05211   0.34065   0.52288   0.00000  Uiso   1.00
O898   O     0.13897   0.34065   0.54916   0.00000  Uiso   1.00
N899   N     0.24686   0.33905   0.75600   0.00000  Uiso   1.00
O900   O     0.28565   0.66484   0.72382   0.00000  Uiso   1.00
O901   O     0.26190   0.35751   0.79503   0.00000  Uiso   1.00
N902   N     0.08646   0.66097   0.74417   0.00000  Uiso   1.00
O903   O     0.04775   0.33515   0.77642   0.00000  Uiso   1.00
O904   O     0.07132   0.64253   0.70516   0.00000  Uiso   1.00
N905   N     0.00853   0.46620   0.69819   0.00000  Uiso   1.00
O906   O     0.00316   0.48932   0.66185   0.00000  Uiso   1.00
O907   O     0.02078   0.41834   0.69522   0.00000  Uiso   1.00
N908   N     0.32481   0.53379   0.80181   0.00000  Uiso   1.00
O909   O     0.33019   0.51069   0.83815   0.00000  Uiso   1.00
O910   O     0.31249   0.58164   0.80478   0.00000  Uiso   1.00
O911   O     0.46308   0.57952   0.75298   0.00000  Uiso   1.00
O912   O     0.53692   0.42048   0.74701   0.00000  Uiso   1.00
O913   O     0.55946   0.57054   0.74518   0.00000  Uiso   1.00
O914   O     0.44054   0.42946   0.75481   0.00000  Uiso   1.00
C915   C     0.51483   0.59784   0.74889   0.00000  Uiso   1.00
C916   C     0.48517   0.40216   0.75111   0.00000  Uiso   1.00
O917   O     0.45181   0.50450   0.81997   0.00000  Uiso   1.00
O918   O     0.54819   0.49550   0.68002   0.00000  Uiso   1.00
O919   O     0.54819   0.49552   0.81217   0.00000  Uiso   1.00
O920   O     0.45181   0.50448   0.68782   0.00000  Uiso   1.00
C921   C     0.50105   0.50255   0.83636   0.00000  Uiso   1.00
C922   C     0.49895   0.49744   0.66364   0.00000  Uiso   1.00
Zn923  Zn    0.43565   0.50600   0.75521   0.00000  Uiso   1.00
Zn924  Zn    0.56435   0.49400   0.74479   0.00000  Uiso   1.00
C925   C     0.46942   0.45676   0.59149   0.00000  Uiso   1.00
C926   C     0.53056   0.54322   0.90851   0.00000  Uiso   1.00
C927   C     0.49847   0.49689   0.61579   0.00000  Uiso   1.00
C928   C     0.50154   0.50309   0.88421   0.00000  Uiso   1.00
C929   C     0.52948   0.53660   0.59473   0.00000  Uiso   1.00
C930   C     0.47060   0.46334   0.90527   0.00000  Uiso   1.00
C931   C     0.52967   0.53793   0.54854   0.00000  Uiso   1.00
C932   C     0.47044   0.46199   0.95145   0.00000  Uiso   1.00
C933   C     0.50015   0.49861   0.52329   0.00000  Uiso   1.00
C934   C     0.49991   0.50131   0.97671   0.00000  Uiso   1.00
C935   C     0.47196   0.45623   0.54440   0.00000  Uiso   1.00
C936   C     0.52807   0.54371   0.95560   0.00000  Uiso   1.00
C937   C     0.55683   0.57956   0.52772   0.00000  Uiso   1.00
C938   C     0.44331   0.42033   0.97226   0.00000  Uiso   1.00
C939   C     0.55297   0.58469   0.98251   0.00000  Uiso   1.00
C940   C     0.44708   0.41523   0.51749   0.00000  Uiso   1.00
H941   H     0.57763   0.61079   0.54714   0.00000  Uiso   1.00
H942   H     0.42260   0.38906   0.95282   0.00000  Uiso   1.00
C943   C     0.52282   0.65191   0.75060   0.00000  Uiso   1.00
C944   C     0.47718   0.34810   0.74948   0.00000  Uiso   1.00
N945   N     0.65011   0.48598   0.73783   0.00000  Uiso   1.00
N946   N     0.34989   0.51402   0.76217   0.00000  Uiso   1.00
N947   N     0.43616   0.41814   0.61496   0.00000  Uiso   1.00
O948   O     0.45946   0.39192   0.64351   0.00000  Uiso   1.00
O949   O     0.38257   0.40874   0.60743   0.00000  Uiso   1.00
N950   N     0.56376   0.58189   0.88505   0.00000  Uiso   1.00
O951   O     0.54043   0.60808   0.85651   0.00000  Uiso   1.00
O952   O     0.61736   0.59134   0.89258   0.00000  Uiso   1.00
O953   O     0.56205   0.57287   0.61936   0.00000  Uiso   1.00
C954   C     0.52741   0.61293   0.63580   0.00000  Uiso   1.00
H955   H     0.50926   0.63146   0.60843   0.00000  Uiso   1.00
H956   H     0.55405   0.64266   0.65401   0.00000  Uiso   1.00
H957   H     0.49224   0.59924   0.65915   0.00000  Uiso   1.00
O958   O     0.43818   0.42694   0.88063   0.00000  Uiso   1.00
C959   C     0.47305   0.38704   0.86420   0.00000  Uiso   1.00
H960   H     0.44632   0.35668   0.84676   0.00000  Uiso   1.00
H961   H     0.49239   0.36931   0.89148   0.00000  Uiso   1.00
H962   H     0.50741   0.40075   0.84017   0.00000  Uiso   1.00
N963   N     0.56715   0.63443   0.96646   0.00000  Uiso   1.00
O964   O     0.52731   0.65923   0.95103   0.00000  Uiso   1.00
O965   O     0.61430   0.65946   0.97711   0.00000  Uiso   1.00
N966   N     0.43265   0.36555   0.53358   0.00000  Uiso   1.00
O967   O     0.38545   0.34065   0.52288   0.00000  Uiso   1.00
O968   O     0.47230   0.34065   0.54916   0.00000  Uiso   1.00
N969   N     0.58019   0.33905   0.75600   0.00000  Uiso   1.00
O970   O     0.61898   0.66484   0.72382   0.00000  Uiso   1.00
O971   O     0.59523   0.35751   0.79503   0.00000  Uiso   1.00
N972   N     0.41979   0.66097   0.74417   0.00000  Uiso   1.00
O973   O     0.38109   0.33515   0.77642   0.00000  Uiso   1.00
O974   O     0.40466   0.64253   0.70516   0.00000  Uiso   1.00
N975   N     0.34186   0.46620   0.69819   0.00000  Uiso   1.00
O976   O     0.33650   0.48932   0.66185   0.00000  Uiso   1.00
O977   O     0.35411   0.41834   0.69522   0.00000  Uiso   1.00
N978   N     0.65814   0.53379   0.80181   0.00000  Uiso   1.00
O979   O     0.66353   0.51069   0.83815   0.00000  Uiso   1.00
O980   O     0.64582   0.58164   0.80478   0.00000  Uiso   1.00
O981   O     0.79642   0.57952   0.75298   0.00000  Uiso   1.00
O982   O     0.87025   0.42048   0.74701   0.00000  Uiso   1.00
O983   O     0.89280   0.57054   0.74518   0.00000  Uiso   1.00
O984   O     0.77387   0.42946   0.75481   0.00000  Uiso   1.00
C985   C     0.84817   0.59784   0.74889   0.00000  Uiso   1.00
C986   C     0.81850   0.40216   0.75111   0.00000  Uiso   1.00
O987   O     0.78514   0.50450   0.81997   0.00000  Uiso   1.00
O988   O     0.88153   0.49550   0.68002   0.00000  Uiso   1.00
O989   O     0.88152   0.49552   0.81217   0.00000  Uiso   1.00
O990   O     0.78515   0.50448   0.68782   0.00000  Uiso   1.00
C991   C     0.83438   0.50255   0.83636   0.00000  Uiso   1.00
C992   C     0.83228   0.49744   0.66364   0.00000  Uiso   1.00
Zn993  Zn    0.76898   0.50600   0.75521   0.00000  Uiso   1.00
Zn994  Zn    0.89769   0.49400   0.74479   0.00000  Uiso   1.00
C995   C     0.80276   0.45676   0.59149   0.00000  Uiso   1.00
C996   C     0.86389   0.54322   0.90851   0.00000  Uiso   1.00
C997   C     0.83180   0.49689   0.61579   0.00000  Uiso   1.00
C998   C     0.83487   0.50309   0.88421   0.00000  Uiso   1.00
C999   C     0.86282   0.53660   0.59473   0.00000  Uiso   1.00
C1000  C     0.80393   0.46334   0.90527   0.00000  Uiso   1.00
C1001  C     0.86300   0.53793   0.54854   0.00000  Uiso   1.00
C1002  C     0.80377   0.46199   0.95145   0.00000  Uiso   1.00
C1003  C     0.83349   0.49861   0.52329   0.00000  Uiso   1.00
C1004  C     0.83325   0.50131   0.97671   0.00000  Uiso   1.00
C1005  C     0.80529   0.45623   0.54440   0.00000  Uiso   1.00
C1006  C     0.86140   0.54371   0.95560   0.00000  Uiso   1.00
C1007  C     0.89017   0.57956   0.52772   0.00000  Uiso   1.00
C1008  C     0.77665   0.42033   0.97226   0.00000  Uiso   1.00
C1009  C     0.88630   0.58469   0.98251   0.00000  Uiso   1.00
C1010  C     0.78041   0.41523   0.51749   0.00000  Uiso   1.00
H1011  H     0.91096   0.61079   0.54714   0.00000  Uiso   1.00
H1012  H     0.75593   0.38906   0.95282   0.00000  Uiso   1.00
C1013  C     0.85615   0.65191   0.75060   0.00000  Uiso   1.00
C1014  C     0.81051   0.34810   0.74948   0.00000  Uiso   1.00
N1015  N     0.98344   0.48598   0.73783   0.00000  Uiso   1.00
N1016  N     0.68322   0.51402   0.76217   0.00000  Uiso   1.00
N1017  N     0.76950   0.41814   0.61496   0.00000  Uiso   1.00
O1018  O     0.79279   0.39192   0.64351   0.00000  Uiso   1.00
O1019  O     0.71590   0.40874   0.60743   0.00000  Uiso   1.00
N1020  N     0.89710   0.58189   0.88505   0.00000  Uiso   1.00
O1021  O     0.87376   0.60808   0.85651   0.00000  Uiso   1.00
O1022  O     0.95069   0.59134   0.89258   0.00000  Uiso   1.00
O1023  O     0.89538   0.57287   0.61936   0.00000  Uiso   1.00
C1024  C     0.86074   0.61293   0.63580   0.00000  Uiso   1.00
H1025  H     0.84260   0.63146   0.60843   0.00000  Uiso   1.00
H1026  H     0.88738   0.64266   0.65401   0.00000  Uiso   1.00
H1027  H     0.82557   0.59924   0.65915   0.00000  Uiso   1.00
O1028  O     0.77152   0.42694   0.88063   0.00000  Uiso   1.00
C1029  C     0.80638   0.38704   0.86420   0.00000  Uiso   1.00
H1030  H     0.77965   0.35668   0.84676   0.00000  Uiso   1.00
H1031  H     0.82572   0.36931   0.89148   0.00000  Uiso   1.00
H1032  H     0.84074   0.40075   0.84017   0.00000  Uiso   1.00
N1033  N     0.90049   0.63443   0.96646   0.00000  Uiso   1.00
O1034  O     0.86064   0.65923   0.95103   0.00000  Uiso   1.00
O1035  O     0.94764   0.65946   0.97711   0.00000  Uiso   1.00
N1036  N     0.76598   0.36555   0.53358   0.00000  Uiso   1.00
O1037  O     0.71878   0.34065   0.52288   0.00000  Uiso   1.00
O1038  O     0.80564   0.34065   0.54916   0.00000  Uiso   1.00
N1039  N     0.91353   0.33905   0.75600   0.00000  Uiso   1.00
O1040  O     0.95232   0.66484   0.72382   0.00000  Uiso   1.00
O1041  O     0.92856   0.35751   0.79503   0.00000  Uiso   1.00
N1042  N     0.75312   0.66097   0.74417   0.00000  Uiso   1.00
O1043  O     0.71442   0.33515   0.77642   0.00000  Uiso   1.00
O1044  O     0.73799   0.64253   0.70516   0.00000  Uiso   1.00
N1045  N     0.67519   0.46620   0.69819   0.00000  Uiso   1.00
O1046  O     0.66983   0.48932   0.66185   0.00000  Uiso   1.00
O1047  O     0.68745   0.41834   0.69522   0.00000  Uiso   1.00
N1048  N     0.99147   0.53379   0.80181   0.00000  Uiso   1.00
O1049  O     0.99686   0.51069   0.83815   0.00000  Uiso   1.00
O1050  O     0.97916   0.58164   0.80478   0.00000  Uiso   1.00
O1051  O     0.12975   0.91286   0.75298   0.00000  Uiso   1.00
O1052  O     0.20358   0.75381   0.74701   0.00000  Uiso   1.00
O1053  O     0.22613   0.90387   0.74518   0.00000  Uiso   1.00
O1054  O     0.10720   0.76279   0.75481   0.00000  Uiso   1.00
C1055  C     0.18150   0.93117   0.74889   0.00000  Uiso   1.00
C1056  C     0.15183   0.73549   0.75111   0.00000  Uiso   1.00
O1057  O     0.11847   0.83784   0.81997   0.00000  Uiso   1.00
O1058  O     0.21486   0.82883   0.68002   0.00000  Uiso   1.00
O1059  O     0.21485   0.82885   0.81217   0.00000  Uiso   1.00
O1060  O     0.11848   0.83781   0.68782   0.00000  Uiso   1.00
C1061  C     0.16772   0.83589   0.83636   0.00000  Uiso   1.00
C1062  C     0.16562   0.83078   0.66364   0.00000  Uiso   1.00
Zn1063 Zn    0.10231   0.83933   0.75521   0.00000  Uiso   1.00
Zn1064 Zn    0.23102   0.82734   0.74479   0.00000  Uiso   1.00
C1065  C     0.13609   0.79010   0.59149   0.00000  Uiso   1.00
C1066  C     0.19722   0.87655   0.90851   0.00000  Uiso   1.00
C1067  C     0.16514   0.83022   0.61579   0.00000  Uiso   1.00
C1068  C     0.16820   0.83642   0.88421   0.00000  Uiso   1.00
C1069  C     0.19615   0.86993   0.59473   0.00000  Uiso   1.00
C1070  C     0.13726   0.79667   0.90527   0.00000  Uiso   1.00
C1071  C     0.19633   0.87126   0.54854   0.00000  Uiso   1.00
C1072  C     0.13710   0.79532   0.95145   0.00000  Uiso   1.00
C1073  C     0.16682   0.83195   0.52329   0.00000  Uiso   1.00
C1074  C     0.16658   0.83464   0.97671   0.00000  Uiso   1.00
C1075  C     0.13863   0.78956   0.54440   0.00000  Uiso   1.00
C1076  C     0.19474   0.87705   0.95560   0.00000  Uiso   1.00
C1077  C     0.22350   0.91289   0.52772   0.00000  Uiso   1.00
C1078  C     0.10998   0.75366   0.97226   0.00000  Uiso   1.00
C1079  C     0.21963   0.91803   0.98251   0.00000  Uiso   1.00
C1080  C     0.11374   0.74857   0.51749   0.00000  Uiso   1.00
H1081  H     0.24429   0.94413   0.54714   0.00000  Uiso   1.00
H1082  H     0.08926   0.72240   0.95282   0.00000  Uiso   1.00
C1083  C     0.18949   0.98525   0.75060   0.00000  Uiso   1.00
C1084  C     0.14385   0.68143   0.74948   0.00000  Uiso   1.00
N1085  N     0.31678   0.81932   0.73783   0.00000  Uiso   1.00
N1086  N     0.01656   0.84735   0.76217   0.00000  Uiso   1.00
N1087  N     0.10283   0.75147   0.61496   0.00000  Uiso   1.00
O1088  O     0.12613   0.72525   0.64351   0.00000  Uiso   1.00
O1089  O     0.04923   0.74207   0.60743   0.00000  Uiso   1.00
N1090  N     0.23043   0.91522   0.88505   0.00000  Uiso   1.00
O1091  O     0.20710   0.94141   0.85651   0.00000  Uiso   1.00
O1092  O     0.28402   0.92467   0.89258   0.00000  Uiso   1.00
O1093  O     0.22872   0.90620   0.61936   0.00000  Uiso   1.00
C1094  C     0.19407   0.94626   0.63580   0.00000  Uiso   1.00
H1095  H     0.17593   0.96479   0.60843   0.00000  Uiso   1.00
H1096  H     0.22071   0.97599   0.65401   0.00000  Uiso   1.00
H1097  H     0.15890   0.93258   0.65915   0.00000  Uiso   1.00
O1098  O     0.10485   0.76028   0.88063   0.00000  Uiso   1.00
C1099  C     0.13971   0.72037   0.86420   0.00000  Uiso   1.00
H1100  H     0.11299   0.69002   0.84676   0.00000  Uiso   1.00
H1101  H     0.15905   0.70264   0.89148   0.00000  Uiso   1.00
H1102  H     0.17407   0.73408   0.84017   0.00000  Uiso   1.00
N1103  N     0.23382   0.96777   0.96646   0.00000  Uiso   1.00
O1104  O     0.19398   0.99256   0.95103   0.00000  Uiso   1.00
O1105  O     0.28097   0.99279   0.97711   0.00000  Uiso   1.00
N1106  N     0.09932   0.69888   0.53358   0.00000  Uiso   1.00
O1107  O     0.05211   0.67399   0.52288   0.00000  Uiso   1.00
O1108  O     0.13897   0.67398   0.54916   0.00000  Uiso   1.00
N1109  N     0.24686   0.67238   0.75600   0.00000  Uiso   1.00
O1110  O     0.28565   0.99817   0.72382   0.00000  Uiso   1.00
O1111  O     0.26190   0.69084   0.79503   0.00000  Uiso   1.00
N1112  N     0.08646   0.99430   0.74417   0.00000  Uiso   1.00
O1113  O     0.04775   0.66848   0.77642   0.00000  Uiso   1.00
O1114  O     0.07132   0.97587   0.70516   0.00000  Uiso   1.00
N1115  N     0.00853   0.79953   0.69819   0.00000  Uiso   1.00
O1116  O     0.00316   0.82265   0.66185   0.00000  Uiso   1.00
O1117  O     0.02078   0.75167   0.69522   0.00000  Uiso   1.00
N1118  N     0.32481   0.86713   0.80181   0.00000  Uiso   1.00
O1119  O     0.33019   0.84403   0.83815   0.00000  Uiso   1.00
O1120  O     0.31249   0.91498   0.80478   0.00000  Uiso   1.00
O1121  O     0.46308   0.91286   0.75298   0.00000  Uiso   1.00
O1122  O     0.53692   0.75381   0.74701   0.00000  Uiso   1.00
O1123  O     0.55946   0.90387   0.74518   0.00000  Uiso   1.00
O1124  O     0.44054   0.76279   0.75481   0.00000  Uiso   1.00
C1125  C     0.51483   0.93117   0.74889   0.00000  Uiso   1.00
C1126  C     0.48517   0.73549   0.75111   0.00000  Uiso   1.00
O1127  O     0.45181   0.83784   0.81997   0.00000  Uiso   1.00
O1128  O     0.54819   0.82883   0.68002   0.00000  Uiso   1.00
O1129  O     0.54819   0.82885   0.81217   0.00000  Uiso   1.00
O1130  O     0.45181   0.83781   0.68782   0.00000  Uiso   1.00
C1131  C     0.50105   0.83589   0.83636   0.00000  Uiso   1.00
C1132  C     0.49895   0.83078   0.66364   0.00000  Uiso   1.00
Zn1133 Zn    0.43565   0.83933   0.75521   0.00000  Uiso   1.00
Zn1134 Zn    0.56435   0.82734   0.74479   0.00000  Uiso   1.00
C1135  C     0.46942   0.79010   0.59149   0.00000  Uiso   1.00
C1136  C     0.53056   0.87655   0.90851   0.00000  Uiso   1.00
C1137  C     0.49847   0.83022   0.61579   0.00000  Uiso   1.00
C1138  C     0.50154   0.83642   0.88421   0.00000  Uiso   1.00
C1139  C     0.52948   0.86993   0.59473   0.00000  Uiso   1.00
C1140  C     0.47060   0.79667   0.90527   0.00000  Uiso   1.00
C1141  C     0.52967   0.87126   0.54854   0.00000  Uiso   1.00
C1142  C     0.47044   0.79532   0.95145   0.00000  Uiso   1.00
C1143  C     0.50015   0.83195   0.52329   0.00000  Uiso   1.00
C1144  C     0.49991   0.83464   0.97671   0.00000  Uiso   1.00
C1145  C     0.47196   0.78956   0.54440   0.00000  Uiso   1.00
C1146  C     0.52807   0.87705   0.95560   0.00000  Uiso   1.00
C1147  C     0.55683   0.91289   0.52772   0.00000  Uiso   1.00
C1148  C     0.44331   0.75366   0.97226   0.00000  Uiso   1.00
C1149  C     0.55297   0.91803   0.98251   0.00000  Uiso   1.00
C1150  C     0.44708   0.74857   0.51749   0.00000  Uiso   1.00
H1151  H     0.57763   0.94413   0.54714   0.00000  Uiso   1.00
H1152  H     0.42260   0.72240   0.95282   0.00000  Uiso   1.00
C1153  C     0.52282   0.98525   0.75060   0.00000  Uiso   1.00
C1154  C     0.47718   0.68143   0.74948   0.00000  Uiso   1.00
N1155  N     0.65011   0.81932   0.73783   0.00000  Uiso   1.00
N1156  N     0.34989   0.84735   0.76217   0.00000  Uiso   1.00
N1157  N     0.43616   0.75147   0.61496   0.00000  Uiso   1.00
O1158  O     0.45946   0.72525   0.64351   0.00000  Uiso   1.00
O1159  O     0.38257   0.74207   0.60743   0.00000  Uiso   1.00
N1160  N     0.56376   0.91522   0.88505   0.00000  Uiso   1.00
O1161  O     0.54043   0.94141   0.85651   0.00000  Uiso   1.00
O1162  O     0.61736   0.92467   0.89258   0.00000  Uiso   1.00
O1163  O     0.56205   0.90620   0.61936   0.00000  Uiso   1.00
C1164  C     0.52741   0.94626   0.63580   0.00000  Uiso   1.00
H1165  H     0.50926   0.96479   0.60843   0.00000  Uiso   1.00
H1166  H     0.55405   0.97599   0.65401   0.00000  Uiso   1.00
H1167  H     0.49224   0.93258   0.65915   0.00000  Uiso   1.00
O1168  O     0.43818   0.76028   0.88063   0.00000  Uiso   1.00
C1169  C     0.47305   0.72037   0.86420   0.00000  Uiso   1.00
H1170  H     0.44632   0.69002   0.84676   0.00000  Uiso   1.00
H1171  H     0.49239   0.70264   0.89148   0.00000  Uiso   1.00
H1172  H     0.50741   0.73408   0.84017   0.00000  Uiso   1.00
N1173  N     0.56715   0.96777   0.96646   0.00000  Uiso   1.00
O1174  O     0.52731   0.99256   0.95103   0.00000  Uiso   1.00
O1175  O     0.61430   0.99279   0.97711   0.00000  Uiso   1.00
N1176  N     0.43265   0.69888   0.53358   0.00000  Uiso   1.00
O1177  O     0.38545   0.67399   0.52288   0.00000  Uiso   1.00
O1178  O     0.47230   0.67398   0.54916   0.00000  Uiso   1.00
N1179  N     0.58019   0.67238   0.75600   0.00000  Uiso   1.00
O1180  O     0.61898   0.99817   0.72382   0.00000  Uiso   1.00
O1181  O     0.59523   0.69084   0.79503   0.00000  Uiso   1.00
N1182  N     0.41979   0.99430   0.74417   0.00000  Uiso   1.00
O1183  O     0.38109   0.66848   0.77642   0.00000  Uiso   1.00
O1184  O     0.40466   0.97587   0.70516   0.00000  Uiso   1.00
N1185  N     0.34186   0.79953   0.69819   0.00000  Uiso   1.00
O1186  O     0.33650   0.82265   0.66185   0.00000  Uiso   1.00
O1187  O     0.35411   0.75167   0.69522   0.00000  Uiso   1.00
N1188  N     0.65814   0.86713   0.80181   0.00000  Uiso   1.00
O1189  O     0.66353   0.84403   0.83815   0.00000  Uiso   1.00
O1190  O     0.64582   0.91498   0.80478   0.00000  Uiso   1.00
O1191  O     0.79642   0.91286   0.75298   0.00000  Uiso   1.00
O1192  O     0.87025   0.75381   0.74701   0.00000  Uiso   1.00
O1193  O     0.89280   0.90387   0.74518   0.00000  Uiso   1.00
O1194  O     0.77387   0.76279   0.75481   0.00000  Uiso   1.00
C1195  C     0.84817   0.93117   0.74889   0.00000  Uiso   1.00
C1196  C     0.81850   0.73549   0.75111   0.00000  Uiso   1.00
O1197  O     0.78514   0.83784   0.81997   0.00000  Uiso   1.00
O1198  O     0.88153   0.82883   0.68002   0.00000  Uiso   1.00
O1199  O     0.88152   0.82885   0.81217   0.00000  Uiso   1.00
O1200  O     0.78515   0.83781   0.68782   0.00000  Uiso   1.00
C1201  C     0.83438   0.83589   0.83636   0.00000  Uiso   1.00
C1202  C     0.83228   0.83078   0.66364   0.00000  Uiso   1.00
Zn1203 Zn    0.76898   0.83933   0.75521   0.00000  Uiso   1.00
Zn1204 Zn    0.89769   0.82734   0.74479   0.00000  Uiso   1.00
C1205  C     0.80276   0.79010   0.59149   0.00000  Uiso   1.00
C1206  C     0.86389   0.87655   0.90851   0.00000  Uiso   1.00
C1207  C     0.83180   0.83022   0.61579   0.00000  Uiso   1.00
C1208  C     0.83487   0.83642   0.88421   0.00000  Uiso   1.00
C1209  C     0.86282   0.86993   0.59473   0.00000  Uiso   1.00
C1210  C     0.80393   0.79667   0.90527   0.00000  Uiso   1.00
C1211  C     0.86300   0.87126   0.54854   0.00000  Uiso   1.00
C1212  C     0.80377   0.79532   0.95145   0.00000  Uiso   1.00
C1213  C     0.83349   0.83195   0.52329   0.00000  Uiso   1.00
C1214  C     0.83325   0.83464   0.97671   0.00000  Uiso   1.00
C1215  C     0.80529   0.78956   0.54440   0.00000  Uiso   1.00
C1216  C     0.86140   0.87705   0.95560   0.00000  Uiso   1.00
C1217  C     0.89017   0.91289   0.52772   0.00000  Uiso   1.00
C1218  C     0.77665   0.75366   0.97226   0.00000  Uiso   1.00
C1219  C     0.88630   0.91803   0.98251   0.00000  Uiso   1.00
C1220  C     0.78041   0.74857   0.51749   0.00000  Uiso   1.00
H1221  H     0.91096   0.94413   0.54714   0.00000  Uiso   1.00
H1222  H     0.75593   0.72240   0.95282   0.00000  Uiso   1.00
C1223  C     0.85615   0.98525   0.75060   0.00000  Uiso   1.00
C1224  C     0.81051   0.68143   0.74948   0.00000  Uiso   1.00
N1225  N     0.98344   0.81932   0.73783   0.00000  Uiso   1.00
N1226  N     0.68322   0.84735   0.76217   0.00000  Uiso   1.00
N1227  N     0.76950   0.75147   0.61496   0.00000  Uiso   1.00
O1228  O     0.79279   0.72525   0.64351   0.00000  Uiso   1.00
O1229  O     0.71590   0.74207   0.60743   0.00000  Uiso   1.00
N1230  N     0.89710   0.91522   0.88505   0.00000  Uiso   1.00
O1231  O     0.87376   0.94141   0.85651   0.00000  Uiso   1.00
O1232  O     0.95069   0.92467   0.89258   0.00000  Uiso   1.00
O1233  O     0.89538   0.90620   0.61936   0.00000  Uiso   1.00
C1234  C     0.86074   0.94626   0.63580   0.00000  Uiso   1.00
H1235  H     0.84260   0.96479   0.60843   0.00000  Uiso   1.00
H1236  H     0.88738   0.97599   0.65401   0.00000  Uiso   1.00
H1237  H     0.82557   0.93258   0.65915   0.00000  Uiso   1.00
O1238  O     0.77152   0.76028   0.88063   0.00000  Uiso   1.00
C1239  C     0.80638   0.72037   0.86420   0.00000  Uiso   1.00
H1240  H     0.77965   0.69002   0.84676   0.00000  Uiso   1.00
H1241  H     0.82572   0.70264   0.89148   0.00000  Uiso   1.00
H1242  H     0.84074   0.73408   0.84017   0.00000  Uiso   1.00
N1243  N     0.90049   0.96777   0.96646   0.00000  Uiso   1.00
O1244  O     0.86064   0.99256   0.95103   0.00000  Uiso   1.00
O1245  O     0.94764   0.99279   0.97711   0.00000  Uiso   1.00
N1246  N     0.76598   0.69888   0.53358   0.00000  Uiso   1.00
O1247  O     0.71878   0.67399   0.52288   0.00000  Uiso   1.00
O1248  O     0.80564   0.67398   0.54916   0.00000  Uiso   1.00
N1249  N     0.91353   0.67238   0.75600   0.00000  Uiso   1.00
O1250  O     0.95232   0.99817   0.72382   0.00000  Uiso   1.00
O1251  O     0.92856   0.69084   0.79503   0.00000  Uiso   1.00
N1252  N     0.75312   0.99430   0.74417   0.00000  Uiso   1.00
O1253  O     0.71442   0.66848   0.77642   0.00000  Uiso   1.00
O1254  O     0.73799   0.97587   0.70516   0.00000  Uiso   1.00
N1255  N     0.67519   0.79953   0.69819   0.00000  Uiso   1.00
O1256  O     0.66983   0.82265   0.66185   0.00000  Uiso   1.00
O1257  O     0.68745   0.75167   0.69522   0.00000  Uiso   1.00
N1258  N     0.99147   0.86713   0.80181   0.00000  Uiso   1.00
O1259  O     0.99686   0.84403   0.83815   0.00000  Uiso   1.00
O1260  O     0.97916   0.91498   0.80478   0.00000  Uiso   1.00
loop_
_geom_bond_atom_site_label_1
_geom_bond_atom_site_label_2
_geom_bond_distance
_geom_bond_site_symmetry_2
_ccdc_geom_bond_type
O1     C5      1.283   .     A
O1     Zn13    1.996   .     S
O2     Zn14    1.996   .     S
O2     C6      1.283   .     A
O3     C5      1.300   .     A
O3     Zn14    2.012   .     S
O4     C6      1.300   .     A
O4     Zn13    2.012   .     S
C5     C33     1.414   .     S
C6     C34     1.414   .     S
O7     C11     1.293   .     A
O7     Zn13    2.011   .     S
O8     Zn14    2.011   .     S
O8     C12     1.293   .     A
O9     Zn14    2.035   .     S
O9     C11     1.301   .     A
O10    C12     1.301   .     A
O10    Zn13    2.035   .     S
C11    C18     1.439   .     S
C12    C17     1.439   .     S
Zn13   N36     2.037   .     S
Zn14   N35     2.037   .     S
C15    C25     1.412   .     A
C15    C17     1.407   .     A
C15    N37     1.435   .     S
C16    N40     1.435   .     S
C16    C26     1.412   .     A
C16    C18     1.407   .     A
C17    C19     1.396   .     A
C18    C20     1.396   .     A
C19    C21     1.391   .     A
C19    O43     1.389   .     S
C20    C22     1.391   .     A
C20    O48     1.389   .     S
C21    C27     1.394   .     A
C21    C23     1.412   .     A
C22    C28     1.394   .     A
C22    C24     1.412   .     A
C23    C25     1.423   .     A
C23    C654    1.407   1_554 S
C24    C26     1.423   .     A
C24    C653    1.407   .     S
C25    C30     1.420   .     A
C26    C29     1.420   .     A
C27    H31     1.083   .     S
C27    C659    1.384   1_554 S
C28    H32     1.083   .     S
C28    C660    1.384   .     S
C29    N53     1.431   .     S
C29    C657    1.384   .     S
C30    N56     1.432   .     S
C30    C658    1.384   1_554 S
C33    C244    1.363   .     S
C33    N269    1.437   .     S
C34    C453    1.363   1_545 S
C34    N482    1.437   1_545 S
N35    N106    1.270   .     S
N35    N135    1.378   .     S
N36    N175    1.270   1_455 S
N36    N208    1.378   1_455 S
N37    O38     1.301   .     A
N37    O39     1.301   .     A
N40    O42     1.301   .     A
N40    O41     1.301   .     A
O43    C44     1.410   .     S
C44    H47     1.108   .     S
C44    H45     1.104   .     S
C44    H46     1.108   .     S
O48    C49     1.410   .     S
C49    H52     1.108   .     S
C49    H50     1.108   .     S
C49    H51     1.104   .     S
N53    O54     1.298   .     A
N53    O55     1.301   .     A
N56    O57     1.301   .     A
N56    O58     1.298   .     A
N59    O61     1.301   .     A
N59    C453    1.437   1_545 S
N59    O480    1.300   1_545 S
O60    N269    1.300   .     S
N62    O64     1.301   .     A
N62    C244    1.437   .     S
N62    O273    1.300   .     S
O63    N482    1.300   1_545 S
N65    O66     1.300   .     A
N65    O67     1.298   .     A
N65    N175    1.378   1_455 S
N68    O70     1.298   .     A
N68    O69     1.300   .     A
N68    N106    1.378   .     S
O71    C75     1.283   .     A
O71    Zn83    1.996   .     S
O72    Zn84    1.996   .     S
O72    C76     1.283   .     A
O73    C75     1.300   .     A
O73    Zn84    2.012   .     S
O74    C76     1.300   .     A
O74    Zn83    2.012   .     S
C75    C103    1.414   .     S
C76    C104    1.414   .     S
O77    C81     1.293   .     A
O77    Zn83    2.011   .     S
O78    Zn84    2.011   .     S
O78    C82     1.293   .     A
O79    Zn84    2.035   .     S
O79    C81     1.301   .     A
O80    C82     1.301   .     A
O80    Zn83    2.035   .     S
C81    C88     1.439   .     S
C82    C87     1.439   .     S
Zn83   N106    2.037   .     S
Zn84   N105    2.037   .     S
C85    C95     1.412   .     A
C85    C87     1.407   .     A
C85    N107    1.435   .     S
C86    N110    1.435   .     S
C86    C96     1.412   .     A
C86    C88     1.407   .     A
C87    C89     1.396   .     A
C88    C90     1.396   .     A
C89    C91     1.391   .     A
C89    O113    1.389   .     S
C90    C92     1.391   .     A
C90    O118    1.389   .     S
C91    C97     1.394   .     A
C91    C93     1.412   .     A
C92    C98     1.394   .     A
C92    C94     1.412   .     A
C93    C95     1.423   .     A
C93    C724    1.407   1_554 S
C94    C96     1.423   .     A
C94    C723    1.407   .     S
C95    C100    1.420   .     A
C96    C99     1.420   .     A
C97    H101    1.083   .     S
C97    C729    1.384   1_554 S
C98    H102    1.083   .     S
C98    C730    1.384   .     S
C99    N123    1.431   .     S
C99    C727    1.384   .     S
C100   N126    1.432   .     S
C100   C728    1.384   1_554 S
C103   C314    1.363   .     S
C103   N339    1.437   .     S
C104   C523    1.363   1_545 S
C104   N552    1.437   1_545 S
N105   N176    1.270   .     S
N105   N205    1.378   .     S
N107   O108    1.301   .     A
N107   O109    1.301   .     A
N110   O112    1.301   .     A
N110   O111    1.301   .     A
O113   C114    1.410   .     S
C114   H117    1.108   .     S
C114   H115    1.104   .     S
C114   H116    1.108   .     S
O118   C119    1.410   .     S
C119   H122    1.108   .     S
C119   H120    1.108   .     S
C119   H121    1.104   .     S
N123   O124    1.298   .     A
N123   O125    1.301   .     A
N126   O127    1.301   .     A
N126   O128    1.298   .     A
N129   O131    1.301   .     A
N129   C523    1.437   1_545 S
N129   O550    1.300   1_545 S
O130   N339    1.300   .     S
N132   O134    1.301   .     A
N132   C314    1.437   .     S
N132   O343    1.300   .     S
O133   N552    1.300   1_545 S
N135   O136    1.300   .     A
N135   O137    1.298   .     A
N138   O140    1.298   .     A
N138   O139    1.300   .     A
N138   N176    1.378   .     S
O141   C145    1.283   .     A
O141   Zn153   1.996   .     S
O142   Zn154   1.996   .     S
O142   C146    1.283   .     A
O143   C145    1.300   .     A
O143   Zn154   2.012   .     S
O144   C146    1.300   .     A
O144   Zn153   2.012   .     S
C145   C173    1.414   .     S
C146   C174    1.414   .     S
O147   C151    1.293   .     A
O147   Zn153   2.011   .     S
O148   Zn154   2.011   .     S
O148   C152    1.293   .     A
O149   Zn154   2.035   .     S
O149   C151    1.301   .     A
O150   C152    1.301   .     A
O150   Zn153   2.035   .     S
C151   C158    1.439   .     S
C152   C157    1.439   .     S
Zn153  N176    2.037   .     S
Zn154  N175    2.037   .     S
C155   C165    1.412   .     A
C155   C157    1.407   .     A
C155   N177    1.435   .     S
C156   N180    1.435   .     S
C156   C166    1.412   .     A
C156   C158    1.407   .     A
C157   C159    1.396   .     A
C158   C160    1.396   .     A
C159   C161    1.391   .     A
C159   O183    1.389   .     S
C160   C162    1.391   .     A
C160   O188    1.389   .     S
C161   C167    1.394   .     A
C161   C163    1.412   .     A
C162   C168    1.394   .     A
C162   C164    1.412   .     A
C163   C165    1.423   .     A
C163   C794    1.407   1_554 S
C164   C166    1.423   .     A
C164   C793    1.407   .     S
C165   C170    1.420   .     A
C166   C169    1.420   .     A
C167   H171    1.083   .     S
C167   C799    1.384   1_554 S
C168   H172    1.083   .     S
C168   C800    1.384   .     S
C169   N193    1.431   .     S
C169   C797    1.384   .     S
C170   N196    1.432   .     S
C170   C798    1.384   1_554 S
C173   C384    1.363   .     S
C173   N409    1.437   .     S
C174   C593    1.363   1_545 S
C174   N622    1.437   1_545 S
N175   N36     1.270   1_655 S
N175   N65     1.378   1_655 S
N177   O178    1.301   .     A
N177   O179    1.301   .     A
N180   O182    1.301   .     A
N180   O181    1.301   .     A
O183   C184    1.410   .     S
C184   H187    1.108   .     S
C184   H185    1.104   .     S
C184   H186    1.108   .     S
O188   C189    1.410   .     S
C189   H192    1.108   .     S
C189   H190    1.108   .     S
C189   H191    1.104   .     S
N193   O194    1.298   .     A
N193   O195    1.301   .     A
N196   O197    1.301   .     A
N196   O198    1.298   .     A
N199   O201    1.301   .     A
N199   C593    1.437   1_545 S
N199   O620    1.300   1_545 S
O200   N409    1.300   .     S
N202   O204    1.301   .     A
N202   C384    1.437   .     S
N202   O413    1.300   .     S
O203   N622    1.300   1_545 S
N205   O206    1.300   .     A
N205   O207    1.298   .     A
N208   O210    1.298   .     A
N208   O209    1.300   .     A
N208   N36     1.378   1_655 S
O211   C215    1.283   .     A
O211   Zn223   1.996   .     S
O212   Zn224   1.996   .     S
O212   C216    1.283   .     A
O213   C215    1.300   .     A
O213   Zn224   2.012   .     S
O214   C216    1.300   .     A
O214   Zn223   2.012   .     S
C215   C243    1.414   .     S
C216   C244    1.414   .     S
O217   C221    1.293   .     A
O217   Zn223   2.011   .     S
O218   Zn224   2.011   .     S
O218   C222    1.293   .     A
O219   Zn224   2.035   .     S
O219   C221    1.301   .     A
O220   C222    1.301   .     A
O220   Zn223   2.035   .     S
C221   C228    1.439   .     S
C222   C227    1.439   .     S
Zn223  N246    2.037   .     S
Zn224  N245    2.037   .     S
C225   C235    1.412   .     A
C225   C227    1.407   .     A
C225   N247    1.435   .     S
C226   N250    1.435   .     S
C226   C236    1.412   .     A
C226   C228    1.407   .     A
C227   C229    1.396   .     A
C228   C230    1.396   .     A
C229   C231    1.391   .     A
C229   O253    1.389   .     S
C230   C232    1.391   .     A
C230   O258    1.389   .     S
C231   C237    1.394   .     A
C231   C233    1.412   .     A
C232   C238    1.394   .     A
C232   C234    1.412   .     A
C233   C235    1.423   .     A
C233   C864    1.407   1_554 S
C234   C236    1.423   .     A
C234   C863    1.407   .     S
C235   C240    1.420   .     A
C236   C239    1.420   .     A
C237   H241    1.083   .     S
C237   C869    1.384   1_554 S
C238   H242    1.083   .     S
C238   C870    1.384   .     S
C239   N263    1.431   .     S
C239   C867    1.384   .     S
C240   N266    1.432   .     S
C240   C868    1.384   1_554 S
C243   C454    1.363   .     S
C243   N479    1.437   .     S
N245   N316    1.270   .     S
N245   N345    1.378   .     S
N246   N385    1.270   1_455 S
N246   N418    1.378   1_455 S
N247   O248    1.301   .     A
N247   O249    1.301   .     A
N250   O252    1.301   .     A
N250   O251    1.301   .     A
O253   C254    1.410   .     S
C254   H257    1.108   .     S
C254   H255    1.104   .     S
C254   H256    1.108   .     S
O258   C259    1.410   .     S
C259   H262    1.108   .     S
C259   H260    1.108   .     S
C259   H261    1.104   .     S
N263   O264    1.298   .     A
N263   O265    1.301   .     A
N266   O267    1.301   .     A
N266   O268    1.298   .     A
N269   O271    1.301   .     A
O270   N479    1.300   .     S
N272   O274    1.301   .     A
N272   C454    1.437   .     S
N272   O483    1.300   .     S
N275   O276    1.300   .     A
N275   O277    1.298   .     A
N275   N385    1.378   1_455 S
N278   O280    1.298   .     A
N278   O279    1.300   .     A
N278   N316    1.378   .     S
O281   C285    1.283   .     A
O281   Zn293   1.996   .     S
O282   Zn294   1.996   .     S
O282   C286    1.283   .     A
O283   C285    1.300   .     A
O283   Zn294   2.012   .     S
O284   C286    1.300   .     A
O284   Zn293   2.012   .     S
C285   C313    1.414   .     S
C286   C314    1.414   .     S
O287   C291    1.293   .     A
O287   Zn293   2.011   .     S
O288   Zn294   2.011   .     S
O288   C292    1.293   .     A
O289   Zn294   2.035   .     S
O289   C291    1.301   .     A
O290   C292    1.301   .     A
O290   Zn293   2.035   .     S
C291   C298    1.439   .     S
C292   C297    1.439   .     S
Zn293  N316    2.037   .     S
Zn294  N315    2.037   .     S
C295   C305    1.412   .     A
C295   C297    1.407   .     A
C295   N317    1.435   .     S
C296   N320    1.435   .     S
C296   C306    1.412   .     A
C296   C298    1.407   .     A
C297   C299    1.396   .     A
C298   C300    1.396   .     A
C299   C301    1.391   .     A
C299   O323    1.389   .     S
C300   C302    1.391   .     A
C300   O328    1.389   .     S
C301   C307    1.394   .     A
C301   C303    1.412   .     A
C302   C308    1.394   .     A
C302   C304    1.412   .     A
C303   C305    1.423   .     A
C303   C934    1.407   1_554 S
C304   C306    1.423   .     A
C304   C933    1.407   .     S
C305   C310    1.420   .     A
C306   C309    1.420   .     A
C307   H311    1.083   .     S
C307   C939    1.384   1_554 S
C308   H312    1.083   .     S
C308   C940    1.384   .     S
C309   N333    1.431   .     S
C309   C937    1.384   .     S
C310   N336    1.432   .     S
C310   C938    1.384   1_554 S
C313   C524    1.363   .     S
C313   N549    1.437   .     S
N315   N386    1.270   .     S
N315   N415    1.378   .     S
N317   O318    1.301   .     A
N317   O319    1.301   .     A
N320   O322    1.301   .     A
N320   O321    1.301   .     A
O323   C324    1.410   .     S
C324   H327    1.108   .     S
C324   H325    1.104   .     S
C324   H326    1.108   .     S
O328   C329    1.410   .     S
C329   H332    1.108   .     S
C329   H330    1.108   .     S
C329   H331    1.104   .     S
N333   O334    1.298   .     A
N333   O335    1.301   .     A
N336   O337    1.301   .     A
N336   O338    1.298   .     A
N339   O341    1.301   .     A
O340   N549    1.300   .     S
N342   O344    1.301   .     A
N342   C524    1.437   .     S
N342   O553    1.300   .     S
N345   O346    1.300   .     A
N345   O347    1.298   .     A
N348   O350    1.298   .     A
N348   O349    1.300   .     A
N348   N386    1.378   .     S
O351   C355    1.283   .     A
O351   Zn363   1.996   .     S
O352   Zn364   1.996   .     S
O352   C356    1.283   .     A
O353   C355    1.300   .     A
O353   Zn364   2.012   .     S
O354   C356    1.300   .     A
O354   Zn363   2.012   .     S
C355   C383    1.414   .     S
C356   C384    1.414   .     S
O357   C361    1.293   .     A
O357   Zn363   2.011   .     S
O358   Zn364   2.011   .     S
O358   C362    1.293   .     A
O359   Zn364   2.035   .     S
O359   C361    1.301   .     A
O360   C362    1.301   .     A
O360   Zn363   2.035   .     S
C361   C368    1.439   .     S
C362   C367    1.439   .     S
Zn363  N386    2.037   .     S
Zn364  N385    2.037   .     S
C365   C375    1.412   .     A
C365   C367    1.407   .     A
C365   N387    1.435   .     S
C366   N390    1.435   .     S
C366   C376    1.412   .     A
C366   C368    1.407   .     A
C367   C369    1.396   .     A
C368   C370    1.396   .     A
C369   C371    1.391   .     A
C369   O393    1.389   .     S
C370   C372    1.391   .     A
C370   O398    1.389   .     S
C371   C377    1.394   .     A
C371   C373    1.412   .     A
C372   C378    1.394   .     A
C372   C374    1.412   .     A
C373   C375    1.423   .     A
C373   C1004   1.407   1_554 S
C374   C376    1.423   .     A
C374   C1003   1.407   .     S
C375   C380    1.420   .     A
C376   C379    1.420   .     A
C377   H381    1.083   .     S
C377   C1009   1.384   1_554 S
C378   H382    1.083   .     S
C378   C1010   1.384   .     S
C379   N403    1.431   .     S
C379   C1007   1.384   .     S
C380   N406    1.432   .     S
C380   C1008   1.384   1_554 S
C383   C594    1.363   .     S
C383   N619    1.437   .     S
N385   N246    1.270   1_655 S
N385   N275    1.378   1_655 S
N387   O388    1.301   .     A
N387   O389    1.301   .     A
N390   O392    1.301   .     A
N390   O391    1.301   .     A
O393   C394    1.410   .     S
C394   H397    1.108   .     S
C394   H395    1.104   .     S
C394   H396    1.108   .     S
O398   C399    1.410   .     S
C399   H402    1.108   .     S
C399   H400    1.108   .     S
C399   H401    1.104   .     S
N403   O404    1.298   .     A
N403   O405    1.301   .     A
N406   O407    1.301   .     A
N406   O408    1.298   .     A
N409   O411    1.301   .     A
O410   N619    1.300   .     S
N412   O414    1.301   .     A
N412   C594    1.437   .     S
N412   O623    1.300   .     S
N415   O416    1.300   .     A
N415   O417    1.298   .     A
N418   O420    1.298   .     A
N418   O419    1.300   .     A
N418   N246    1.378   1_655 S
O421   C425    1.283   .     A
O421   Zn433   1.996   .     S
O422   Zn434   1.996   .     S
O422   C426    1.283   .     A
O423   C425    1.300   .     A
O423   Zn434   2.012   .     S
O424   C426    1.300   .     A
O424   Zn433   2.012   .     S
C425   C453    1.414   .     S
C426   C454    1.414   .     S
O427   C431    1.293   .     A
O427   Zn433   2.011   .     S
O428   Zn434   2.011   .     S
O428   C432    1.293   .     A
O429   Zn434   2.035   .     S
O429   C431    1.301   .     A
O430   C432    1.301   .     A
O430   Zn433   2.035   .     S
C431   C438    1.439   .     S
C432   C437    1.439   .     S
Zn433  N456    2.037   .     S
Zn434  N455    2.037   .     S
C435   C445    1.412   .     A
C435   C437    1.407   .     A
C435   N457    1.435   .     S
C436   N460    1.435   .     S
C436   C446    1.412   .     A
C436   C438    1.407   .     A
C437   C439    1.396   .     A
C438   C440    1.396   .     A
C439   C441    1.391   .     A
C439   O463    1.389   .     S
C440   C442    1.391   .     A
C440   O468    1.389   .     S
C441   C447    1.394   .     A
C441   C443    1.412   .     A
C442   C448    1.394   .     A
C442   C444    1.412   .     A
C443   C445    1.423   .     A
C443   C1074   1.407   1_554 S
C444   C446    1.423   .     A
C444   C1073   1.407   .     S
C445   C450    1.420   .     A
C446   C449    1.420   .     A
C447   H451    1.083   .     S
C447   C1079   1.384   1_554 S
C448   H452    1.083   .     S
C448   C1080   1.384   .     S
C449   N473    1.431   .     S
C449   C1077   1.384   .     S
C450   N476    1.432   .     S
C450   C1078   1.384   1_554 S
C453   C34     1.363   1_565 S
C453   N59     1.437   1_565 S
N455   N526    1.270   .     S
N455   N555    1.378   .     S
N456   N595    1.270   1_455 S
N456   N628    1.378   1_455 S
N457   O458    1.301   .     A
N457   O459    1.301   .     A
N460   O462    1.301   .     A
N460   O461    1.301   .     A
O463   C464    1.410   .     S
C464   H467    1.108   .     S
C464   H465    1.104   .     S
C464   H466    1.108   .     S
O468   C469    1.410   .     S
C469   H472    1.108   .     S
C469   H470    1.108   .     S
C469   H471    1.104   .     S
N473   O474    1.298   .     A
N473   O475    1.301   .     A
N476   O477    1.301   .     A
N476   O478    1.298   .     A
N479   O481    1.301   .     A
O480   N59     1.300   1_565 S
N482   O484    1.301   .     A
N482   C34     1.437   1_565 S
N482   O63     1.300   1_565 S
N485   O486    1.300   .     A
N485   O487    1.298   .     A
N485   N595    1.378   1_455 S
N488   O490    1.298   .     A
N488   O489    1.300   .     A
N488   N526    1.378   .     S
O491   C495    1.283   .     A
O491   Zn503   1.996   .     S
O492   Zn504   1.996   .     S
O492   C496    1.283   .     A
O493   C495    1.300   .     A
O493   Zn504   2.012   .     S
O494   C496    1.300   .     A
O494   Zn503   2.012   .     S
C495   C523    1.414   .     S
C496   C524    1.414   .     S
O497   C501    1.293   .     A
O497   Zn503   2.011   .     S
O498   Zn504   2.011   .     S
O498   C502    1.293   .     A
O499   Zn504   2.035   .     S
O499   C501    1.301   .     A
O500   C502    1.301   .     A
O500   Zn503   2.035   .     S
C501   C508    1.439   .     S
C502   C507    1.439   .     S
Zn503  N526    2.037   .     S
Zn504  N525    2.037   .     S
C505   C515    1.412   .     A
C505   C507    1.407   .     A
C505   N527    1.435   .     S
C506   N530    1.435   .     S
C506   C516    1.412   .     A
C506   C508    1.407   .     A
C507   C509    1.396   .     A
C508   C510    1.396   .     A
C509   C511    1.391   .     A
C509   O533    1.389   .     S
C510   C512    1.391   .     A
C510   O538    1.389   .     S
C511   C517    1.394   .     A
C511   C513    1.412   .     A
C512   C518    1.394   .     A
C512   C514    1.412   .     A
C513   C515    1.423   .     A
C513   C1144   1.407   1_554 S
C514   C516    1.423   .     A
C514   C1143   1.407   .     S
C515   C520    1.420   .     A
C516   C519    1.420   .     A
C517   H521    1.083   .     S
C517   C1149   1.384   1_554 S
C518   H522    1.083   .     S
C518   C1150   1.384   .     S
C519   N543    1.431   .     S
C519   C1147   1.384   .     S
C520   N546    1.432   .     S
C520   C1148   1.384   1_554 S
C523   C104    1.363   1_565 S
C523   N129    1.437   1_565 S
N525   N596    1.270   .     S
N525   N625    1.378   .     S
N527   O528    1.301   .     A
N527   O529    1.301   .     A
N530   O532    1.301   .     A
N530   O531    1.301   .     A
O533   C534    1.410   .     S
C534   H537    1.108   .     S
C534   H535    1.104   .     S
C534   H536    1.108   .     S
O538   C539    1.410   .     S
C539   H542    1.108   .     S
C539   H540    1.108   .     S
C539   H541    1.104   .     S
N543   O544    1.298   .     A
N543   O545    1.301   .     A
N546   O547    1.301   .     A
N546   O548    1.298   .     A
N549   O551    1.301   .     A
O550   N129    1.300   1_565 S
N552   O554    1.301   .     A
N552   C104    1.437   1_565 S
N552   O133    1.300   1_565 S
N555   O556    1.300   .     A
N555   O557    1.298   .     A
N558   O560    1.298   .     A
N558   O559    1.300   .     A
N558   N596    1.378   .     S
O561   C565    1.283   .     A
O561   Zn573   1.996   .     S
O562   Zn574   1.996   .     S
O562   C566    1.283   .     A
O563   C565    1.300   .     A
O563   Zn574   2.012   .     S
O564   C566    1.300   .     A
O564   Zn573   2.012   .     S
C565   C593    1.414   .     S
C566   C594    1.414   .     S
O567   C571    1.293   .     A
O567   Zn573   2.011   .     S
O568   Zn574   2.011   .     S
O568   C572    1.293   .     A
O569   Zn574   2.035   .     S
O569   C571    1.301   .     A
O570   C572    1.301   .     A
O570   Zn573   2.035   .     S
C571   C578    1.439   .     S
C572   C577    1.439   .     S
Zn573  N596    2.037   .     S
Zn574  N595    2.037   .     S
C575   C585    1.412   .     A
C575   C577    1.407   .     A
C575   N597    1.435   .     S
C576   N600    1.435   .     S
C576   C586    1.412   .     A
C576   C578    1.407   .     A
C577   C579    1.396   .     A
C578   C580    1.396   .     A
C579   C581    1.391   .     A
C579   O603    1.389   .     S
C580   C582    1.391   .     A
C580   O608    1.389   .     S
C581   C587    1.394   .     A
C581   C583    1.412   .     A
C582   C588    1.394   .     A
C582   C584    1.412   .     A
C583   C585    1.423   .     A
C583   C1214   1.407   1_554 S
C584   C586    1.423   .     A
C584   C1213   1.407   .     S
C585   C590    1.420   .     A
C586   C589    1.420   .     A
C587   H591    1.083   .     S
C587   C1219   1.384   1_554 S
C588   H592    1.083   .     S
C588   C1220   1.384   .     S
C589   N613    1.431   .     S
C589   C1217   1.384   .     S
C590   N616    1.432   .     S
C590   C1218   1.384   1_554 S
C593   C174    1.363   1_565 S
C593   N199    1.437   1_565 S
N595   N456    1.270   1_655 S
N595   N485    1.378   1_655 S
N597   O598    1.301   .     A
N597   O599    1.301   .     A
N600   O602    1.301   .     A
N600   O601    1.301   .     A
O603   C604    1.410   .     S
C604   H607    1.108   .     S
C604   H605    1.104   .     S
C604   H606    1.108   .     S
O608   C609    1.410   .     S
C609   H612    1.108   .     S
C609   H610    1.108   .     S
C609   H611    1.104   .     S
N613   O614    1.298   .     A
N613   O615    1.301   .     A
N616   O617    1.301   .     A
N616   O618    1.298   .     A
N619   O621    1.301   .     A
O620   N199    1.300   1_565 S
N622   O624    1.301   .     A
N622   C174    1.437   1_565 S
N622   O203    1.300   1_565 S
N625   O626    1.300   .     A
N625   O627    1.298   .     A
N628   O630    1.298   .     A
N628   O629    1.300   .     A
N628   N456    1.378   1_655 S
O631   C635    1.283   .     A
O631   Zn643   1.996   .     S
O632   Zn644   1.996   .     S
O632   C636    1.283   .     A
O633   C635    1.300   .     A
O633   Zn644   2.012   .     S
O634   C636    1.300   .     A
O634   Zn643   2.012   .     S
C635   C663    1.414   .     S
C636   C664    1.414   .     S
O637   C641    1.293   .     A
O637   Zn643   2.011   .     S
O638   Zn644   2.011   .     S
O638   C642    1.293   .     A
O639   Zn644   2.035   .     S
O639   C641    1.301   .     A
O640   C642    1.301   .     A
O640   Zn643   2.035   .     S
C641   C648    1.439   .     S
C642   C647    1.439   .     S
Zn643  N666    2.037   .     S
Zn644  N665    2.037   .     S
C645   C655    1.412   .     A
C645   C647    1.407   .     A
C645   N667    1.435   .     S
C646   N670    1.435   .     S
C646   C656    1.412   .     A
C646   C648    1.407   .     A
C647   C649    1.396   .     A
C648   C650    1.396   .     A
C649   C651    1.391   .     A
C649   O673    1.389   .     S
C650   C652    1.391   .     A
C650   O678    1.389   .     S
C651   C657    1.394   .     A
C651   C653    1.412   .     A
C652   C658    1.394   .     A
C652   C654    1.412   .     A
C653   C655    1.423   .     A
C654   C656    1.423   .     A
C654   C23     1.407   1_556 S
C655   C660    1.420   .     A
C656   C659    1.420   .     A
C657   H661    1.083   .     S
C658   H662    1.083   .     S
C658   C30     1.384   1_556 S
C659   N683    1.431   .     S
C659   C27     1.384   1_556 S
C660   N686    1.432   .     S
C663   C874    1.363   .     S
C663   N899    1.437   .     S
C664   C1083   1.363   1_545 S
C664   N1112   1.437   1_545 S
N665   N736    1.270   .     S
N665   N765    1.378   .     S
N666   N805    1.270   1_455 S
N666   N838    1.378   1_455 S
N667   O668    1.301   .     A
N667   O669    1.301   .     A
N670   O672    1.301   .     A
N670   O671    1.301   .     A
O673   C674    1.410   .     S
C674   H677    1.108   .     S
C674   H675    1.104   .     S
C674   H676    1.108   .     S
O678   C679    1.410   .     S
C679   H682    1.108   .     S
C679   H680    1.108   .     S
C679   H681    1.104   .     S
N683   O684    1.298   .     A
N683   O685    1.301   .     A
N686   O687    1.301   .     A
N686   O688    1.298   .     A
N689   O691    1.301   .     A
N689   C1083   1.437   1_545 S
N689   O1110   1.300   1_545 S
O690   N899    1.300   .     S
N692   O694    1.301   .     A
N692   C874    1.437   .     S
N692   O903    1.300   .     S
O693   N1112   1.300   1_545 S
N695   O696    1.300   .     A
N695   O697    1.298   .     A
N695   N805    1.378   1_455 S
N698   O700    1.298   .     A
N698   O699    1.300   .     A
N698   N736    1.378   .     S
O701   C705    1.283   .     A
O701   Zn713   1.996   .     S
O702   Zn714   1.996   .     S
O702   C706    1.283   .     A
O703   C705    1.300   .     A
O703   Zn714   2.012   .     S
O704   C706    1.300   .     A
O704   Zn713   2.012   .     S
C705   C733    1.414   .     S
C706   C734    1.414   .     S
O707   C711    1.293   .     A
O707   Zn713   2.011   .     S
O708   Zn714   2.011   .     S
O708   C712    1.293   .     A
O709   Zn714   2.035   .     S
O709   C711    1.301   .     A
O710   C712    1.301   .     A
O710   Zn713   2.035   .     S
C711   C718    1.439   .     S
C712   C717    1.439   .     S
Zn713  N736    2.037   .     S
Zn714  N735    2.037   .     S
C715   C725    1.412   .     A
C715   C717    1.407   .     A
C715   N737    1.435   .     S
C716   N740    1.435   .     S
C716   C726    1.412   .     A
C716   C718    1.407   .     A
C717   C719    1.396   .     A
C718   C720    1.396   .     A
C719   C721    1.391   .     A
C719   O743    1.389   .     S
C720   C722    1.391   .     A
C720   O748    1.389   .     S
C721   C727    1.394   .     A
C721   C723    1.412   .     A
C722   C728    1.394   .     A
C722   C724    1.412   .     A
C723   C725    1.423   .     A
C724   C726    1.423   .     A
C724   C93     1.407   1_556 S
C725   C730    1.420   .     A
C726   C729    1.420   .     A
C727   H731    1.083   .     S
C728   H732    1.083   .     S
C728   C100    1.384   1_556 S
C729   N753    1.431   .     S
C729   C97     1.384   1_556 S
C730   N756    1.432   .     S
C733   C944    1.363   .     S
C733   N969    1.437   .     S
C734   C1153   1.363   1_545 S
C734   N1182   1.437   1_545 S
N735   N806    1.270   .     S
N735   N835    1.378   .     S
N737   O738    1.301   .     A
N737   O739    1.301   .     A
N740   O742    1.301   .     A
N740   O741    1.301   .     A
O743   C744    1.410   .     S
C744   H747    1.108   .     S
C744   H745    1.104   .     S
C744   H746    1.108   .     S
O748   C749    1.410   .     S
C749   H752    1.108   .     S
C749   H750    1.108   .     S
C749   H751    1.104   .     S
N753   O754    1.298   .     A
N753   O755    1.301   .     A
N756   O757    1.301   .     A
N756   O758    1.298   .     A
N759   O761    1.301   .     A
N759   C1153   1.437   1_545 S
N759   O1180   1.300   1_545 S
O760   N969    1.300   .     S
N762   O764    1.301   .     A
N762   C944    1.437   .     S
N762   O973    1.300   .     S
O763   N1182   1.300   1_545 S
N765   O766    1.300   .     A
N765   O767    1.298   .     A
N768   O770    1.298   .     A
N768   O769    1.300   .     A
N768   N806    1.378   .     S
O771   C775    1.283   .     A
O771   Zn783   1.996   .     S
O772   Zn784   1.996   .     S
O772   C776    1.283   .     A
O773   C775    1.300   .     A
O773   Zn784   2.012   .     S
O774   C776    1.300   .     A
O774   Zn783   2.012   .     S
C775   C803    1.414   .     S
C776   C804    1.414   .     S
O777   C781    1.293   .     A
O777   Zn783   2.011   .     S
O778   Zn784   2.011   .     S
O778   C782    1.293   .     A
O779   Zn784   2.035   .     S
O779   C781    1.301   .     A
O780   C782    1.301   .     A
O780   Zn783   2.035   .     S
C781   C788    1.439   .     S
C782   C787    1.439   .     S
Zn783  N806    2.037   .     S
Zn784  N805    2.037   .     S
C785   C795    1.412   .     A
C785   C787    1.407   .     A
C785   N807    1.435   .     S
C786   N810    1.435   .     S
C786   C796    1.412   .     A
C786   C788    1.407   .     A
C787   C789    1.396   .     A
C788   C790    1.396   .     A
C789   C791    1.391   .     A
C789   O813    1.389   .     S
C790   C792    1.391   .     A
C790   O818    1.389   .     S
C791   C797    1.394   .     A
C791   C793    1.412   .     A
C792   C798    1.394   .     A
C792   C794    1.412   .     A
C793   C795    1.423   .     A
C794   C796    1.423   .     A
C794   C163    1.407   1_556 S
C795   C800    1.420   .     A
C796   C799    1.420   .     A
C797   H801    1.083   .     S
C798   H802    1.083   .     S
C798   C170    1.384   1_556 S
C799   N823    1.431   .     S
C799   C167    1.384   1_556 S
C800   N826    1.432   .     S
C803   C1014   1.363   .     S
C803   N1039   1.437   .     S
C804   C1223   1.363   1_545 S
C804   N1252   1.437   1_545 S
N805   N666    1.270   1_655 S
N805   N695    1.378   1_655 S
N807   O808    1.301   .     A
N807   O809    1.301   .     A
N810   O812    1.301   .     A
N810   O811    1.301   .     A
O813   C814    1.410   .     S
C814   H817    1.108   .     S
C814   H815    1.104   .     S
C814   H816    1.108   .     S
O818   C819    1.410   .     S
C819   H822    1.108   .     S
C819   H820    1.108   .     S
C819   H821    1.104   .     S
N823   O824    1.298   .     A
N823   O825    1.301   .     A
N826   O827    1.301   .     A
N826   O828    1.298   .     A
N829   O831    1.301   .     A
N829   C1223   1.437   1_545 S
N829   O1250   1.300   1_545 S
O830   N1039   1.300   .     S
N832   O834    1.301   .     A
N832   C1014   1.437   .     S
N832   O1043   1.300   .     S
O833   N1252   1.300   1_545 S
N835   O836    1.300   .     A
N835   O837    1.298   .     A
N838   O840    1.298   .     A
N838   O839    1.300   .     A
N838   N666    1.378   1_655 S
O841   C845    1.283   .     A
O841   Zn853   1.996   .     S
O842   Zn854   1.996   .     S
O842   C846    1.283   .     A
O843   C845    1.300   .     A
O843   Zn854   2.012   .     S
O844   C846    1.300   .     A
O844   Zn853   2.012   .     S
C845   C873    1.414   .     S
C846   C874    1.414   .     S
O847   C851    1.293   .     A
O847   Zn853   2.011   .     S
O848   Zn854   2.011   .     S
O848   C852    1.293   .     A
O849   Zn854   2.035   .     S
O849   C851    1.301   .     A
O850   C852    1.301   .     A
O850   Zn853   2.035   .     S
C851   C858    1.439   .     S
C852   C857    1.439   .     S
Zn853  N876    2.037   .     S
Zn854  N875    2.037   .     S
C855   C865    1.412   .     A
C855   C857    1.407   .     A
C855   N877    1.435   .     S
C856   N880    1.435   .     S
C856   C866    1.412   .     A
C856   C858    1.407   .     A
C857   C859    1.396   .     A
C858   C860    1.396   .     A
C859   C861    1.391   .     A
C859   O883    1.389   .     S
C860   C862    1.391   .     A
C860   O888    1.389   .     S
C861   C867    1.394   .     A
C861   C863    1.412   .     A
C862   C868    1.394   .     A
C862   C864    1.412   .     A
C863   C865    1.423   .     A
C864   C866    1.423   .     A
C864   C233    1.407   1_556 S
C865   C870    1.420   .     A
C866   C869    1.420   .     A
C867   H871    1.083   .     S
C868   H872    1.083   .     S
C868   C240    1.384   1_556 S
C869   N893    1.431   .     S
C869   C237    1.384   1_556 S
C870   N896    1.432   .     S
C873   C1084   1.363   .     S
C873   N1109   1.437   .     S
N875   N946    1.270   .     S
N875   N975    1.378   .     S
N876   N1015   1.270   1_455 S
N876   N1048   1.378   1_455 S
N877   O878    1.301   .     A
N877   O879    1.301   .     A
N880   O882    1.301   .     A
N880   O881    1.301   .     A
O883   C884    1.410   .     S
C884   H887    1.108   .     S
C884   H885    1.104   .     S
C884   H886    1.108   .     S
O888   C889    1.410   .     S
C889   H892    1.108   .     S
C889   H890    1.108   .     S
C889   H891    1.104   .     S
N893   O894    1.298   .     A
N893   O895    1.301   .     A
N896   O897    1.301   .     A
N896   O898    1.298   .     A
N899   O901    1.301   .     A
O900   N1109   1.300   .     S
N902   O904    1.301   .     A
N902   C1084   1.437   .     S
N902   O1113   1.300   .     S
N905   O906    1.300   .     A
N905   O907    1.298   .     A
N905   N1015   1.378   1_455 S
N908   O910    1.298   .     A
N908   O909    1.300   .     A
N908   N946    1.378   .     S
O911   C915    1.283   .     A
O911   Zn923   1.996   .     S
O912   Zn924   1.996   .     S
O912   C916    1.283   .     A
O913   C915    1.300   .     A
O913   Zn924   2.012   .     S
O914   C916    1.300   .     A
O914   Zn923   2.012   .     S
C915   C943    1.414   .     S
C916   C944    1.414   .     S
O917   C921    1.293   .     A
O917   Zn923   2.011   .     S
O918   Zn924   2.011   .     S
O918   C922    1.293   .     A
O919   Zn924   2.035   .     S
O919   C921    1.301   .     A
O920   C922    1.301   .     A
O920   Zn923   2.035   .     S
C921   C928    1.439   .     S
C922   C927    1.439   .     S
Zn923  N946    2.037   .     S
Zn924  N945    2.037   .     S
C925   C935    1.412   .     A
C925   C927    1.407   .     A
C925   N947    1.435   .     S
C926   N950    1.435   .     S
C926   C936    1.412   .     A
C926   C928    1.407   .     A
C927   C929    1.396   .     A
C928   C930    1.396   .     A
C929   C931    1.391   .     A
C929   O953    1.389   .     S
C930   C932    1.391   .     A
C930   O958    1.389   .     S
C931   C937    1.394   .     A
C931   C933    1.412   .     A
C932   C938    1.394   .     A
C932   C934    1.412   .     A
C933   C935    1.423   .     A
C934   C936    1.423   .     A
C934   C303    1.407   1_556 S
C935   C940    1.420   .     A
C936   C939    1.420   .     A
C937   H941    1.083   .     S
C938   H942    1.083   .     S
C938   C310    1.384   1_556 S
C939   N963    1.431   .     S
C939   C307    1.384   1_556 S
C940   N966    1.432   .     S
C943   C1154   1.363   .     S
C943   N1179   1.437   .     S
N945   N1016   1.270   .     S
N945   N1045   1.378   .     S
N947   O948    1.301   .     A
N947   O949    1.301   .     A
N950   O952    1.301   .     A
N950   O951    1.301   .     A
O953   C954    1.410   .     S
C954   H957    1.108   .     S
C954   H955    1.104   .     S
C954   H956    1.108   .     S
O958   C959    1.410   .     S
C959   H962    1.108   .     S
C959   H960    1.108   .     S
C959   H961    1.104   .     S
N963   O964    1.298   .     A
N963   O965    1.301   .     A
N966   O967    1.301   .     A
N966   O968    1.298   .     A
N969   O971    1.301   .     A
O970   N1179   1.300   .     S
N972   O974    1.301   .     A
N972   C1154   1.437   .     S
N972   O1183   1.300   .     S
N975   O976    1.300   .     A
N975   O977    1.298   .     A
N978   O980    1.298   .     A
N978   O979    1.300   .     A
N978   N1016   1.378   .     S
O981   C985    1.283   .     A
O981   Zn993   1.996   .     S
O982   Zn994   1.996   .     S
O982   C986    1.283   .     A
O983   C985    1.300   .     A
O983   Zn994   2.012   .     S
O984   C986    1.300   .     A
O984   Zn993   2.012   .     S
C985   C1013   1.414   .     S
C986   C1014   1.414   .     S
O987   C991    1.293   .     A
O987   Zn993   2.011   .     S
O988   Zn994   2.011   .     S
O988   C992    1.293   .     A
O989   Zn994   2.035   .     S
O989   C991    1.301   .     A
O990   C992    1.301   .     A
O990   Zn993   2.035   .     S
C991   C998    1.439   .     S
C992   C997    1.439   .     S
Zn993  N1016   2.037   .     S
Zn994  N1015   2.037   .     S
C995   C1005   1.412   .     A
C995   C997    1.407   .     A
C995   N1017   1.435   .     S
C996   N1020   1.435   .     S
C996   C1006   1.412   .     A
C996   C998    1.407   .     A
C997   C999    1.396   .     A
C998   C1000   1.396   .     A
C999   C1001   1.391   .     A
C999   O1023   1.389   .     S
C1000  C1002   1.391   .     A
C1000  O1028   1.389   .     S
C1001  C1007   1.394   .     A
C1001  C1003   1.412   .     A
C1002  C1008   1.394   .     A
C1002  C1004   1.412   .     A
C1003  C1005   1.423   .     A
C1004  C1006   1.423   .     A
C1004  C373    1.407   1_556 S
C1005  C1010   1.420   .     A
C1006  C1009   1.420   .     A
C1007  H1011   1.083   .     S
C1008  H1012   1.083   .     S
C1008  C380    1.384   1_556 S
C1009  N1033   1.431   .     S
C1009  C377    1.384   1_556 S
C1010  N1036   1.432   .     S
C1013  C1224   1.363   .     S
C1013  N1249   1.437   .     S
N1015  N876    1.270   1_655 S
N1015  N905    1.378   1_655 S
N1017  O1018   1.301   .     A
N1017  O1019   1.301   .     A
N1020  O1022   1.301   .     A
N1020  O1021   1.301   .     A
O1023  C1024   1.410   .     S
C1024  H1027   1.108   .     S
C1024  H1025   1.104   .     S
C1024  H1026   1.108   .     S
O1028  C1029   1.410   .     S
C1029  H1032   1.108   .     S
C1029  H1030   1.108   .     S
C1029  H1031   1.104   .     S
N1033  O1034   1.298   .     A
N1033  O1035   1.301   .     A
N1036  O1037   1.301   .     A
N1036  O1038   1.298   .     A
N1039  O1041   1.301   .     A
O1040  N1249   1.300   .     S
N1042  O1044   1.301   .     A
N1042  C1224   1.437   .     S
N1042  O1253   1.300   .     S
N1045  O1046   1.300   .     A
N1045  O1047   1.298   .     A
N1048  O1050   1.298   .     A
N1048  O1049   1.300   .     A
N1048  N876    1.378   1_655 S
O1051  C1055   1.283   .     A
O1051  Zn1063  1.996   .     S
O1052  Zn1064  1.996   .     S
O1052  C1056   1.283   .     A
O1053  C1055   1.300   .     A
O1053  Zn1064  2.012   .     S
O1054  C1056   1.300   .     A
O1054  Zn1063  2.012   .     S
C1055  C1083   1.414   .     S
C1056  C1084   1.414   .     S
O1057  C1061   1.293   .     A
O1057  Zn1063  2.011   .     S
O1058  Zn1064  2.011   .     S
O1058  C1062   1.293   .     A
O1059  Zn1064  2.035   .     S
O1059  C1061   1.301   .     A
O1060  C1062   1.301   .     A
O1060  Zn1063  2.035   .     S
C1061  C1068   1.439   .     S
C1062  C1067   1.439   .     S
Zn1063 N1086   2.037   .     S
Zn1064 N1085   2.037   .     S
C1065  C1075   1.412   .     A
C1065  C1067   1.407   .     A
C1065  N1087   1.435   .     S
C1066  N1090   1.435   .     S
C1066  C1076   1.412   .     A
C1066  C1068   1.407   .     A
C1067  C1069   1.396   .     A
C1068  C1070   1.396   .     A
C1069  C1071   1.391   .     A
C1069  O1093   1.389   .     S
C1070  C1072   1.391   .     A
C1070  O1098   1.389   .     S
C1071  C1077   1.394   .     A
C1071  C1073   1.412   .     A
C1072  C1078   1.394   .     A
C1072  C1074   1.412   .     A
C1073  C1075   1.423   .     A
C1074  C1076   1.423   .     A
C1074  C443    1.407   1_556 S
C1075  C1080   1.420   .     A
C1076  C1079   1.420   .     A
C1077  H1081   1.083   .     S
C1078  H1082   1.083   .     S
C1078  C450    1.384   1_556 S
C1079  N1103   1.431   .     S
C1079  C447    1.384   1_556 S
C1080  N1106   1.432   .     S
C1083  C664    1.363   1_565 S
C1083  N689    1.437   1_565 S
N1085  N1156   1.270   .     S
N1085  N1185   1.378   .     S
N1086  N1225   1.270   1_455 S
N1086  N1258   1.378   1_455 S
N1087  O1088   1.301   .     A
N1087  O1089   1.301   .     A
N1090  O1092   1.301   .     A
N1090  O1091   1.301   .     A
O1093  C1094   1.410   .     S
C1094  H1097   1.108   .     S
C1094  H1095   1.104   .     S
C1094  H1096   1.108   .     S
O1098  C1099   1.410   .     S
C1099  H1102   1.108   .     S
C1099  H1100   1.108   .     S
C1099  H1101   1.104   .     S
N1103  O1104   1.298   .     A
N1103  O1105   1.301   .     A
N1106  O1107   1.301   .     A
N1106  O1108   1.298   .     A
N1109  O1111   1.301   .     A
O1110  N689    1.300   1_565 S
N1112  O1114   1.301   .     A
N1112  C664    1.437   1_565 S
N1112  O693    1.300   1_565 S
N1115  O1116   1.300   .     A
N1115  O1117   1.298   .     A
N1115  N1225   1.378   1_455 S
N1118  O1120   1.298   .     A
N1118  O1119   1.300   .     A
N1118  N1156   1.378   .     S
O1121  C1125   1.283   .     A
O1121  Zn1133  1.996   .     S
O1122  Zn1134  1.996   .     S
O1122  C1126   1.283   .     A
O1123  C1125   1.300   .     A
O1123  Zn1134  2.012   .     S
O1124  C1126   1.300   .     A
O1124  Zn1133  2.012   .     S
C1125  C1153   1.414   .     S
C1126  C1154   1.414   .     S
O1127  C1131   1.293   .     A
O1127  Zn1133  2.011   .     S
O1128  Zn1134  2.011   .     S
O1128  C1132   1.293   .     A
O1129  Zn1134  2.035   .     S
O1129  C1131   1.301   .     A
O1130  C1132   1.301   .     A
O1130  Zn1133  2.035   .     S
C1131  C1138   1.439   .     S
C1132  C1137   1.439   .     S
Zn1133 N1156   2.037   .     S
Zn1134 N1155   2.037   .     S
C1135  C1145   1.412   .     A
C1135  C1137   1.407   .     A
C1135  N1157   1.435   .     S
C1136  N1160   1.435   .     S
C1136  C1146   1.412   .     A
C1136  C1138   1.407   .     A
C1137  C1139   1.396   .     A
C1138  C1140   1.396   .     A
C1139  C1141   1.391   .     A
C1139  O1163   1.389   .     S
C1140  C1142   1.391   .     A
C1140  O1168   1.389   .     S
C1141  C1147   1.394   .     A
C1141  C1143   1.412   .     A
C1142  C1148   1.394   .     A
C1142  C1144   1.412   .     A
C1143  C1145   1.423   .     A
C1144  C1146   1.423   .     A
C1144  C513    1.407   1_556 S
C1145  C1150   1.420   .     A
C1146  C1149   1.420   .     A
C1147  H1151   1.083   .     S
C1148  H1152   1.083   .     S
C1148  C520    1.384   1_556 S
C1149  N1173   1.431   .     S
C1149  C517    1.384   1_556 S
C1150  N1176   1.432   .     S
C1153  C734    1.363   1_565 S
C1153  N759    1.437   1_565 S
N1155  N1226   1.270   .     S
N1155  N1255   1.378   .     S
N1157  O1158   1.301   .     A
N1157  O1159   1.301   .     A
N1160  O1162   1.301   .     A
N1160  O1161   1.301   .     A
O1163  C1164   1.410   .     S
C1164  H1167   1.108   .     S
C1164  H1165   1.104   .     S
C1164  H1166   1.108   .     S
O1168  C1169   1.410   .     S
C1169  H1172   1.108   .     S
C1169  H1170   1.108   .     S
C1169  H1171   1.104   .     S
N1173  O1174   1.298   .     A
N1173  O1175   1.301   .     A
N1176  O1177   1.301   .     A
N1176  O1178   1.298   .     A
N1179  O1181   1.301   .     A
O1180  N759    1.300   1_565 S
N1182  O1184   1.301   .     A
N1182  C734    1.437   1_565 S
N1182  O763    1.300   1_565 S
N1185  O1186   1.300   .     A
N1185  O1187   1.298   .     A
N1188  O1190   1.298   .     A
N1188  O1189   1.300   .     A
N1188  N1226   1.378   .     S
O1191  C1195   1.283   .     A
O1191  Zn1203  1.996   .     S
O1192  Zn1204  1.996   .     S
O1192  C1196   1.283   .     A
O1193  C1195   1.300   .     A
O1193  Zn1204  2.012   .     S
O1194  C1196   1.300   .     A
O1194  Zn1203  2.012   .     S
C1195  C1223   1.414   .     S
C1196  C1224   1.414   .     S
O1197  C1201   1.293   .     A
O1197  Zn1203  2.011   .     S
O1198  Zn1204  2.011   .     S
O1198  C1202   1.293   .     A
O1199  Zn1204  2.035   .     S
O1199  C1201   1.301   .     A
O1200  C1202   1.301   .     A
O1200  Zn1203  2.035   .     S
C1201  C1208   1.439   .     S
C1202  C1207   1.439   .     S
Zn1203 N1226   2.037   .     S
Zn1204 N1225   2.037   .     S
C1205  C1215   1.412   .     A
C1205  C1207   1.407   .     A
C1205  N1227   1.435   .     S
C1206  N1230   1.435   .     S
C1206  C1216   1.412   .     A
C1206  C1208   1.407   .     A
C1207  C1209   1.396   .     A
C1208  C1210   1.396   .     A
C1209  C1211   1.391   .     A
C1209  O1233   1.389   .     S
C1210  C1212   1.391   .     A
C1210  O1238   1.389   .     S
C1211  C1217   1.394   .     A
C1211  C1213   1.412   .     A
C1212  C1218   1.394   .     A
C1212  C1214   1.412   .     A
C1213  C1215   1.423   .     A
C1214  C1216   1.423   .     A
C1214  C583    1.407   1_556 S
C1215  C1220   1.420   .     A
C1216  C1219   1.420   .     A
C1217  H1221   1.083   .     S
C1218  H1222   1.083   .     S
C1218  C590    1.384   1_556 S
C1219  N1243   1.431   .     S
C1219  C587    1.384   1_556 S
C1220  N1246   1.432   .     S
C1223  C804    1.363   1_565 S
C1223  N829    1.437   1_565 S
N1225  N1086   1.270   1_655 S
N1225  N1115   1.378   1_655 S
N1227  O1228   1.301   .     A
N1227  O1229   1.301   .     A
N1230  O1232   1.301   .     A
N1230  O1231   1.301   .     A
O1233  C1234   1.410   .     S
C1234  H1237   1.108   .     S
C1234  H1235   1.104   .     S
C1234  H1236   1.108   .     S
O1238  C1239   1.410   .     S
C1239  H1242   1.108   .     S
C1239  H1240   1.108   .     S
C1239  H1241   1.104   .     S
N1243  O1244   1.298   .     A
N1243  O1245   1.301   .     A
N1246  O1247   1.301   .     A
N1246  O1248   1.298   .     A
N1249  O1251   1.301   .     A
O1250  N829    1.300   1_565 S
N1252  O1254   1.301   .     A
N1252  C804    1.437   1_565 S
N1252  O833    1.300   1_565 S
N1255  O1256   1.300   .     A
N1255  O1257   1.298   .     A
N1258  O1260   1.298   .     A
N1258  O1259   1.300   .     A
N1258  N1086   1.378   1_655 S
