data_str_m3_o10_o17_pcu_sym.28
_audit_creation_date              2020-01-03
_audit_creation_method            'Materials Studio'
_symmetry_space_group_name_H-M    'P1'
_symmetry_Int_Tables_number       1
_symmetry_cell_setting            triclinic
loop_
_symmetry_equiv_pos_as_xyz
  x,y,z
_cell_length_a                    23.4112
_cell_length_b                    25.8061
_cell_length_c                    29.8895
_cell_angle_alpha                 92.1686
_cell_angle_beta                  85.1574
_cell_angle_gamma                 93.0074
loop_
_atom_site_label
_atom_site_type_symbol
_atom_site_fract_x
_atom_site_fract_y
_atom_site_fract_z
_atom_site_U_iso_or_equiv
_atom_site_adp_type
_atom_site_occupancy
C1     C     0.18138   0.26474   0.24950   0.00000  Uiso   1.00
C2     C     0.21745   0.18121   0.40442   0.00000  Uiso   1.00
C3     C     0.16599   0.16764   0.11563   0.00000  Uiso   1.00
C4     C     0.16731   0.16576   0.38438   0.00000  Uiso   1.00
C5     C     0.21625   0.18319   0.09004   0.00000  Uiso   1.00
C6     C     0.11705   0.15022   0.40996   0.00000  Uiso   1.00
C7     C     0.21681   0.18322   0.04378   0.00000  Uiso   1.00
C8     C     0.11646   0.15025   0.45623   0.00000  Uiso   1.00
C9     C     0.16645   0.16708   0.02328   0.00000  Uiso   1.00
C10    C     0.16682   0.16641   0.47674   0.00000  Uiso   1.00
C11    C     0.11574   0.15154   0.04932   0.00000  Uiso   1.00
C12    C     0.15186   0.06873   0.25071   0.00000  Uiso   1.00
C13    C     0.21752   0.18195   0.45070   0.00000  Uiso   1.00
C14    C     0.26681   0.19896   0.01780   0.00000  Uiso   1.00
C15    C     0.06645   0.13453   0.48222   0.00000  Uiso   1.00
C16    C     0.26719   0.19828   0.47129   0.00000  Uiso   1.00
C17    C     0.06607   0.13523   0.02873   0.00000  Uiso   1.00
C18    C     0.18718   0.31890   0.25674   0.00000  Uiso   1.00
C19    C     0.14525   0.01493   0.24411   0.00000  Uiso   1.00
C20    C     0.16696   0.16647   0.33655   0.00000  Uiso   1.00
C21    C     0.16637   0.16688   0.16345   0.00000  Uiso   1.00
C22    C     0.11582   0.15226   0.09559   0.00000  Uiso   1.00
H23    H     0.07731   0.13996   0.11592   0.00000  Uiso   1.00
H24    H     0.21320   0.01781   0.31494   0.00000  Uiso   1.00
H25    H     0.11521   0.30574   0.19058   0.00000  Uiso   1.00
H26    H     0.06688   0.31063   0.23729   0.00000  Uiso   1.00
H27    H     0.32707   0.08101   0.21566   0.00000  Uiso   1.00
H28    H     0.33170   0.12567   0.17605   0.00000  Uiso   1.00
H29    H     0.00679   0.25136   0.28676   0.00000  Uiso   1.00
H30    H     0.00100   0.20490   0.32464   0.00000  Uiso   1.00
H31    H     0.25595   0.19355   0.38411   0.00000  Uiso   1.00
H32    H     0.30548   0.21169   0.03343   0.00000  Uiso   1.00
H33    H     0.02779   0.12179   0.46658   0.00000  Uiso   1.00
H34    H     0.30617   0.21042   0.45146   0.00000  Uiso   1.00
H35    H     0.02709   0.12309   0.04856   0.00000  Uiso   1.00
H36    H     0.25477   0.19551   0.10616   0.00000  Uiso   1.00
H37    H     0.07855   0.13787   0.39385   0.00000  Uiso   1.00
H38    H     0.26118   0.31197   0.28902   0.00000  Uiso   1.00
N39    N     0.31678   0.15265   0.23783   0.00000  Uiso   1.00
N40    N     0.01656   0.18068   0.26217   0.00000  Uiso   1.00
N41    N     0.23232   0.00673   0.28337   0.00000  Uiso   1.00
N42    N     0.09946   0.32979   0.21726   0.00000  Uiso   1.00
N43    N     0.01085   0.11807   0.20779   0.00000  Uiso   1.00
N44    N     0.32239   0.21416   0.29314   0.00000  Uiso   1.00
O45    O     0.12975   0.24619   0.25299   0.00000  Uiso   1.00
O46    O     0.20358   0.08714   0.24701   0.00000  Uiso   1.00
O47    O     0.22613   0.23721   0.24519   0.00000  Uiso   1.00
O48    O     0.10720   0.09613   0.25482   0.00000  Uiso   1.00
O49    O     0.11847   0.17117   0.31998   0.00000  Uiso   1.00
O50    O     0.21486   0.16216   0.18003   0.00000  Uiso   1.00
O51    O     0.21485   0.16219   0.31218   0.00000  Uiso   1.00
O52    O     0.11848   0.17115   0.18783   0.00000  Uiso   1.00
Zn53   Zn    0.10231   0.17266   0.25521   0.00000  Uiso   1.00
Zn54   Zn    0.23102   0.16067   0.24479   0.00000  Uiso   1.00
C55    C     0.51471   0.26474   0.24950   0.00000  Uiso   1.00
C56    C     0.55078   0.18121   0.40442   0.00000  Uiso   1.00
C57    C     0.49933   0.16764   0.11563   0.00000  Uiso   1.00
C58    C     0.50065   0.16576   0.38438   0.00000  Uiso   1.00
C59    C     0.54958   0.18319   0.09004   0.00000  Uiso   1.00
C60    C     0.45038   0.15022   0.40996   0.00000  Uiso   1.00
C61    C     0.55015   0.18322   0.04378   0.00000  Uiso   1.00
C62    C     0.44979   0.15025   0.45623   0.00000  Uiso   1.00
C63    C     0.49978   0.16708   0.02328   0.00000  Uiso   1.00
C64    C     0.50015   0.16641   0.47674   0.00000  Uiso   1.00
C65    C     0.44908   0.15154   0.04932   0.00000  Uiso   1.00
C66    C     0.48519   0.06873   0.25071   0.00000  Uiso   1.00
C67    C     0.55085   0.18195   0.45070   0.00000  Uiso   1.00
C68    C     0.60015   0.19896   0.01780   0.00000  Uiso   1.00
C69    C     0.39979   0.13453   0.48222   0.00000  Uiso   1.00
C70    C     0.60052   0.19828   0.47129   0.00000  Uiso   1.00
C71    C     0.39940   0.13523   0.02873   0.00000  Uiso   1.00
C72    C     0.52052   0.31890   0.25674   0.00000  Uiso   1.00
C73    C     0.47859   0.01493   0.24411   0.00000  Uiso   1.00
C74    C     0.50030   0.16647   0.33655   0.00000  Uiso   1.00
C75    C     0.49970   0.16688   0.16345   0.00000  Uiso   1.00
C76    C     0.44916   0.15226   0.09559   0.00000  Uiso   1.00
H77    H     0.41064   0.13996   0.11592   0.00000  Uiso   1.00
H78    H     0.54653   0.01781   0.31494   0.00000  Uiso   1.00
H79    H     0.44854   0.30574   0.19058   0.00000  Uiso   1.00
H80    H     0.40021   0.31063   0.23729   0.00000  Uiso   1.00
H81    H     0.66041   0.08101   0.21566   0.00000  Uiso   1.00
H82    H     0.66504   0.12567   0.17605   0.00000  Uiso   1.00
H83    H     0.34012   0.25136   0.28676   0.00000  Uiso   1.00
H84    H     0.33434   0.20490   0.32464   0.00000  Uiso   1.00
H85    H     0.58928   0.19355   0.38411   0.00000  Uiso   1.00
H86    H     0.63882   0.21169   0.03343   0.00000  Uiso   1.00
H87    H     0.36112   0.12179   0.46658   0.00000  Uiso   1.00
H88    H     0.63950   0.21042   0.45146   0.00000  Uiso   1.00
H89    H     0.36042   0.12309   0.04856   0.00000  Uiso   1.00
H90    H     0.58810   0.19551   0.10616   0.00000  Uiso   1.00
H91    H     0.41188   0.13787   0.39385   0.00000  Uiso   1.00
H92    H     0.59452   0.31197   0.28902   0.00000  Uiso   1.00
N93    N     0.65011   0.15265   0.23783   0.00000  Uiso   1.00
N94    N     0.34989   0.18068   0.26217   0.00000  Uiso   1.00
N95    N     0.56566   0.00673   0.28337   0.00000  Uiso   1.00
N96    N     0.43279   0.32979   0.21726   0.00000  Uiso   1.00
N97    N     0.34419   0.11807   0.20779   0.00000  Uiso   1.00
N98    N     0.65572   0.21416   0.29314   0.00000  Uiso   1.00
O99    O     0.46308   0.24619   0.25299   0.00000  Uiso   1.00
O100   O     0.53692   0.08714   0.24701   0.00000  Uiso   1.00
O101   O     0.55946   0.23721   0.24519   0.00000  Uiso   1.00
O102   O     0.44054   0.09613   0.25482   0.00000  Uiso   1.00
O103   O     0.45181   0.17117   0.31998   0.00000  Uiso   1.00
O104   O     0.54819   0.16216   0.18003   0.00000  Uiso   1.00
O105   O     0.54819   0.16219   0.31218   0.00000  Uiso   1.00
O106   O     0.45181   0.17115   0.18783   0.00000  Uiso   1.00
Zn107  Zn    0.43565   0.17266   0.25521   0.00000  Uiso   1.00
Zn108  Zn    0.56435   0.16067   0.24479   0.00000  Uiso   1.00
C109   C     0.84804   0.26474   0.24950   0.00000  Uiso   1.00
C110   C     0.88412   0.18121   0.40442   0.00000  Uiso   1.00
C111   C     0.83266   0.16764   0.11563   0.00000  Uiso   1.00
C112   C     0.83398   0.16576   0.38438   0.00000  Uiso   1.00
C113   C     0.88292   0.18319   0.09004   0.00000  Uiso   1.00
C114   C     0.78371   0.15022   0.40996   0.00000  Uiso   1.00
C115   C     0.88348   0.18322   0.04378   0.00000  Uiso   1.00
C116   C     0.78313   0.15025   0.45623   0.00000  Uiso   1.00
C117   C     0.83312   0.16708   0.02328   0.00000  Uiso   1.00
C118   C     0.83348   0.16641   0.47674   0.00000  Uiso   1.00
C119   C     0.78241   0.15154   0.04932   0.00000  Uiso   1.00
C120   C     0.81853   0.06873   0.25071   0.00000  Uiso   1.00
C121   C     0.88419   0.18195   0.45070   0.00000  Uiso   1.00
C122   C     0.93348   0.19896   0.01780   0.00000  Uiso   1.00
C123   C     0.73312   0.13453   0.48222   0.00000  Uiso   1.00
C124   C     0.93385   0.19828   0.47129   0.00000  Uiso   1.00
C125   C     0.73274   0.13523   0.02873   0.00000  Uiso   1.00
C126   C     0.85385   0.31890   0.25674   0.00000  Uiso   1.00
C127   C     0.81192   0.01493   0.24411   0.00000  Uiso   1.00
C128   C     0.83363   0.16647   0.33655   0.00000  Uiso   1.00
C129   C     0.83303   0.16688   0.16345   0.00000  Uiso   1.00
C130   C     0.78249   0.15226   0.09559   0.00000  Uiso   1.00
H131   H     0.74397   0.13996   0.11592   0.00000  Uiso   1.00
H132   H     0.87987   0.01781   0.31494   0.00000  Uiso   1.00
H133   H     0.78188   0.30574   0.19058   0.00000  Uiso   1.00
H134   H     0.73355   0.31063   0.23729   0.00000  Uiso   1.00
H135   H     0.99374   0.08101   0.21566   0.00000  Uiso   1.00
H136   H     0.99837   0.12567   0.17605   0.00000  Uiso   1.00
H137   H     0.67345   0.25136   0.28676   0.00000  Uiso   1.00
H138   H     0.66767   0.20490   0.32464   0.00000  Uiso   1.00
H139   H     0.92262   0.19355   0.38411   0.00000  Uiso   1.00
H140   H     0.97215   0.21169   0.03343   0.00000  Uiso   1.00
H141   H     0.69445   0.12179   0.46658   0.00000  Uiso   1.00
H142   H     0.97284   0.21042   0.45146   0.00000  Uiso   1.00
H143   H     0.69375   0.12309   0.04856   0.00000  Uiso   1.00
H144   H     0.92143   0.19551   0.10616   0.00000  Uiso   1.00
H145   H     0.74521   0.13787   0.39385   0.00000  Uiso   1.00
H146   H     0.92785   0.31197   0.28902   0.00000  Uiso   1.00
N147   N     0.98344   0.15265   0.23783   0.00000  Uiso   1.00
N148   N     0.68322   0.18068   0.26217   0.00000  Uiso   1.00
N149   N     0.89899   0.00673   0.28337   0.00000  Uiso   1.00
N150   N     0.76613   0.32979   0.21726   0.00000  Uiso   1.00
N151   N     0.67752   0.11807   0.20779   0.00000  Uiso   1.00
N152   N     0.98905   0.21416   0.29314   0.00000  Uiso   1.00
O153   O     0.79642   0.24619   0.25299   0.00000  Uiso   1.00
O154   O     0.87025   0.08714   0.24701   0.00000  Uiso   1.00
O155   O     0.89280   0.23721   0.24519   0.00000  Uiso   1.00
O156   O     0.77387   0.09613   0.25482   0.00000  Uiso   1.00
O157   O     0.78514   0.17117   0.31998   0.00000  Uiso   1.00
O158   O     0.88153   0.16216   0.18003   0.00000  Uiso   1.00
O159   O     0.88152   0.16219   0.31218   0.00000  Uiso   1.00
O160   O     0.78515   0.17115   0.18783   0.00000  Uiso   1.00
Zn161  Zn    0.76898   0.17266   0.25521   0.00000  Uiso   1.00
Zn162  Zn    0.89769   0.16067   0.24479   0.00000  Uiso   1.00
C163   C     0.18138   0.59807   0.24950   0.00000  Uiso   1.00
C164   C     0.21745   0.51454   0.40442   0.00000  Uiso   1.00
C165   C     0.16599   0.50098   0.11563   0.00000  Uiso   1.00
C166   C     0.16731   0.49909   0.38438   0.00000  Uiso   1.00
C167   C     0.21625   0.51652   0.09004   0.00000  Uiso   1.00
C168   C     0.11705   0.48356   0.40996   0.00000  Uiso   1.00
C169   C     0.21681   0.51655   0.04378   0.00000  Uiso   1.00
C170   C     0.11646   0.48358   0.45623   0.00000  Uiso   1.00
C171   C     0.16645   0.50041   0.02328   0.00000  Uiso   1.00
C172   C     0.16682   0.49974   0.47674   0.00000  Uiso   1.00
C173   C     0.11574   0.48488   0.04932   0.00000  Uiso   1.00
C174   C     0.15186   0.40206   0.25071   0.00000  Uiso   1.00
C175   C     0.21752   0.51528   0.45070   0.00000  Uiso   1.00
C176   C     0.26681   0.53229   0.01780   0.00000  Uiso   1.00
C177   C     0.06645   0.46786   0.48222   0.00000  Uiso   1.00
C178   C     0.26719   0.53161   0.47129   0.00000  Uiso   1.00
C179   C     0.06607   0.46857   0.02873   0.00000  Uiso   1.00
C180   C     0.18718   0.65223   0.25674   0.00000  Uiso   1.00
C181   C     0.14525   0.34826   0.24411   0.00000  Uiso   1.00
C182   C     0.16696   0.49981   0.33655   0.00000  Uiso   1.00
C183   C     0.16637   0.50021   0.16345   0.00000  Uiso   1.00
C184   C     0.11582   0.48560   0.09559   0.00000  Uiso   1.00
H185   H     0.07731   0.47329   0.11592   0.00000  Uiso   1.00
H186   H     0.21320   0.35114   0.31494   0.00000  Uiso   1.00
H187   H     0.11521   0.63907   0.19058   0.00000  Uiso   1.00
H188   H     0.06688   0.64396   0.23729   0.00000  Uiso   1.00
H189   H     0.32707   0.41435   0.21566   0.00000  Uiso   1.00
H190   H     0.33170   0.45900   0.17605   0.00000  Uiso   1.00
H191   H     0.00679   0.58470   0.28676   0.00000  Uiso   1.00
H192   H     0.00100   0.53823   0.32464   0.00000  Uiso   1.00
H193   H     0.25595   0.52688   0.38411   0.00000  Uiso   1.00
H194   H     0.30548   0.54502   0.03343   0.00000  Uiso   1.00
H195   H     0.02779   0.45513   0.46658   0.00000  Uiso   1.00
H196   H     0.30617   0.54376   0.45146   0.00000  Uiso   1.00
H197   H     0.02709   0.45643   0.04856   0.00000  Uiso   1.00
H198   H     0.25477   0.52884   0.10616   0.00000  Uiso   1.00
H199   H     0.07855   0.47120   0.39385   0.00000  Uiso   1.00
H200   H     0.26118   0.64530   0.28902   0.00000  Uiso   1.00
N201   N     0.31678   0.48598   0.23783   0.00000  Uiso   1.00
N202   N     0.01656   0.51402   0.26217   0.00000  Uiso   1.00
N203   N     0.23232   0.34006   0.28337   0.00000  Uiso   1.00
N204   N     0.09946   0.66312   0.21726   0.00000  Uiso   1.00
N205   N     0.01085   0.45141   0.20779   0.00000  Uiso   1.00
N206   N     0.32239   0.54749   0.29314   0.00000  Uiso   1.00
O207   O     0.12975   0.57952   0.25299   0.00000  Uiso   1.00
O208   O     0.20358   0.42048   0.24701   0.00000  Uiso   1.00
O209   O     0.22613   0.57054   0.24519   0.00000  Uiso   1.00
O210   O     0.10720   0.42946   0.25482   0.00000  Uiso   1.00
O211   O     0.11847   0.50450   0.31998   0.00000  Uiso   1.00
O212   O     0.21486   0.49550   0.18003   0.00000  Uiso   1.00
O213   O     0.21485   0.49552   0.31218   0.00000  Uiso   1.00
O214   O     0.11848   0.50448   0.18783   0.00000  Uiso   1.00
Zn215  Zn    0.10231   0.50600   0.25521   0.00000  Uiso   1.00
Zn216  Zn    0.23102   0.49400   0.24479   0.00000  Uiso   1.00
C217   C     0.51471   0.59807   0.24950   0.00000  Uiso   1.00
C218   C     0.55078   0.51454   0.40442   0.00000  Uiso   1.00
C219   C     0.49933   0.50098   0.11563   0.00000  Uiso   1.00
C220   C     0.50065   0.49909   0.38438   0.00000  Uiso   1.00
C221   C     0.54958   0.51652   0.09004   0.00000  Uiso   1.00
C222   C     0.45038   0.48356   0.40996   0.00000  Uiso   1.00
C223   C     0.55015   0.51655   0.04378   0.00000  Uiso   1.00
C224   C     0.44979   0.48358   0.45623   0.00000  Uiso   1.00
C225   C     0.49978   0.50041   0.02328   0.00000  Uiso   1.00
C226   C     0.50015   0.49974   0.47674   0.00000  Uiso   1.00
C227   C     0.44908   0.48488   0.04932   0.00000  Uiso   1.00
C228   C     0.48519   0.40206   0.25071   0.00000  Uiso   1.00
C229   C     0.55085   0.51528   0.45070   0.00000  Uiso   1.00
C230   C     0.60015   0.53229   0.01780   0.00000  Uiso   1.00
C231   C     0.39979   0.46786   0.48222   0.00000  Uiso   1.00
C232   C     0.60052   0.53161   0.47129   0.00000  Uiso   1.00
C233   C     0.39940   0.46857   0.02873   0.00000  Uiso   1.00
C234   C     0.52052   0.65223   0.25674   0.00000  Uiso   1.00
C235   C     0.47859   0.34826   0.24411   0.00000  Uiso   1.00
C236   C     0.50030   0.49981   0.33655   0.00000  Uiso   1.00
C237   C     0.49970   0.50021   0.16345   0.00000  Uiso   1.00
C238   C     0.44916   0.48560   0.09559   0.00000  Uiso   1.00
H239   H     0.41064   0.47329   0.11592   0.00000  Uiso   1.00
H240   H     0.54653   0.35114   0.31494   0.00000  Uiso   1.00
H241   H     0.44854   0.63907   0.19058   0.00000  Uiso   1.00
H242   H     0.40021   0.64396   0.23729   0.00000  Uiso   1.00
H243   H     0.66041   0.41435   0.21566   0.00000  Uiso   1.00
H244   H     0.66504   0.45900   0.17605   0.00000  Uiso   1.00
H245   H     0.34012   0.58470   0.28676   0.00000  Uiso   1.00
H246   H     0.33434   0.53823   0.32464   0.00000  Uiso   1.00
H247   H     0.58928   0.52688   0.38411   0.00000  Uiso   1.00
H248   H     0.63882   0.54502   0.03343   0.00000  Uiso   1.00
H249   H     0.36112   0.45513   0.46658   0.00000  Uiso   1.00
H250   H     0.63950   0.54376   0.45146   0.00000  Uiso   1.00
H251   H     0.36042   0.45643   0.04856   0.00000  Uiso   1.00
H252   H     0.58810   0.52884   0.10616   0.00000  Uiso   1.00
H253   H     0.41188   0.47120   0.39385   0.00000  Uiso   1.00
H254   H     0.59452   0.64530   0.28902   0.00000  Uiso   1.00
N255   N     0.65011   0.48598   0.23783   0.00000  Uiso   1.00
N256   N     0.34989   0.51402   0.26217   0.00000  Uiso   1.00
N257   N     0.56566   0.34006   0.28337   0.00000  Uiso   1.00
N258   N     0.43279   0.66312   0.21726   0.00000  Uiso   1.00
N259   N     0.34419   0.45141   0.20779   0.00000  Uiso   1.00
N260   N     0.65572   0.54749   0.29314   0.00000  Uiso   1.00
O261   O     0.46308   0.57952   0.25299   0.00000  Uiso   1.00
O262   O     0.53692   0.42048   0.24701   0.00000  Uiso   1.00
O263   O     0.55946   0.57054   0.24519   0.00000  Uiso   1.00
O264   O     0.44054   0.42946   0.25482   0.00000  Uiso   1.00
O265   O     0.45181   0.50450   0.31998   0.00000  Uiso   1.00
O266   O     0.54819   0.49550   0.18003   0.00000  Uiso   1.00
O267   O     0.54819   0.49552   0.31218   0.00000  Uiso   1.00
O268   O     0.45181   0.50448   0.18783   0.00000  Uiso   1.00
Zn269  Zn    0.43565   0.50600   0.25521   0.00000  Uiso   1.00
Zn270  Zn    0.56435   0.49400   0.24479   0.00000  Uiso   1.00
C271   C     0.84804   0.59807   0.24950   0.00000  Uiso   1.00
C272   C     0.88412   0.51454   0.40442   0.00000  Uiso   1.00
C273   C     0.83266   0.50098   0.11563   0.00000  Uiso   1.00
C274   C     0.83398   0.49909   0.38438   0.00000  Uiso   1.00
C275   C     0.88292   0.51652   0.09004   0.00000  Uiso   1.00
C276   C     0.78371   0.48356   0.40996   0.00000  Uiso   1.00
C277   C     0.88348   0.51655   0.04378   0.00000  Uiso   1.00
C278   C     0.78313   0.48358   0.45623   0.00000  Uiso   1.00
C279   C     0.83312   0.50041   0.02328   0.00000  Uiso   1.00
C280   C     0.83348   0.49974   0.47674   0.00000  Uiso   1.00
C281   C     0.78241   0.48488   0.04932   0.00000  Uiso   1.00
C282   C     0.81853   0.40206   0.25071   0.00000  Uiso   1.00
C283   C     0.88419   0.51528   0.45070   0.00000  Uiso   1.00
C284   C     0.93348   0.53229   0.01780   0.00000  Uiso   1.00
C285   C     0.73312   0.46786   0.48222   0.00000  Uiso   1.00
C286   C     0.93385   0.53161   0.47129   0.00000  Uiso   1.00
C287   C     0.73274   0.46857   0.02873   0.00000  Uiso   1.00
C288   C     0.85385   0.65223   0.25674   0.00000  Uiso   1.00
C289   C     0.81192   0.34826   0.24411   0.00000  Uiso   1.00
C290   C     0.83363   0.49981   0.33655   0.00000  Uiso   1.00
C291   C     0.83303   0.50021   0.16345   0.00000  Uiso   1.00
C292   C     0.78249   0.48560   0.09559   0.00000  Uiso   1.00
H293   H     0.74397   0.47329   0.11592   0.00000  Uiso   1.00
H294   H     0.87987   0.35114   0.31494   0.00000  Uiso   1.00
H295   H     0.78188   0.63907   0.19058   0.00000  Uiso   1.00
H296   H     0.73355   0.64396   0.23729   0.00000  Uiso   1.00
H297   H     0.99374   0.41435   0.21566   0.00000  Uiso   1.00
H298   H     0.99837   0.45900   0.17605   0.00000  Uiso   1.00
H299   H     0.67345   0.58470   0.28676   0.00000  Uiso   1.00
H300   H     0.66767   0.53823   0.32464   0.00000  Uiso   1.00
H301   H     0.92262   0.52688   0.38411   0.00000  Uiso   1.00
H302   H     0.97215   0.54502   0.03343   0.00000  Uiso   1.00
H303   H     0.69445   0.45513   0.46658   0.00000  Uiso   1.00
H304   H     0.97284   0.54376   0.45146   0.00000  Uiso   1.00
H305   H     0.69375   0.45643   0.04856   0.00000  Uiso   1.00
H306   H     0.92143   0.52884   0.10616   0.00000  Uiso   1.00
H307   H     0.74521   0.47120   0.39385   0.00000  Uiso   1.00
H308   H     0.92785   0.64530   0.28902   0.00000  Uiso   1.00
N309   N     0.98344   0.48598   0.23783   0.00000  Uiso   1.00
N310   N     0.68322   0.51402   0.26217   0.00000  Uiso   1.00
N311   N     0.89899   0.34006   0.28337   0.00000  Uiso   1.00
N312   N     0.76613   0.66312   0.21726   0.00000  Uiso   1.00
N313   N     0.67752   0.45141   0.20779   0.00000  Uiso   1.00
N314   N     0.98905   0.54749   0.29314   0.00000  Uiso   1.00
O315   O     0.79642   0.57952   0.25299   0.00000  Uiso   1.00
O316   O     0.87025   0.42048   0.24701   0.00000  Uiso   1.00
O317   O     0.89280   0.57054   0.24519   0.00000  Uiso   1.00
O318   O     0.77387   0.42946   0.25482   0.00000  Uiso   1.00
O319   O     0.78514   0.50450   0.31998   0.00000  Uiso   1.00
O320   O     0.88153   0.49550   0.18003   0.00000  Uiso   1.00
O321   O     0.88152   0.49552   0.31218   0.00000  Uiso   1.00
O322   O     0.78515   0.50448   0.18783   0.00000  Uiso   1.00
Zn323  Zn    0.76898   0.50600   0.25521   0.00000  Uiso   1.00
Zn324  Zn    0.89769   0.49400   0.24479   0.00000  Uiso   1.00
C325   C     0.18138   0.93140   0.24950   0.00000  Uiso   1.00
C326   C     0.21745   0.84788   0.40442   0.00000  Uiso   1.00
C327   C     0.16599   0.83431   0.11563   0.00000  Uiso   1.00
C328   C     0.16731   0.83243   0.38438   0.00000  Uiso   1.00
C329   C     0.21625   0.84986   0.09004   0.00000  Uiso   1.00
C330   C     0.11705   0.81689   0.40996   0.00000  Uiso   1.00
C331   C     0.21681   0.84989   0.04378   0.00000  Uiso   1.00
C332   C     0.11646   0.81691   0.45623   0.00000  Uiso   1.00
C333   C     0.16645   0.83374   0.02328   0.00000  Uiso   1.00
C334   C     0.16682   0.83308   0.47674   0.00000  Uiso   1.00
C335   C     0.11574   0.81821   0.04932   0.00000  Uiso   1.00
C336   C     0.15186   0.73539   0.25071   0.00000  Uiso   1.00
C337   C     0.21752   0.84862   0.45070   0.00000  Uiso   1.00
C338   C     0.26681   0.86563   0.01780   0.00000  Uiso   1.00
C339   C     0.06645   0.80120   0.48222   0.00000  Uiso   1.00
C340   C     0.26719   0.86494   0.47129   0.00000  Uiso   1.00
C341   C     0.06607   0.80190   0.02873   0.00000  Uiso   1.00
C342   C     0.18718   0.98557   0.25674   0.00000  Uiso   1.00
C343   C     0.14525   0.68160   0.24411   0.00000  Uiso   1.00
C344   C     0.16696   0.83314   0.33655   0.00000  Uiso   1.00
C345   C     0.16637   0.83354   0.16345   0.00000  Uiso   1.00
C346   C     0.11582   0.81893   0.09559   0.00000  Uiso   1.00
H347   H     0.07731   0.80662   0.11592   0.00000  Uiso   1.00
H348   H     0.21320   0.68447   0.31494   0.00000  Uiso   1.00
H349   H     0.11521   0.97240   0.19058   0.00000  Uiso   1.00
H350   H     0.06688   0.97729   0.23729   0.00000  Uiso   1.00
H351   H     0.32707   0.74768   0.21566   0.00000  Uiso   1.00
H352   H     0.33170   0.79234   0.17605   0.00000  Uiso   1.00
H353   H     0.00679   0.91803   0.28676   0.00000  Uiso   1.00
H354   H     0.00100   0.87157   0.32464   0.00000  Uiso   1.00
H355   H     0.25595   0.86022   0.38411   0.00000  Uiso   1.00
H356   H     0.30548   0.87836   0.03343   0.00000  Uiso   1.00
H357   H     0.02779   0.78846   0.46658   0.00000  Uiso   1.00
H358   H     0.30617   0.87709   0.45146   0.00000  Uiso   1.00
H359   H     0.02709   0.78976   0.04856   0.00000  Uiso   1.00
H360   H     0.25477   0.86218   0.10616   0.00000  Uiso   1.00
H361   H     0.07855   0.80454   0.39385   0.00000  Uiso   1.00
H362   H     0.26118   0.97864   0.28902   0.00000  Uiso   1.00
N363   N     0.31678   0.81932   0.23783   0.00000  Uiso   1.00
N364   N     0.01656   0.84735   0.26217   0.00000  Uiso   1.00
N365   N     0.23232   0.67340   0.28337   0.00000  Uiso   1.00
N366   N     0.09946   0.99646   0.21726   0.00000  Uiso   1.00
N367   N     0.01085   0.78474   0.20779   0.00000  Uiso   1.00
N368   N     0.32239   0.88083   0.29314   0.00000  Uiso   1.00
O369   O     0.12975   0.91286   0.25299   0.00000  Uiso   1.00
O370   O     0.20358   0.75381   0.24701   0.00000  Uiso   1.00
O371   O     0.22613   0.90387   0.24519   0.00000  Uiso   1.00
O372   O     0.10720   0.76279   0.25482   0.00000  Uiso   1.00
O373   O     0.11847   0.83784   0.31998   0.00000  Uiso   1.00
O374   O     0.21486   0.82883   0.18003   0.00000  Uiso   1.00
O375   O     0.21485   0.82885   0.31218   0.00000  Uiso   1.00
O376   O     0.11848   0.83781   0.18783   0.00000  Uiso   1.00
Zn377  Zn    0.10231   0.83933   0.25521   0.00000  Uiso   1.00
Zn378  Zn    0.23102   0.82734   0.24479   0.00000  Uiso   1.00
C379   C     0.51471   0.93140   0.24950   0.00000  Uiso   1.00
C380   C     0.55078   0.84788   0.40442   0.00000  Uiso   1.00
C381   C     0.49933   0.83431   0.11563   0.00000  Uiso   1.00
C382   C     0.50065   0.83243   0.38438   0.00000  Uiso   1.00
C383   C     0.54958   0.84986   0.09004   0.00000  Uiso   1.00
C384   C     0.45038   0.81689   0.40996   0.00000  Uiso   1.00
C385   C     0.55015   0.84989   0.04378   0.00000  Uiso   1.00
C386   C     0.44979   0.81691   0.45623   0.00000  Uiso   1.00
C387   C     0.49978   0.83374   0.02328   0.00000  Uiso   1.00
C388   C     0.50015   0.83308   0.47674   0.00000  Uiso   1.00
C389   C     0.44908   0.81821   0.04932   0.00000  Uiso   1.00
C390   C     0.48519   0.73539   0.25071   0.00000  Uiso   1.00
C391   C     0.55085   0.84862   0.45070   0.00000  Uiso   1.00
C392   C     0.60015   0.86563   0.01780   0.00000  Uiso   1.00
C393   C     0.39979   0.80120   0.48222   0.00000  Uiso   1.00
C394   C     0.60052   0.86494   0.47129   0.00000  Uiso   1.00
C395   C     0.39940   0.80190   0.02873   0.00000  Uiso   1.00
C396   C     0.52052   0.98557   0.25674   0.00000  Uiso   1.00
C397   C     0.47859   0.68160   0.24411   0.00000  Uiso   1.00
C398   C     0.50030   0.83314   0.33655   0.00000  Uiso   1.00
C399   C     0.49970   0.83354   0.16345   0.00000  Uiso   1.00
C400   C     0.44916   0.81893   0.09559   0.00000  Uiso   1.00
H401   H     0.41064   0.80662   0.11592   0.00000  Uiso   1.00
H402   H     0.54653   0.68447   0.31494   0.00000  Uiso   1.00
H403   H     0.44854   0.97240   0.19058   0.00000  Uiso   1.00
H404   H     0.40021   0.97729   0.23729   0.00000  Uiso   1.00
H405   H     0.66041   0.74768   0.21566   0.00000  Uiso   1.00
H406   H     0.66504   0.79234   0.17605   0.00000  Uiso   1.00
H407   H     0.34012   0.91803   0.28676   0.00000  Uiso   1.00
H408   H     0.33434   0.87157   0.32464   0.00000  Uiso   1.00
H409   H     0.58928   0.86022   0.38411   0.00000  Uiso   1.00
H410   H     0.63882   0.87836   0.03343   0.00000  Uiso   1.00
H411   H     0.36112   0.78846   0.46658   0.00000  Uiso   1.00
H412   H     0.63950   0.87709   0.45146   0.00000  Uiso   1.00
H413   H     0.36042   0.78976   0.04856   0.00000  Uiso   1.00
H414   H     0.58810   0.86218   0.10616   0.00000  Uiso   1.00
H415   H     0.41188   0.80454   0.39385   0.00000  Uiso   1.00
H416   H     0.59452   0.97864   0.28902   0.00000  Uiso   1.00
N417   N     0.65011   0.81932   0.23783   0.00000  Uiso   1.00
N418   N     0.34989   0.84735   0.26217   0.00000  Uiso   1.00
N419   N     0.56566   0.67340   0.28337   0.00000  Uiso   1.00
N420   N     0.43279   0.99646   0.21726   0.00000  Uiso   1.00
N421   N     0.34419   0.78474   0.20779   0.00000  Uiso   1.00
N422   N     0.65572   0.88083   0.29314   0.00000  Uiso   1.00
O423   O     0.46308   0.91286   0.25299   0.00000  Uiso   1.00
O424   O     0.53692   0.75381   0.24701   0.00000  Uiso   1.00
O425   O     0.55946   0.90387   0.24519   0.00000  Uiso   1.00
O426   O     0.44054   0.76279   0.25482   0.00000  Uiso   1.00
O427   O     0.45181   0.83784   0.31998   0.00000  Uiso   1.00
O428   O     0.54819   0.82883   0.18003   0.00000  Uiso   1.00
O429   O     0.54819   0.82885   0.31218   0.00000  Uiso   1.00
O430   O     0.45181   0.83781   0.18783   0.00000  Uiso   1.00
Zn431  Zn    0.43565   0.83933   0.25521   0.00000  Uiso   1.00
Zn432  Zn    0.56435   0.82734   0.24479   0.00000  Uiso   1.00
C433   C     0.84804   0.93140   0.24950   0.00000  Uiso   1.00
C434   C     0.88412   0.84788   0.40442   0.00000  Uiso   1.00
C435   C     0.83266   0.83431   0.11563   0.00000  Uiso   1.00
C436   C     0.83398   0.83243   0.38438   0.00000  Uiso   1.00
C437   C     0.88292   0.84986   0.09004   0.00000  Uiso   1.00
C438   C     0.78371   0.81689   0.40996   0.00000  Uiso   1.00
C439   C     0.88348   0.84989   0.04378   0.00000  Uiso   1.00
C440   C     0.78313   0.81691   0.45623   0.00000  Uiso   1.00
C441   C     0.83312   0.83374   0.02328   0.00000  Uiso   1.00
C442   C     0.83348   0.83308   0.47674   0.00000  Uiso   1.00
C443   C     0.78241   0.81821   0.04932   0.00000  Uiso   1.00
C444   C     0.81853   0.73539   0.25071   0.00000  Uiso   1.00
C445   C     0.88419   0.84862   0.45070   0.00000  Uiso   1.00
C446   C     0.93348   0.86563   0.01780   0.00000  Uiso   1.00
C447   C     0.73312   0.80120   0.48222   0.00000  Uiso   1.00
C448   C     0.93385   0.86494   0.47129   0.00000  Uiso   1.00
C449   C     0.73274   0.80190   0.02873   0.00000  Uiso   1.00
C450   C     0.85385   0.98557   0.25674   0.00000  Uiso   1.00
C451   C     0.81192   0.68160   0.24411   0.00000  Uiso   1.00
C452   C     0.83363   0.83314   0.33655   0.00000  Uiso   1.00
C453   C     0.83303   0.83354   0.16345   0.00000  Uiso   1.00
C454   C     0.78249   0.81893   0.09559   0.00000  Uiso   1.00
H455   H     0.74397   0.80662   0.11592   0.00000  Uiso   1.00
H456   H     0.87987   0.68447   0.31494   0.00000  Uiso   1.00
H457   H     0.78188   0.97240   0.19058   0.00000  Uiso   1.00
H458   H     0.73355   0.97729   0.23729   0.00000  Uiso   1.00
H459   H     0.99374   0.74768   0.21566   0.00000  Uiso   1.00
H460   H     0.99837   0.79234   0.17605   0.00000  Uiso   1.00
H461   H     0.67345   0.91803   0.28676   0.00000  Uiso   1.00
H462   H     0.66767   0.87157   0.32464   0.00000  Uiso   1.00
H463   H     0.92262   0.86022   0.38411   0.00000  Uiso   1.00
H464   H     0.97215   0.87836   0.03343   0.00000  Uiso   1.00
H465   H     0.69445   0.78846   0.46658   0.00000  Uiso   1.00
H466   H     0.97284   0.87709   0.45146   0.00000  Uiso   1.00
H467   H     0.69375   0.78976   0.04856   0.00000  Uiso   1.00
H468   H     0.92143   0.86218   0.10616   0.00000  Uiso   1.00
H469   H     0.74521   0.80454   0.39385   0.00000  Uiso   1.00
H470   H     0.92785   0.97864   0.28902   0.00000  Uiso   1.00
N471   N     0.98344   0.81932   0.23783   0.00000  Uiso   1.00
N472   N     0.68322   0.84735   0.26217   0.00000  Uiso   1.00
N473   N     0.89899   0.67340   0.28337   0.00000  Uiso   1.00
N474   N     0.76613   0.99646   0.21726   0.00000  Uiso   1.00
N475   N     0.67752   0.78474   0.20779   0.00000  Uiso   1.00
N476   N     0.98905   0.88083   0.29314   0.00000  Uiso   1.00
O477   O     0.79642   0.91286   0.25299   0.00000  Uiso   1.00
O478   O     0.87025   0.75381   0.24701   0.00000  Uiso   1.00
O479   O     0.89280   0.90387   0.24519   0.00000  Uiso   1.00
O480   O     0.77387   0.76279   0.25482   0.00000  Uiso   1.00
O481   O     0.78514   0.83784   0.31998   0.00000  Uiso   1.00
O482   O     0.88153   0.82883   0.18003   0.00000  Uiso   1.00
O483   O     0.88152   0.82885   0.31218   0.00000  Uiso   1.00
O484   O     0.78515   0.83781   0.18783   0.00000  Uiso   1.00
Zn485  Zn    0.76898   0.83933   0.25521   0.00000  Uiso   1.00
Zn486  Zn    0.89769   0.82734   0.24479   0.00000  Uiso   1.00
C487   C     0.18138   0.26474   0.74950   0.00000  Uiso   1.00
C488   C     0.21745   0.18121   0.90442   0.00000  Uiso   1.00
C489   C     0.16599   0.16764   0.61563   0.00000  Uiso   1.00
C490   C     0.16731   0.16576   0.88438   0.00000  Uiso   1.00
C491   C     0.21625   0.18319   0.59004   0.00000  Uiso   1.00
C492   C     0.11705   0.15022   0.90996   0.00000  Uiso   1.00
C493   C     0.21681   0.18322   0.54378   0.00000  Uiso   1.00
C494   C     0.11646   0.15025   0.95623   0.00000  Uiso   1.00
C495   C     0.16645   0.16708   0.52328   0.00000  Uiso   1.00
C496   C     0.16682   0.16641   0.97674   0.00000  Uiso   1.00
C497   C     0.11574   0.15154   0.54932   0.00000  Uiso   1.00
C498   C     0.15186   0.06873   0.75071   0.00000  Uiso   1.00
C499   C     0.21752   0.18195   0.95070   0.00000  Uiso   1.00
C500   C     0.26681   0.19896   0.51780   0.00000  Uiso   1.00
C501   C     0.06645   0.13453   0.98222   0.00000  Uiso   1.00
C502   C     0.26719   0.19828   0.97129   0.00000  Uiso   1.00
C503   C     0.06607   0.13523   0.52873   0.00000  Uiso   1.00
C504   C     0.18718   0.31890   0.75674   0.00000  Uiso   1.00
C505   C     0.14525   0.01493   0.74411   0.00000  Uiso   1.00
C506   C     0.16696   0.16647   0.83655   0.00000  Uiso   1.00
C507   C     0.16637   0.16688   0.66345   0.00000  Uiso   1.00
C508   C     0.11582   0.15226   0.59559   0.00000  Uiso   1.00
H509   H     0.07731   0.13996   0.61592   0.00000  Uiso   1.00
H510   H     0.21320   0.01781   0.81494   0.00000  Uiso   1.00
H511   H     0.11521   0.30574   0.69058   0.00000  Uiso   1.00
H512   H     0.06688   0.31063   0.73729   0.00000  Uiso   1.00
H513   H     0.32707   0.08101   0.71566   0.00000  Uiso   1.00
H514   H     0.33170   0.12567   0.67605   0.00000  Uiso   1.00
H515   H     0.00679   0.25136   0.78676   0.00000  Uiso   1.00
H516   H     0.00100   0.20490   0.82464   0.00000  Uiso   1.00
H517   H     0.25595   0.19355   0.88411   0.00000  Uiso   1.00
H518   H     0.30548   0.21169   0.53343   0.00000  Uiso   1.00
H519   H     0.02779   0.12179   0.96658   0.00000  Uiso   1.00
H520   H     0.30617   0.21042   0.95146   0.00000  Uiso   1.00
H521   H     0.02709   0.12309   0.54856   0.00000  Uiso   1.00
H522   H     0.25477   0.19551   0.60616   0.00000  Uiso   1.00
H523   H     0.07855   0.13787   0.89385   0.00000  Uiso   1.00
H524   H     0.26118   0.31197   0.78902   0.00000  Uiso   1.00
N525   N     0.31678   0.15265   0.73783   0.00000  Uiso   1.00
N526   N     0.01656   0.18068   0.76217   0.00000  Uiso   1.00
N527   N     0.23232   0.00673   0.78337   0.00000  Uiso   1.00
N528   N     0.09946   0.32979   0.71726   0.00000  Uiso   1.00
N529   N     0.01085   0.11807   0.70779   0.00000  Uiso   1.00
N530   N     0.32239   0.21416   0.79314   0.00000  Uiso   1.00
O531   O     0.12975   0.24619   0.75299   0.00000  Uiso   1.00
O532   O     0.20358   0.08714   0.74701   0.00000  Uiso   1.00
O533   O     0.22613   0.23721   0.74519   0.00000  Uiso   1.00
O534   O     0.10720   0.09613   0.75482   0.00000  Uiso   1.00
O535   O     0.11847   0.17117   0.81998   0.00000  Uiso   1.00
O536   O     0.21486   0.16216   0.68003   0.00000  Uiso   1.00
O537   O     0.21485   0.16219   0.81218   0.00000  Uiso   1.00
O538   O     0.11848   0.17115   0.68783   0.00000  Uiso   1.00
Zn539  Zn    0.10231   0.17266   0.75521   0.00000  Uiso   1.00
Zn540  Zn    0.23102   0.16067   0.74479   0.00000  Uiso   1.00
C541   C     0.51471   0.26474   0.74950   0.00000  Uiso   1.00
C542   C     0.55078   0.18121   0.90442   0.00000  Uiso   1.00
C543   C     0.49933   0.16764   0.61563   0.00000  Uiso   1.00
C544   C     0.50065   0.16576   0.88438   0.00000  Uiso   1.00
C545   C     0.54958   0.18319   0.59004   0.00000  Uiso   1.00
C546   C     0.45038   0.15022   0.90996   0.00000  Uiso   1.00
C547   C     0.55015   0.18322   0.54378   0.00000  Uiso   1.00
C548   C     0.44979   0.15025   0.95623   0.00000  Uiso   1.00
C549   C     0.49978   0.16708   0.52328   0.00000  Uiso   1.00
C550   C     0.50015   0.16641   0.97674   0.00000  Uiso   1.00
C551   C     0.44908   0.15154   0.54932   0.00000  Uiso   1.00
C552   C     0.48519   0.06873   0.75071   0.00000  Uiso   1.00
C553   C     0.55085   0.18195   0.95070   0.00000  Uiso   1.00
C554   C     0.60015   0.19896   0.51780   0.00000  Uiso   1.00
C555   C     0.39979   0.13453   0.98222   0.00000  Uiso   1.00
C556   C     0.60052   0.19828   0.97129   0.00000  Uiso   1.00
C557   C     0.39940   0.13523   0.52873   0.00000  Uiso   1.00
C558   C     0.52052   0.31890   0.75674   0.00000  Uiso   1.00
C559   C     0.47859   0.01493   0.74411   0.00000  Uiso   1.00
C560   C     0.50030   0.16647   0.83655   0.00000  Uiso   1.00
C561   C     0.49970   0.16688   0.66345   0.00000  Uiso   1.00
C562   C     0.44916   0.15226   0.59559   0.00000  Uiso   1.00
H563   H     0.41064   0.13996   0.61592   0.00000  Uiso   1.00
H564   H     0.54653   0.01781   0.81494   0.00000  Uiso   1.00
H565   H     0.44854   0.30574   0.69058   0.00000  Uiso   1.00
H566   H     0.40021   0.31063   0.73729   0.00000  Uiso   1.00
H567   H     0.66041   0.08101   0.71566   0.00000  Uiso   1.00
H568   H     0.66504   0.12567   0.67605   0.00000  Uiso   1.00
H569   H     0.34012   0.25136   0.78676   0.00000  Uiso   1.00
H570   H     0.33434   0.20490   0.82464   0.00000  Uiso   1.00
H571   H     0.58928   0.19355   0.88411   0.00000  Uiso   1.00
H572   H     0.63882   0.21169   0.53343   0.00000  Uiso   1.00
H573   H     0.36112   0.12179   0.96658   0.00000  Uiso   1.00
H574   H     0.63950   0.21042   0.95146   0.00000  Uiso   1.00
H575   H     0.36042   0.12309   0.54856   0.00000  Uiso   1.00
H576   H     0.58810   0.19551   0.60616   0.00000  Uiso   1.00
H577   H     0.41188   0.13787   0.89385   0.00000  Uiso   1.00
H578   H     0.59452   0.31197   0.78902   0.00000  Uiso   1.00
N579   N     0.65011   0.15265   0.73783   0.00000  Uiso   1.00
N580   N     0.34989   0.18068   0.76217   0.00000  Uiso   1.00
N581   N     0.56566   0.00673   0.78337   0.00000  Uiso   1.00
N582   N     0.43279   0.32979   0.71726   0.00000  Uiso   1.00
N583   N     0.34419   0.11807   0.70779   0.00000  Uiso   1.00
N584   N     0.65572   0.21416   0.79314   0.00000  Uiso   1.00
O585   O     0.46308   0.24619   0.75299   0.00000  Uiso   1.00
O586   O     0.53692   0.08714   0.74701   0.00000  Uiso   1.00
O587   O     0.55946   0.23721   0.74519   0.00000  Uiso   1.00
O588   O     0.44054   0.09613   0.75482   0.00000  Uiso   1.00
O589   O     0.45181   0.17117   0.81998   0.00000  Uiso   1.00
O590   O     0.54819   0.16216   0.68003   0.00000  Uiso   1.00
O591   O     0.54819   0.16219   0.81218   0.00000  Uiso   1.00
O592   O     0.45181   0.17115   0.68783   0.00000  Uiso   1.00
Zn593  Zn    0.43565   0.17266   0.75521   0.00000  Uiso   1.00
Zn594  Zn    0.56435   0.16067   0.74479   0.00000  Uiso   1.00
C595   C     0.84804   0.26474   0.74950   0.00000  Uiso   1.00
C596   C     0.88412   0.18121   0.90442   0.00000  Uiso   1.00
C597   C     0.83266   0.16764   0.61563   0.00000  Uiso   1.00
C598   C     0.83398   0.16576   0.88438   0.00000  Uiso   1.00
C599   C     0.88292   0.18319   0.59004   0.00000  Uiso   1.00
C600   C     0.78371   0.15022   0.90996   0.00000  Uiso   1.00
C601   C     0.88348   0.18322   0.54378   0.00000  Uiso   1.00
C602   C     0.78313   0.15025   0.95623   0.00000  Uiso   1.00
C603   C     0.83312   0.16708   0.52328   0.00000  Uiso   1.00
C604   C     0.83348   0.16641   0.97674   0.00000  Uiso   1.00
C605   C     0.78241   0.15154   0.54932   0.00000  Uiso   1.00
C606   C     0.81853   0.06873   0.75071   0.00000  Uiso   1.00
C607   C     0.88419   0.18195   0.95070   0.00000  Uiso   1.00
C608   C     0.93348   0.19896   0.51780   0.00000  Uiso   1.00
C609   C     0.73312   0.13453   0.98222   0.00000  Uiso   1.00
C610   C     0.93385   0.19828   0.97129   0.00000  Uiso   1.00
C611   C     0.73274   0.13523   0.52873   0.00000  Uiso   1.00
C612   C     0.85385   0.31890   0.75674   0.00000  Uiso   1.00
C613   C     0.81192   0.01493   0.74411   0.00000  Uiso   1.00
C614   C     0.83363   0.16647   0.83655   0.00000  Uiso   1.00
C615   C     0.83303   0.16688   0.66345   0.00000  Uiso   1.00
C616   C     0.78249   0.15226   0.59559   0.00000  Uiso   1.00
H617   H     0.74397   0.13996   0.61592   0.00000  Uiso   1.00
H618   H     0.87987   0.01781   0.81494   0.00000  Uiso   1.00
H619   H     0.78188   0.30574   0.69058   0.00000  Uiso   1.00
H620   H     0.73355   0.31063   0.73729   0.00000  Uiso   1.00
H621   H     0.99374   0.08101   0.71566   0.00000  Uiso   1.00
H622   H     0.99837   0.12567   0.67605   0.00000  Uiso   1.00
H623   H     0.67345   0.25136   0.78676   0.00000  Uiso   1.00
H624   H     0.66767   0.20490   0.82464   0.00000  Uiso   1.00
H625   H     0.92262   0.19355   0.88411   0.00000  Uiso   1.00
H626   H     0.97215   0.21169   0.53343   0.00000  Uiso   1.00
H627   H     0.69445   0.12179   0.96658   0.00000  Uiso   1.00
H628   H     0.97284   0.21042   0.95146   0.00000  Uiso   1.00
H629   H     0.69375   0.12309   0.54856   0.00000  Uiso   1.00
H630   H     0.92143   0.19551   0.60616   0.00000  Uiso   1.00
H631   H     0.74521   0.13787   0.89385   0.00000  Uiso   1.00
H632   H     0.92785   0.31197   0.78902   0.00000  Uiso   1.00
N633   N     0.98344   0.15265   0.73783   0.00000  Uiso   1.00
N634   N     0.68322   0.18068   0.76217   0.00000  Uiso   1.00
N635   N     0.89899   0.00673   0.78337   0.00000  Uiso   1.00
N636   N     0.76613   0.32979   0.71726   0.00000  Uiso   1.00
N637   N     0.67752   0.11807   0.70779   0.00000  Uiso   1.00
N638   N     0.98905   0.21416   0.79314   0.00000  Uiso   1.00
O639   O     0.79642   0.24619   0.75299   0.00000  Uiso   1.00
O640   O     0.87025   0.08714   0.74701   0.00000  Uiso   1.00
O641   O     0.89280   0.23721   0.74519   0.00000  Uiso   1.00
O642   O     0.77387   0.09613   0.75482   0.00000  Uiso   1.00
O643   O     0.78514   0.17117   0.81998   0.00000  Uiso   1.00
O644   O     0.88153   0.16216   0.68003   0.00000  Uiso   1.00
O645   O     0.88152   0.16219   0.81218   0.00000  Uiso   1.00
O646   O     0.78515   0.17115   0.68783   0.00000  Uiso   1.00
Zn647  Zn    0.76898   0.17266   0.75521   0.00000  Uiso   1.00
Zn648  Zn    0.89769   0.16067   0.74479   0.00000  Uiso   1.00
C649   C     0.18138   0.59807   0.74950   0.00000  Uiso   1.00
C650   C     0.21745   0.51454   0.90442   0.00000  Uiso   1.00
C651   C     0.16599   0.50098   0.61563   0.00000  Uiso   1.00
C652   C     0.16731   0.49909   0.88438   0.00000  Uiso   1.00
C653   C     0.21625   0.51652   0.59004   0.00000  Uiso   1.00
C654   C     0.11705   0.48356   0.90996   0.00000  Uiso   1.00
C655   C     0.21681   0.51655   0.54378   0.00000  Uiso   1.00
C656   C     0.11646   0.48358   0.95623   0.00000  Uiso   1.00
C657   C     0.16645   0.50041   0.52328   0.00000  Uiso   1.00
C658   C     0.16682   0.49974   0.97674   0.00000  Uiso   1.00
C659   C     0.11574   0.48488   0.54932   0.00000  Uiso   1.00
C660   C     0.15186   0.40206   0.75071   0.00000  Uiso   1.00
C661   C     0.21752   0.51528   0.95070   0.00000  Uiso   1.00
C662   C     0.26681   0.53229   0.51780   0.00000  Uiso   1.00
C663   C     0.06645   0.46786   0.98222   0.00000  Uiso   1.00
C664   C     0.26719   0.53161   0.97129   0.00000  Uiso   1.00
C665   C     0.06607   0.46857   0.52873   0.00000  Uiso   1.00
C666   C     0.18718   0.65223   0.75674   0.00000  Uiso   1.00
C667   C     0.14525   0.34826   0.74411   0.00000  Uiso   1.00
C668   C     0.16696   0.49981   0.83655   0.00000  Uiso   1.00
C669   C     0.16637   0.50021   0.66345   0.00000  Uiso   1.00
C670   C     0.11582   0.48560   0.59559   0.00000  Uiso   1.00
H671   H     0.07731   0.47329   0.61592   0.00000  Uiso   1.00
H672   H     0.21320   0.35114   0.81494   0.00000  Uiso   1.00
H673   H     0.11521   0.63907   0.69058   0.00000  Uiso   1.00
H674   H     0.06688   0.64396   0.73729   0.00000  Uiso   1.00
H675   H     0.32707   0.41435   0.71566   0.00000  Uiso   1.00
H676   H     0.33170   0.45900   0.67605   0.00000  Uiso   1.00
H677   H     0.00679   0.58470   0.78676   0.00000  Uiso   1.00
H678   H     0.00100   0.53823   0.82464   0.00000  Uiso   1.00
H679   H     0.25595   0.52688   0.88411   0.00000  Uiso   1.00
H680   H     0.30548   0.54502   0.53343   0.00000  Uiso   1.00
H681   H     0.02779   0.45513   0.96658   0.00000  Uiso   1.00
H682   H     0.30617   0.54376   0.95146   0.00000  Uiso   1.00
H683   H     0.02709   0.45643   0.54856   0.00000  Uiso   1.00
H684   H     0.25477   0.52884   0.60616   0.00000  Uiso   1.00
H685   H     0.07855   0.47120   0.89385   0.00000  Uiso   1.00
H686   H     0.26118   0.64530   0.78902   0.00000  Uiso   1.00
N687   N     0.31678   0.48598   0.73783   0.00000  Uiso   1.00
N688   N     0.01656   0.51402   0.76217   0.00000  Uiso   1.00
N689   N     0.23232   0.34006   0.78337   0.00000  Uiso   1.00
N690   N     0.09946   0.66312   0.71726   0.00000  Uiso   1.00
N691   N     0.01085   0.45141   0.70779   0.00000  Uiso   1.00
N692   N     0.32239   0.54749   0.79314   0.00000  Uiso   1.00
O693   O     0.12975   0.57952   0.75299   0.00000  Uiso   1.00
O694   O     0.20358   0.42048   0.74701   0.00000  Uiso   1.00
O695   O     0.22613   0.57054   0.74519   0.00000  Uiso   1.00
O696   O     0.10720   0.42946   0.75482   0.00000  Uiso   1.00
O697   O     0.11847   0.50450   0.81998   0.00000  Uiso   1.00
O698   O     0.21486   0.49550   0.68003   0.00000  Uiso   1.00
O699   O     0.21485   0.49552   0.81218   0.00000  Uiso   1.00
O700   O     0.11848   0.50448   0.68783   0.00000  Uiso   1.00
Zn701  Zn    0.10231   0.50600   0.75521   0.00000  Uiso   1.00
Zn702  Zn    0.23102   0.49400   0.74479   0.00000  Uiso   1.00
C703   C     0.51471   0.59807   0.74950   0.00000  Uiso   1.00
C704   C     0.55078   0.51454   0.90442   0.00000  Uiso   1.00
C705   C     0.49933   0.50098   0.61563   0.00000  Uiso   1.00
C706   C     0.50065   0.49909   0.88438   0.00000  Uiso   1.00
C707   C     0.54958   0.51652   0.59004   0.00000  Uiso   1.00
C708   C     0.45038   0.48356   0.90996   0.00000  Uiso   1.00
C709   C     0.55015   0.51655   0.54378   0.00000  Uiso   1.00
C710   C     0.44979   0.48358   0.95623   0.00000  Uiso   1.00
C711   C     0.49978   0.50041   0.52328   0.00000  Uiso   1.00
C712   C     0.50015   0.49974   0.97674   0.00000  Uiso   1.00
C713   C     0.44908   0.48488   0.54932   0.00000  Uiso   1.00
C714   C     0.48519   0.40206   0.75071   0.00000  Uiso   1.00
C715   C     0.55085   0.51528   0.95070   0.00000  Uiso   1.00
C716   C     0.60015   0.53229   0.51780   0.00000  Uiso   1.00
C717   C     0.39979   0.46786   0.98222   0.00000  Uiso   1.00
C718   C     0.60052   0.53161   0.97129   0.00000  Uiso   1.00
C719   C     0.39940   0.46857   0.52873   0.00000  Uiso   1.00
C720   C     0.52052   0.65223   0.75674   0.00000  Uiso   1.00
C721   C     0.47859   0.34826   0.74411   0.00000  Uiso   1.00
C722   C     0.50030   0.49981   0.83655   0.00000  Uiso   1.00
C723   C     0.49970   0.50021   0.66345   0.00000  Uiso   1.00
C724   C     0.44916   0.48560   0.59559   0.00000  Uiso   1.00
H725   H     0.41064   0.47329   0.61592   0.00000  Uiso   1.00
H726   H     0.54653   0.35114   0.81494   0.00000  Uiso   1.00
H727   H     0.44854   0.63907   0.69058   0.00000  Uiso   1.00
H728   H     0.40021   0.64396   0.73729   0.00000  Uiso   1.00
H729   H     0.66041   0.41435   0.71566   0.00000  Uiso   1.00
H730   H     0.66504   0.45900   0.67605   0.00000  Uiso   1.00
H731   H     0.34012   0.58470   0.78676   0.00000  Uiso   1.00
H732   H     0.33434   0.53823   0.82464   0.00000  Uiso   1.00
H733   H     0.58928   0.52688   0.88411   0.00000  Uiso   1.00
H734   H     0.63882   0.54502   0.53343   0.00000  Uiso   1.00
H735   H     0.36112   0.45513   0.96658   0.00000  Uiso   1.00
H736   H     0.63950   0.54376   0.95146   0.00000  Uiso   1.00
H737   H     0.36042   0.45643   0.54856   0.00000  Uiso   1.00
H738   H     0.58810   0.52884   0.60616   0.00000  Uiso   1.00
H739   H     0.41188   0.47120   0.89385   0.00000  Uiso   1.00
H740   H     0.59452   0.64530   0.78902   0.00000  Uiso   1.00
N741   N     0.65011   0.48598   0.73783   0.00000  Uiso   1.00
N742   N     0.34989   0.51402   0.76217   0.00000  Uiso   1.00
N743   N     0.56566   0.34006   0.78337   0.00000  Uiso   1.00
N744   N     0.43279   0.66312   0.71726   0.00000  Uiso   1.00
N745   N     0.34419   0.45141   0.70779   0.00000  Uiso   1.00
N746   N     0.65572   0.54749   0.79314   0.00000  Uiso   1.00
O747   O     0.46308   0.57952   0.75299   0.00000  Uiso   1.00
O748   O     0.53692   0.42048   0.74701   0.00000  Uiso   1.00
O749   O     0.55946   0.57054   0.74519   0.00000  Uiso   1.00
O750   O     0.44054   0.42946   0.75482   0.00000  Uiso   1.00
O751   O     0.45181   0.50450   0.81998   0.00000  Uiso   1.00
O752   O     0.54819   0.49550   0.68003   0.00000  Uiso   1.00
O753   O     0.54819   0.49552   0.81218   0.00000  Uiso   1.00
O754   O     0.45181   0.50448   0.68783   0.00000  Uiso   1.00
Zn755  Zn    0.43565   0.50600   0.75521   0.00000  Uiso   1.00
Zn756  Zn    0.56435   0.49400   0.74479   0.00000  Uiso   1.00
C757   C     0.84804   0.59807   0.74950   0.00000  Uiso   1.00
C758   C     0.88412   0.51454   0.90442   0.00000  Uiso   1.00
C759   C     0.83266   0.50098   0.61563   0.00000  Uiso   1.00
C760   C     0.83398   0.49909   0.88438   0.00000  Uiso   1.00
C761   C     0.88292   0.51652   0.59004   0.00000  Uiso   1.00
C762   C     0.78371   0.48356   0.90996   0.00000  Uiso   1.00
C763   C     0.88348   0.51655   0.54378   0.00000  Uiso   1.00
C764   C     0.78313   0.48358   0.95623   0.00000  Uiso   1.00
C765   C     0.83312   0.50041   0.52328   0.00000  Uiso   1.00
C766   C     0.83348   0.49974   0.97674   0.00000  Uiso   1.00
C767   C     0.78241   0.48488   0.54932   0.00000  Uiso   1.00
C768   C     0.81853   0.40206   0.75071   0.00000  Uiso   1.00
C769   C     0.88419   0.51528   0.95070   0.00000  Uiso   1.00
C770   C     0.93348   0.53229   0.51780   0.00000  Uiso   1.00
C771   C     0.73312   0.46786   0.98222   0.00000  Uiso   1.00
C772   C     0.93385   0.53161   0.97129   0.00000  Uiso   1.00
C773   C     0.73274   0.46857   0.52873   0.00000  Uiso   1.00
C774   C     0.85385   0.65223   0.75674   0.00000  Uiso   1.00
C775   C     0.81192   0.34826   0.74411   0.00000  Uiso   1.00
C776   C     0.83363   0.49981   0.83655   0.00000  Uiso   1.00
C777   C     0.83303   0.50021   0.66345   0.00000  Uiso   1.00
C778   C     0.78249   0.48560   0.59559   0.00000  Uiso   1.00
H779   H     0.74397   0.47329   0.61592   0.00000  Uiso   1.00
H780   H     0.87987   0.35114   0.81494   0.00000  Uiso   1.00
H781   H     0.78188   0.63907   0.69058   0.00000  Uiso   1.00
H782   H     0.73355   0.64396   0.73729   0.00000  Uiso   1.00
H783   H     0.99374   0.41435   0.71566   0.00000  Uiso   1.00
H784   H     0.99837   0.45900   0.67605   0.00000  Uiso   1.00
H785   H     0.67345   0.58470   0.78676   0.00000  Uiso   1.00
H786   H     0.66767   0.53823   0.82464   0.00000  Uiso   1.00
H787   H     0.92262   0.52688   0.88411   0.00000  Uiso   1.00
H788   H     0.97215   0.54502   0.53343   0.00000  Uiso   1.00
H789   H     0.69445   0.45513   0.96658   0.00000  Uiso   1.00
H790   H     0.97284   0.54376   0.95146   0.00000  Uiso   1.00
H791   H     0.69375   0.45643   0.54856   0.00000  Uiso   1.00
H792   H     0.92143   0.52884   0.60616   0.00000  Uiso   1.00
H793   H     0.74521   0.47120   0.89385   0.00000  Uiso   1.00
H794   H     0.92785   0.64530   0.78902   0.00000  Uiso   1.00
N795   N     0.98344   0.48598   0.73783   0.00000  Uiso   1.00
N796   N     0.68322   0.51402   0.76217   0.00000  Uiso   1.00
N797   N     0.89899   0.34006   0.78337   0.00000  Uiso   1.00
N798   N     0.76613   0.66312   0.71726   0.00000  Uiso   1.00
N799   N     0.67752   0.45141   0.70779   0.00000  Uiso   1.00
N800   N     0.98905   0.54749   0.79314   0.00000  Uiso   1.00
O801   O     0.79642   0.57952   0.75299   0.00000  Uiso   1.00
O802   O     0.87025   0.42048   0.74701   0.00000  Uiso   1.00
O803   O     0.89280   0.57054   0.74519   0.00000  Uiso   1.00
O804   O     0.77387   0.42946   0.75482   0.00000  Uiso   1.00
O805   O     0.78514   0.50450   0.81998   0.00000  Uiso   1.00
O806   O     0.88153   0.49550   0.68003   0.00000  Uiso   1.00
O807   O     0.88152   0.49552   0.81218   0.00000  Uiso   1.00
O808   O     0.78515   0.50448   0.68783   0.00000  Uiso   1.00
Zn809  Zn    0.76898   0.50600   0.75521   0.00000  Uiso   1.00
Zn810  Zn    0.89769   0.49400   0.74479   0.00000  Uiso   1.00
C811   C     0.18138   0.93140   0.74950   0.00000  Uiso   1.00
C812   C     0.21745   0.84788   0.90442   0.00000  Uiso   1.00
C813   C     0.16599   0.83431   0.61563   0.00000  Uiso   1.00
C814   C     0.16731   0.83243   0.88438   0.00000  Uiso   1.00
C815   C     0.21625   0.84986   0.59004   0.00000  Uiso   1.00
C816   C     0.11705   0.81689   0.90996   0.00000  Uiso   1.00
C817   C     0.21681   0.84989   0.54378   0.00000  Uiso   1.00
C818   C     0.11646   0.81691   0.95623   0.00000  Uiso   1.00
C819   C     0.16645   0.83374   0.52328   0.00000  Uiso   1.00
C820   C     0.16682   0.83308   0.97674   0.00000  Uiso   1.00
C821   C     0.11574   0.81821   0.54932   0.00000  Uiso   1.00
C822   C     0.15186   0.73539   0.75071   0.00000  Uiso   1.00
C823   C     0.21752   0.84862   0.95070   0.00000  Uiso   1.00
C824   C     0.26681   0.86563   0.51780   0.00000  Uiso   1.00
C825   C     0.06645   0.80120   0.98222   0.00000  Uiso   1.00
C826   C     0.26719   0.86494   0.97129   0.00000  Uiso   1.00
C827   C     0.06607   0.80190   0.52873   0.00000  Uiso   1.00
C828   C     0.18718   0.98557   0.75674   0.00000  Uiso   1.00
C829   C     0.14525   0.68160   0.74411   0.00000  Uiso   1.00
C830   C     0.16696   0.83314   0.83655   0.00000  Uiso   1.00
C831   C     0.16637   0.83354   0.66345   0.00000  Uiso   1.00
C832   C     0.11582   0.81893   0.59559   0.00000  Uiso   1.00
H833   H     0.07731   0.80662   0.61592   0.00000  Uiso   1.00
H834   H     0.21320   0.68447   0.81494   0.00000  Uiso   1.00
H835   H     0.11521   0.97240   0.69058   0.00000  Uiso   1.00
H836   H     0.06688   0.97729   0.73729   0.00000  Uiso   1.00
H837   H     0.32707   0.74768   0.71566   0.00000  Uiso   1.00
H838   H     0.33170   0.79234   0.67605   0.00000  Uiso   1.00
H839   H     0.00679   0.91803   0.78676   0.00000  Uiso   1.00
H840   H     0.00100   0.87157   0.82464   0.00000  Uiso   1.00
H841   H     0.25595   0.86022   0.88411   0.00000  Uiso   1.00
H842   H     0.30548   0.87836   0.53343   0.00000  Uiso   1.00
H843   H     0.02779   0.78846   0.96658   0.00000  Uiso   1.00
H844   H     0.30617   0.87709   0.95146   0.00000  Uiso   1.00
H845   H     0.02709   0.78976   0.54856   0.00000  Uiso   1.00
H846   H     0.25477   0.86218   0.60616   0.00000  Uiso   1.00
H847   H     0.07855   0.80454   0.89385   0.00000  Uiso   1.00
H848   H     0.26118   0.97864   0.78902   0.00000  Uiso   1.00
N849   N     0.31678   0.81932   0.73783   0.00000  Uiso   1.00
N850   N     0.01656   0.84735   0.76217   0.00000  Uiso   1.00
N851   N     0.23232   0.67340   0.78337   0.00000  Uiso   1.00
N852   N     0.09946   0.99646   0.71726   0.00000  Uiso   1.00
N853   N     0.01085   0.78474   0.70779   0.00000  Uiso   1.00
N854   N     0.32239   0.88083   0.79314   0.00000  Uiso   1.00
O855   O     0.12975   0.91286   0.75299   0.00000  Uiso   1.00
O856   O     0.20358   0.75381   0.74701   0.00000  Uiso   1.00
O857   O     0.22613   0.90387   0.74519   0.00000  Uiso   1.00
O858   O     0.10720   0.76279   0.75482   0.00000  Uiso   1.00
O859   O     0.11847   0.83784   0.81998   0.00000  Uiso   1.00
O860   O     0.21486   0.82883   0.68003   0.00000  Uiso   1.00
O861   O     0.21485   0.82885   0.81218   0.00000  Uiso   1.00
O862   O     0.11848   0.83781   0.68783   0.00000  Uiso   1.00
Zn863  Zn    0.10231   0.83933   0.75521   0.00000  Uiso   1.00
Zn864  Zn    0.23102   0.82734   0.74479   0.00000  Uiso   1.00
C865   C     0.51471   0.93140   0.74950   0.00000  Uiso   1.00
C866   C     0.55078   0.84788   0.90442   0.00000  Uiso   1.00
C867   C     0.49933   0.83431   0.61563   0.00000  Uiso   1.00
C868   C     0.50065   0.83243   0.88438   0.00000  Uiso   1.00
C869   C     0.54958   0.84986   0.59004   0.00000  Uiso   1.00
C870   C     0.45038   0.81689   0.90996   0.00000  Uiso   1.00
C871   C     0.55015   0.84989   0.54378   0.00000  Uiso   1.00
C872   C     0.44979   0.81691   0.95623   0.00000  Uiso   1.00
C873   C     0.49978   0.83374   0.52328   0.00000  Uiso   1.00
C874   C     0.50015   0.83308   0.97674   0.00000  Uiso   1.00
C875   C     0.44908   0.81821   0.54932   0.00000  Uiso   1.00
C876   C     0.48519   0.73539   0.75071   0.00000  Uiso   1.00
C877   C     0.55085   0.84862   0.95070   0.00000  Uiso   1.00
C878   C     0.60015   0.86563   0.51780   0.00000  Uiso   1.00
C879   C     0.39979   0.80120   0.98222   0.00000  Uiso   1.00
C880   C     0.60052   0.86494   0.97129   0.00000  Uiso   1.00
C881   C     0.39940   0.80190   0.52873   0.00000  Uiso   1.00
C882   C     0.52052   0.98557   0.75674   0.00000  Uiso   1.00
C883   C     0.47859   0.68160   0.74411   0.00000  Uiso   1.00
C884   C     0.50030   0.83314   0.83655   0.00000  Uiso   1.00
C885   C     0.49970   0.83354   0.66345   0.00000  Uiso   1.00
C886   C     0.44916   0.81893   0.59559   0.00000  Uiso   1.00
H887   H     0.41064   0.80662   0.61592   0.00000  Uiso   1.00
H888   H     0.54653   0.68447   0.81494   0.00000  Uiso   1.00
H889   H     0.44854   0.97240   0.69058   0.00000  Uiso   1.00
H890   H     0.40021   0.97729   0.73729   0.00000  Uiso   1.00
H891   H     0.66041   0.74768   0.71566   0.00000  Uiso   1.00
H892   H     0.66504   0.79234   0.67605   0.00000  Uiso   1.00
H893   H     0.34012   0.91803   0.78676   0.00000  Uiso   1.00
H894   H     0.33434   0.87157   0.82464   0.00000  Uiso   1.00
H895   H     0.58928   0.86022   0.88411   0.00000  Uiso   1.00
H896   H     0.63882   0.87836   0.53343   0.00000  Uiso   1.00
H897   H     0.36112   0.78846   0.96658   0.00000  Uiso   1.00
H898   H     0.63950   0.87709   0.95146   0.00000  Uiso   1.00
H899   H     0.36042   0.78976   0.54856   0.00000  Uiso   1.00
H900   H     0.58810   0.86218   0.60616   0.00000  Uiso   1.00
H901   H     0.41188   0.80454   0.89385   0.00000  Uiso   1.00
H902   H     0.59452   0.97864   0.78902   0.00000  Uiso   1.00
N903   N     0.65011   0.81932   0.73783   0.00000  Uiso   1.00
N904   N     0.34989   0.84735   0.76217   0.00000  Uiso   1.00
N905   N     0.56566   0.67340   0.78337   0.00000  Uiso   1.00
N906   N     0.43279   0.99646   0.71726   0.00000  Uiso   1.00
N907   N     0.34419   0.78474   0.70779   0.00000  Uiso   1.00
N908   N     0.65572   0.88083   0.79314   0.00000  Uiso   1.00
O909   O     0.46308   0.91286   0.75299   0.00000  Uiso   1.00
O910   O     0.53692   0.75381   0.74701   0.00000  Uiso   1.00
O911   O     0.55946   0.90387   0.74519   0.00000  Uiso   1.00
O912   O     0.44054   0.76279   0.75482   0.00000  Uiso   1.00
O913   O     0.45181   0.83784   0.81998   0.00000  Uiso   1.00
O914   O     0.54819   0.82883   0.68003   0.00000  Uiso   1.00
O915   O     0.54819   0.82885   0.81218   0.00000  Uiso   1.00
O916   O     0.45181   0.83781   0.68783   0.00000  Uiso   1.00
Zn917  Zn    0.43565   0.83933   0.75521   0.00000  Uiso   1.00
Zn918  Zn    0.56435   0.82734   0.74479   0.00000  Uiso   1.00
C919   C     0.84804   0.93140   0.74950   0.00000  Uiso   1.00
C920   C     0.88412   0.84788   0.90442   0.00000  Uiso   1.00
C921   C     0.83266   0.83431   0.61563   0.00000  Uiso   1.00
C922   C     0.83398   0.83243   0.88438   0.00000  Uiso   1.00
C923   C     0.88292   0.84986   0.59004   0.00000  Uiso   1.00
C924   C     0.78371   0.81689   0.90996   0.00000  Uiso   1.00
C925   C     0.88348   0.84989   0.54378   0.00000  Uiso   1.00
C926   C     0.78313   0.81691   0.95623   0.00000  Uiso   1.00
C927   C     0.83312   0.83374   0.52328   0.00000  Uiso   1.00
C928   C     0.83348   0.83308   0.97674   0.00000  Uiso   1.00
C929   C     0.78241   0.81821   0.54932   0.00000  Uiso   1.00
C930   C     0.81853   0.73539   0.75071   0.00000  Uiso   1.00
C931   C     0.88419   0.84862   0.95070   0.00000  Uiso   1.00
C932   C     0.93348   0.86563   0.51780   0.00000  Uiso   1.00
C933   C     0.73312   0.80120   0.98222   0.00000  Uiso   1.00
C934   C     0.93385   0.86494   0.97129   0.00000  Uiso   1.00
C935   C     0.73274   0.80190   0.52873   0.00000  Uiso   1.00
C936   C     0.85385   0.98557   0.75674   0.00000  Uiso   1.00
C937   C     0.81192   0.68160   0.74411   0.00000  Uiso   1.00
C938   C     0.83363   0.83314   0.83655   0.00000  Uiso   1.00
C939   C     0.83303   0.83354   0.66345   0.00000  Uiso   1.00
C940   C     0.78249   0.81893   0.59559   0.00000  Uiso   1.00
H941   H     0.74397   0.80662   0.61592   0.00000  Uiso   1.00
H942   H     0.87987   0.68447   0.81494   0.00000  Uiso   1.00
H943   H     0.78188   0.97240   0.69058   0.00000  Uiso   1.00
H944   H     0.73355   0.97729   0.73729   0.00000  Uiso   1.00
H945   H     0.99374   0.74768   0.71566   0.00000  Uiso   1.00
H946   H     0.99837   0.79234   0.67605   0.00000  Uiso   1.00
H947   H     0.67345   0.91803   0.78676   0.00000  Uiso   1.00
H948   H     0.66767   0.87157   0.82464   0.00000  Uiso   1.00
H949   H     0.92262   0.86022   0.88411   0.00000  Uiso   1.00
H950   H     0.97215   0.87836   0.53343   0.00000  Uiso   1.00
H951   H     0.69445   0.78846   0.96658   0.00000  Uiso   1.00
H952   H     0.97284   0.87709   0.95146   0.00000  Uiso   1.00
H953   H     0.69375   0.78976   0.54856   0.00000  Uiso   1.00
H954   H     0.92143   0.86218   0.60616   0.00000  Uiso   1.00
H955   H     0.74521   0.80454   0.89385   0.00000  Uiso   1.00
H956   H     0.92785   0.97864   0.78902   0.00000  Uiso   1.00
N957   N     0.98344   0.81932   0.73783   0.00000  Uiso   1.00
N958   N     0.68322   0.84735   0.76217   0.00000  Uiso   1.00
N959   N     0.89899   0.67340   0.78337   0.00000  Uiso   1.00
N960   N     0.76613   0.99646   0.71726   0.00000  Uiso   1.00
N961   N     0.67752   0.78474   0.70779   0.00000  Uiso   1.00
N962   N     0.98905   0.88083   0.79314   0.00000  Uiso   1.00
O963   O     0.79642   0.91286   0.75299   0.00000  Uiso   1.00
O964   O     0.87025   0.75381   0.74701   0.00000  Uiso   1.00
O965   O     0.89280   0.90387   0.74519   0.00000  Uiso   1.00
O966   O     0.77387   0.76279   0.75482   0.00000  Uiso   1.00
O967   O     0.78514   0.83784   0.81998   0.00000  Uiso   1.00
O968   O     0.88153   0.82883   0.68003   0.00000  Uiso   1.00
O969   O     0.88152   0.82885   0.81218   0.00000  Uiso   1.00
O970   O     0.78515   0.83781   0.68783   0.00000  Uiso   1.00
Zn971  Zn    0.76898   0.83933   0.75521   0.00000  Uiso   1.00
Zn972  Zn    0.89769   0.82734   0.74479   0.00000  Uiso   1.00
loop_
_geom_bond_atom_site_label_1
_geom_bond_atom_site_label_2
_geom_bond_distance
_geom_bond_site_symmetry_2
_ccdc_geom_bond_type
C1     O45     1.274   .     A
C1     C18     1.408   .     S
C1     O47     1.291   .     A
C2     C4      1.395   .     A
C2     C13     1.383   .     A
C2     H31     1.084   .     S
C3     C21     1.431   .     S
C3     C22     1.396   .     A
C3     C5      1.397   .     A
C4     C6      1.397   .     A
C4     C20     1.431   .     S
C5     C7      1.382   .     A
C5     H36     1.085   .     S
C6     H37     1.085   .     S
C6     C8      1.382   .     A
C7     C9      1.411   .     A
C7     C14     1.400   .     A
C8     C15     1.400   .     A
C8     C10     1.411   .     A
C9     C11     1.412   .     A
C9     C496    1.390   1_554 S
C10    C13     1.412   .     A
C10    C495    1.390   .     S
C11    C22     1.383   .     A
C11    C17     1.399   .     A
C12    O48     1.287   .     A
C12    C19     1.397   .     S
C12    O46     1.275   .     A
C13    C16     1.399   .     A
C14    H32     1.084   .     S
C14    C502    1.389   1_554 S
C15    H33     1.084   .     S
C15    C503    1.389   .     S
C16    H34     1.084   .     S
C16    C500    1.389   .     S
C17    H35     1.084   .     S
C17    C501    1.389   1_554 S
C18    C181    1.357   .     S
C18    N203    1.448   .     S
C19    C342    1.357   1_545 S
C19    N366    1.444   1_545 S
C20    O49     1.289   .     A
C20    O51     1.292   .     A
C21    O50     1.290   .     A
C21    O52     1.292   .     A
C22    H23     1.084   .     S
H24    N41     1.046   .     S
H25    N42     1.046   .     S
H26    N42     1.044   .     S
H27    N97     1.045   .     S
H28    N97     1.044   .     S
H29    N152    1.044   1_455 S
H30    N152    1.044   1_455 S
H38    N203    1.044   .     S
N39    Zn54    2.022   .     S
N39    N94     1.285   .     S
N39    N97     1.384   .     S
N40    Zn53    2.022   .     S
N40    N147    1.285   1_455 S
N40    N152    1.384   1_455 S
N41    H362    1.044   1_545 S
N41    C342    1.448   1_545 S
N42    C181    1.444   .     S
N43    N147    1.384   1_455 S
N43    H135    1.045   1_455 S
N43    H136    1.044   1_455 S
N44    H84     1.044   .     S
N44    N94     1.384   .     S
N44    H83     1.044   .     S
O45    Zn53    1.973   .     S
O46    Zn54    1.973   .     S
O47    Zn54    1.984   .     S
O48    Zn53    1.984   .     S
O49    Zn53    2.006   .     S
O50    Zn54    2.006   .     S
O51    Zn54    2.017   .     S
O52    Zn53    2.017   .     S
C55    O99     1.274   .     A
C55    C72     1.408   .     S
C55    O101    1.291   .     A
C56    C58     1.395   .     A
C56    C67     1.383   .     A
C56    H85     1.084   .     S
C57    C75     1.431   .     S
C57    C76     1.396   .     A
C57    C59     1.397   .     A
C58    C60     1.397   .     A
C58    C74     1.431   .     S
C59    C61     1.382   .     A
C59    H90     1.085   .     S
C60    H91     1.085   .     S
C60    C62     1.382   .     A
C61    C63     1.411   .     A
C61    C68     1.400   .     A
C62    C69     1.400   .     A
C62    C64     1.411   .     A
C63    C65     1.412   .     A
C63    C550    1.390   1_554 S
C64    C67     1.412   .     A
C64    C549    1.390   .     S
C65    C76     1.383   .     A
C65    C71     1.399   .     A
C66    O102    1.287   .     A
C66    C73     1.397   .     S
C66    O100    1.275   .     A
C67    C70     1.399   .     A
C68    H86     1.084   .     S
C68    C556    1.389   1_554 S
C69    H87     1.084   .     S
C69    C557    1.389   .     S
C70    H88     1.084   .     S
C70    C554    1.389   .     S
C71    H89     1.084   .     S
C71    C555    1.389   1_554 S
C72    C235    1.357   .     S
C72    N257    1.448   .     S
C73    C396    1.357   1_545 S
C73    N420    1.444   1_545 S
C74    O103    1.289   .     A
C74    O105    1.292   .     A
C75    O104    1.290   .     A
C75    O106    1.292   .     A
C76    H77     1.084   .     S
H78    N95     1.046   .     S
H79    N96     1.046   .     S
H80    N96     1.044   .     S
H81    N151    1.045   .     S
H82    N151    1.044   .     S
H92    N257    1.044   .     S
N93    Zn108   2.022   .     S
N93    N148    1.285   .     S
N93    N151    1.384   .     S
N94    Zn107   2.022   .     S
N95    H416    1.044   1_545 S
N95    C396    1.448   1_545 S
N96    C235    1.444   .     S
N98    H138    1.044   .     S
N98    N148    1.384   .     S
N98    H137    1.044   .     S
O99    Zn107   1.973   .     S
O100   Zn108   1.973   .     S
O101   Zn108   1.984   .     S
O102   Zn107   1.984   .     S
O103   Zn107   2.006   .     S
O104   Zn108   2.006   .     S
O105   Zn108   2.017   .     S
O106   Zn107   2.017   .     S
C109   O153    1.274   .     A
C109   C126    1.408   .     S
C109   O155    1.291   .     A
C110   C112    1.395   .     A
C110   C121    1.383   .     A
C110   H139    1.084   .     S
C111   C129    1.431   .     S
C111   C130    1.396   .     A
C111   C113    1.397   .     A
C112   C114    1.397   .     A
C112   C128    1.431   .     S
C113   C115    1.382   .     A
C113   H144    1.085   .     S
C114   H145    1.085   .     S
C114   C116    1.382   .     A
C115   C117    1.411   .     A
C115   C122    1.400   .     A
C116   C123    1.400   .     A
C116   C118    1.411   .     A
C117   C119    1.412   .     A
C117   C604    1.390   1_554 S
C118   C121    1.412   .     A
C118   C603    1.390   .     S
C119   C130    1.383   .     A
C119   C125    1.399   .     A
C120   O156    1.287   .     A
C120   C127    1.397   .     S
C120   O154    1.275   .     A
C121   C124    1.399   .     A
C122   H140    1.084   .     S
C122   C610    1.389   1_554 S
C123   H141    1.084   .     S
C123   C611    1.389   .     S
C124   H142    1.084   .     S
C124   C608    1.389   .     S
C125   H143    1.084   .     S
C125   C609    1.389   1_554 S
C126   C289    1.357   .     S
C126   N311    1.448   .     S
C127   C450    1.357   1_545 S
C127   N474    1.444   1_545 S
C128   O157    1.289   .     A
C128   O159    1.292   .     A
C129   O158    1.290   .     A
C129   O160    1.292   .     A
C130   H131    1.084   .     S
H132   N149    1.046   .     S
H133   N150    1.046   .     S
H134   N150    1.044   .     S
H135   N43     1.045   1_655 S
H136   N43     1.044   1_655 S
H146   N311    1.044   .     S
N147   Zn162   2.022   .     S
N147   N40     1.285   1_655 S
N147   N43     1.384   1_655 S
N148   Zn161   2.022   .     S
N149   H470    1.044   1_545 S
N149   C450    1.448   1_545 S
N150   C289    1.444   .     S
N152   H30     1.044   1_655 S
N152   N40     1.384   1_655 S
N152   H29     1.044   1_655 S
O153   Zn161   1.973   .     S
O154   Zn162   1.973   .     S
O155   Zn162   1.984   .     S
O156   Zn161   1.984   .     S
O157   Zn161   2.006   .     S
O158   Zn162   2.006   .     S
O159   Zn162   2.017   .     S
O160   Zn161   2.017   .     S
C163   O207    1.274   .     A
C163   C180    1.408   .     S
C163   O209    1.291   .     A
C164   C166    1.395   .     A
C164   C175    1.383   .     A
C164   H193    1.084   .     S
C165   C183    1.431   .     S
C165   C184    1.396   .     A
C165   C167    1.397   .     A
C166   C168    1.397   .     A
C166   C182    1.431   .     S
C167   C169    1.382   .     A
C167   H198    1.085   .     S
C168   H199    1.085   .     S
C168   C170    1.382   .     A
C169   C171    1.411   .     A
C169   C176    1.400   .     A
C170   C177    1.400   .     A
C170   C172    1.411   .     A
C171   C173    1.412   .     A
C171   C658    1.390   1_554 S
C172   C175    1.412   .     A
C172   C657    1.390   .     S
C173   C184    1.383   .     A
C173   C179    1.399   .     A
C174   O210    1.287   .     A
C174   C181    1.397   .     S
C174   O208    1.275   .     A
C175   C178    1.399   .     A
C176   H194    1.084   .     S
C176   C664    1.389   1_554 S
C177   H195    1.084   .     S
C177   C665    1.389   .     S
C178   H196    1.084   .     S
C178   C662    1.389   .     S
C179   H197    1.084   .     S
C179   C663    1.389   1_554 S
C180   C343    1.357   .     S
C180   N365    1.448   .     S
C182   O211    1.289   .     A
C182   O213    1.292   .     A
C183   O212    1.290   .     A
C183   O214    1.292   .     A
C184   H185    1.084   .     S
H186   N203    1.046   .     S
H187   N204    1.046   .     S
H188   N204    1.044   .     S
H189   N259    1.045   .     S
H190   N259    1.044   .     S
H191   N314    1.044   1_455 S
H192   N314    1.044   1_455 S
H200   N365    1.044   .     S
N201   Zn216   2.022   .     S
N201   N256    1.285   .     S
N201   N259    1.384   .     S
N202   Zn215   2.022   .     S
N202   N309    1.285   1_455 S
N202   N314    1.384   1_455 S
N204   C343    1.444   .     S
N205   N309    1.384   1_455 S
N205   H297    1.045   1_455 S
N205   H298    1.044   1_455 S
N206   H246    1.044   .     S
N206   N256    1.384   .     S
N206   H245    1.044   .     S
O207   Zn215   1.973   .     S
O208   Zn216   1.973   .     S
O209   Zn216   1.984   .     S
O210   Zn215   1.984   .     S
O211   Zn215   2.006   .     S
O212   Zn216   2.006   .     S
O213   Zn216   2.017   .     S
O214   Zn215   2.017   .     S
C217   O261    1.274   .     A
C217   C234    1.408   .     S
C217   O263    1.291   .     A
C218   C220    1.395   .     A
C218   C229    1.383   .     A
C218   H247    1.084   .     S
C219   C237    1.431   .     S
C219   C238    1.396   .     A
C219   C221    1.397   .     A
C220   C222    1.397   .     A
C220   C236    1.431   .     S
C221   C223    1.382   .     A
C221   H252    1.085   .     S
C222   H253    1.085   .     S
C222   C224    1.382   .     A
C223   C225    1.411   .     A
C223   C230    1.400   .     A
C224   C231    1.400   .     A
C224   C226    1.411   .     A
C225   C227    1.412   .     A
C225   C712    1.390   1_554 S
C226   C229    1.412   .     A
C226   C711    1.390   .     S
C227   C238    1.383   .     A
C227   C233    1.399   .     A
C228   O264    1.287   .     A
C228   C235    1.397   .     S
C228   O262    1.275   .     A
C229   C232    1.399   .     A
C230   H248    1.084   .     S
C230   C718    1.389   1_554 S
C231   H249    1.084   .     S
C231   C719    1.389   .     S
C232   H250    1.084   .     S
C232   C716    1.389   .     S
C233   H251    1.084   .     S
C233   C717    1.389   1_554 S
C234   C397    1.357   .     S
C234   N419    1.448   .     S
C236   O265    1.289   .     A
C236   O267    1.292   .     A
C237   O266    1.290   .     A
C237   O268    1.292   .     A
C238   H239    1.084   .     S
H240   N257    1.046   .     S
H241   N258    1.046   .     S
H242   N258    1.044   .     S
H243   N313    1.045   .     S
H244   N313    1.044   .     S
H254   N419    1.044   .     S
N255   Zn270   2.022   .     S
N255   N310    1.285   .     S
N255   N313    1.384   .     S
N256   Zn269   2.022   .     S
N258   C397    1.444   .     S
N260   H300    1.044   .     S
N260   N310    1.384   .     S
N260   H299    1.044   .     S
O261   Zn269   1.973   .     S
O262   Zn270   1.973   .     S
O263   Zn270   1.984   .     S
O264   Zn269   1.984   .     S
O265   Zn269   2.006   .     S
O266   Zn270   2.006   .     S
O267   Zn270   2.017   .     S
O268   Zn269   2.017   .     S
C271   O315    1.274   .     A
C271   C288    1.408   .     S
C271   O317    1.291   .     A
C272   C274    1.395   .     A
C272   C283    1.383   .     A
C272   H301    1.084   .     S
C273   C291    1.431   .     S
C273   C292    1.396   .     A
C273   C275    1.397   .     A
C274   C276    1.397   .     A
C274   C290    1.431   .     S
C275   C277    1.382   .     A
C275   H306    1.085   .     S
C276   H307    1.085   .     S
C276   C278    1.382   .     A
C277   C279    1.411   .     A
C277   C284    1.400   .     A
C278   C285    1.400   .     A
C278   C280    1.411   .     A
C279   C281    1.412   .     A
C279   C766    1.390   1_554 S
C280   C283    1.412   .     A
C280   C765    1.390   .     S
C281   C292    1.383   .     A
C281   C287    1.399   .     A
C282   O318    1.287   .     A
C282   C289    1.397   .     S
C282   O316    1.275   .     A
C283   C286    1.399   .     A
C284   H302    1.084   .     S
C284   C772    1.389   1_554 S
C285   H303    1.084   .     S
C285   C773    1.389   .     S
C286   H304    1.084   .     S
C286   C770    1.389   .     S
C287   H305    1.084   .     S
C287   C771    1.389   1_554 S
C288   C451    1.357   .     S
C288   N473    1.448   .     S
C290   O319    1.289   .     A
C290   O321    1.292   .     A
C291   O320    1.290   .     A
C291   O322    1.292   .     A
C292   H293    1.084   .     S
H294   N311    1.046   .     S
H295   N312    1.046   .     S
H296   N312    1.044   .     S
H297   N205    1.045   1_655 S
H298   N205    1.044   1_655 S
H308   N473    1.044   .     S
N309   Zn324   2.022   .     S
N309   N202    1.285   1_655 S
N309   N205    1.384   1_655 S
N310   Zn323   2.022   .     S
N312   C451    1.444   .     S
N314   H192    1.044   1_655 S
N314   N202    1.384   1_655 S
N314   H191    1.044   1_655 S
O315   Zn323   1.973   .     S
O316   Zn324   1.973   .     S
O317   Zn324   1.984   .     S
O318   Zn323   1.984   .     S
O319   Zn323   2.006   .     S
O320   Zn324   2.006   .     S
O321   Zn324   2.017   .     S
O322   Zn323   2.017   .     S
C325   O369    1.274   .     A
C325   C342    1.408   .     S
C325   O371    1.291   .     A
C326   C328    1.395   .     A
C326   C337    1.383   .     A
C326   H355    1.084   .     S
C327   C345    1.431   .     S
C327   C346    1.396   .     A
C327   C329    1.397   .     A
C328   C330    1.397   .     A
C328   C344    1.431   .     S
C329   C331    1.382   .     A
C329   H360    1.085   .     S
C330   H361    1.085   .     S
C330   C332    1.382   .     A
C331   C333    1.411   .     A
C331   C338    1.400   .     A
C332   C339    1.400   .     A
C332   C334    1.411   .     A
C333   C335    1.412   .     A
C333   C820    1.390   1_554 S
C334   C337    1.412   .     A
C334   C819    1.390   .     S
C335   C346    1.383   .     A
C335   C341    1.399   .     A
C336   O372    1.287   .     A
C336   C343    1.397   .     S
C336   O370    1.275   .     A
C337   C340    1.399   .     A
C338   H356    1.084   .     S
C338   C826    1.389   1_554 S
C339   H357    1.084   .     S
C339   C827    1.389   .     S
C340   H358    1.084   .     S
C340   C824    1.389   .     S
C341   H359    1.084   .     S
C341   C825    1.389   1_554 S
C342   C19     1.357   1_565 S
C342   N41     1.448   1_565 S
C344   O373    1.289   .     A
C344   O375    1.292   .     A
C345   O374    1.290   .     A
C345   O376    1.292   .     A
C346   H347    1.084   .     S
H348   N365    1.046   .     S
H349   N366    1.046   .     S
H350   N366    1.044   .     S
H351   N421    1.045   .     S
H352   N421    1.044   .     S
H353   N476    1.044   1_455 S
H354   N476    1.044   1_455 S
H362   N41     1.044   1_565 S
N363   Zn378   2.022   .     S
N363   N418    1.285   .     S
N363   N421    1.384   .     S
N364   Zn377   2.022   .     S
N364   N471    1.285   1_455 S
N364   N476    1.384   1_455 S
N366   C19     1.444   1_565 S
N367   N471    1.384   1_455 S
N367   H459    1.045   1_455 S
N367   H460    1.044   1_455 S
N368   H408    1.044   .     S
N368   N418    1.384   .     S
N368   H407    1.044   .     S
O369   Zn377   1.973   .     S
O370   Zn378   1.973   .     S
O371   Zn378   1.984   .     S
O372   Zn377   1.984   .     S
O373   Zn377   2.006   .     S
O374   Zn378   2.006   .     S
O375   Zn378   2.017   .     S
O376   Zn377   2.017   .     S
C379   O423    1.274   .     A
C379   C396    1.408   .     S
C379   O425    1.291   .     A
C380   C382    1.395   .     A
C380   C391    1.383   .     A
C380   H409    1.084   .     S
C381   C399    1.431   .     S
C381   C400    1.396   .     A
C381   C383    1.397   .     A
C382   C384    1.397   .     A
C382   C398    1.431   .     S
C383   C385    1.382   .     A
C383   H414    1.085   .     S
C384   H415    1.085   .     S
C384   C386    1.382   .     A
C385   C387    1.411   .     A
C385   C392    1.400   .     A
C386   C393    1.400   .     A
C386   C388    1.411   .     A
C387   C389    1.412   .     A
C387   C874    1.390   1_554 S
C388   C391    1.412   .     A
C388   C873    1.390   .     S
C389   C400    1.383   .     A
C389   C395    1.399   .     A
C390   O426    1.287   .     A
C390   C397    1.397   .     S
C390   O424    1.275   .     A
C391   C394    1.399   .     A
C392   H410    1.084   .     S
C392   C880    1.389   1_554 S
C393   H411    1.084   .     S
C393   C881    1.389   .     S
C394   H412    1.084   .     S
C394   C878    1.389   .     S
C395   H413    1.084   .     S
C395   C879    1.389   1_554 S
C396   C73     1.357   1_565 S
C396   N95     1.448   1_565 S
C398   O427    1.289   .     A
C398   O429    1.292   .     A
C399   O428    1.290   .     A
C399   O430    1.292   .     A
C400   H401    1.084   .     S
H402   N419    1.046   .     S
H403   N420    1.046   .     S
H404   N420    1.044   .     S
H405   N475    1.045   .     S
H406   N475    1.044   .     S
H416   N95     1.044   1_565 S
N417   Zn432   2.022   .     S
N417   N472    1.285   .     S
N417   N475    1.384   .     S
N418   Zn431   2.022   .     S
N420   C73     1.444   1_565 S
N422   H462    1.044   .     S
N422   N472    1.384   .     S
N422   H461    1.044   .     S
O423   Zn431   1.973   .     S
O424   Zn432   1.973   .     S
O425   Zn432   1.984   .     S
O426   Zn431   1.984   .     S
O427   Zn431   2.006   .     S
O428   Zn432   2.006   .     S
O429   Zn432   2.017   .     S
O430   Zn431   2.017   .     S
C433   O477    1.274   .     A
C433   C450    1.408   .     S
C433   O479    1.291   .     A
C434   C436    1.395   .     A
C434   C445    1.383   .     A
C434   H463    1.084   .     S
C435   C453    1.431   .     S
C435   C454    1.396   .     A
C435   C437    1.397   .     A
C436   C438    1.397   .     A
C436   C452    1.431   .     S
C437   C439    1.382   .     A
C437   H468    1.085   .     S
C438   H469    1.085   .     S
C438   C440    1.382   .     A
C439   C441    1.411   .     A
C439   C446    1.400   .     A
C440   C447    1.400   .     A
C440   C442    1.411   .     A
C441   C443    1.412   .     A
C441   C928    1.390   1_554 S
C442   C445    1.412   .     A
C442   C927    1.390   .     S
C443   C454    1.383   .     A
C443   C449    1.399   .     A
C444   O480    1.287   .     A
C444   C451    1.397   .     S
C444   O478    1.275   .     A
C445   C448    1.399   .     A
C446   H464    1.084   .     S
C446   C934    1.389   1_554 S
C447   H465    1.084   .     S
C447   C935    1.389   .     S
C448   H466    1.084   .     S
C448   C932    1.389   .     S
C449   H467    1.084   .     S
C449   C933    1.389   1_554 S
C450   C127    1.357   1_565 S
C450   N149    1.448   1_565 S
C452   O481    1.289   .     A
C452   O483    1.292   .     A
C453   O482    1.290   .     A
C453   O484    1.292   .     A
C454   H455    1.084   .     S
H456   N473    1.046   .     S
H457   N474    1.046   .     S
H458   N474    1.044   .     S
H459   N367    1.045   1_655 S
H460   N367    1.044   1_655 S
H470   N149    1.044   1_565 S
N471   Zn486   2.022   .     S
N471   N364    1.285   1_655 S
N471   N367    1.384   1_655 S
N472   Zn485   2.022   .     S
N474   C127    1.444   1_565 S
N476   H354    1.044   1_655 S
N476   N364    1.384   1_655 S
N476   H353    1.044   1_655 S
O477   Zn485   1.973   .     S
O478   Zn486   1.973   .     S
O479   Zn486   1.984   .     S
O480   Zn485   1.984   .     S
O481   Zn485   2.006   .     S
O482   Zn486   2.006   .     S
O483   Zn486   2.017   .     S
O484   Zn485   2.017   .     S
C487   O531    1.274   .     A
C487   C504    1.408   .     S
C487   O533    1.291   .     A
C488   C490    1.395   .     A
C488   C499    1.383   .     A
C488   H517    1.084   .     S
C489   C507    1.431   .     S
C489   C508    1.396   .     A
C489   C491    1.397   .     A
C490   C492    1.397   .     A
C490   C506    1.431   .     S
C491   C493    1.382   .     A
C491   H522    1.085   .     S
C492   H523    1.085   .     S
C492   C494    1.382   .     A
C493   C495    1.411   .     A
C493   C500    1.400   .     A
C494   C501    1.400   .     A
C494   C496    1.411   .     A
C495   C497    1.412   .     A
C496   C499    1.412   .     A
C496   C9      1.390   1_556 S
C497   C508    1.383   .     A
C497   C503    1.399   .     A
C498   O534    1.287   .     A
C498   C505    1.397   .     S
C498   O532    1.275   .     A
C499   C502    1.399   .     A
C500   H518    1.084   .     S
C501   H519    1.084   .     S
C501   C17     1.389   1_556 S
C502   H520    1.084   .     S
C502   C14     1.389   1_556 S
C503   H521    1.084   .     S
C504   C667    1.357   .     S
C504   N689    1.448   .     S
C505   C828    1.357   1_545 S
C505   N852    1.444   1_545 S
C506   O535    1.289   .     A
C506   O537    1.292   .     A
C507   O536    1.290   .     A
C507   O538    1.292   .     A
C508   H509    1.084   .     S
H510   N527    1.046   .     S
H511   N528    1.046   .     S
H512   N528    1.044   .     S
H513   N583    1.045   .     S
H514   N583    1.044   .     S
H515   N638    1.044   1_455 S
H516   N638    1.044   1_455 S
H524   N689    1.044   .     S
N525   Zn540   2.022   .     S
N525   N580    1.285   .     S
N525   N583    1.384   .     S
N526   Zn539   2.022   .     S
N526   N633    1.285   1_455 S
N526   N638    1.384   1_455 S
N527   H848    1.044   1_545 S
N527   C828    1.448   1_545 S
N528   C667    1.444   .     S
N529   N633    1.384   1_455 S
N529   H621    1.045   1_455 S
N529   H622    1.044   1_455 S
N530   H570    1.044   .     S
N530   N580    1.384   .     S
N530   H569    1.044   .     S
O531   Zn539   1.973   .     S
O532   Zn540   1.973   .     S
O533   Zn540   1.984   .     S
O534   Zn539   1.984   .     S
O535   Zn539   2.006   .     S
O536   Zn540   2.006   .     S
O537   Zn540   2.017   .     S
O538   Zn539   2.017   .     S
C541   O585    1.274   .     A
C541   C558    1.408   .     S
C541   O587    1.291   .     A
C542   C544    1.395   .     A
C542   C553    1.383   .     A
C542   H571    1.084   .     S
C543   C561    1.431   .     S
C543   C562    1.396   .     A
C543   C545    1.397   .     A
C544   C546    1.397   .     A
C544   C560    1.431   .     S
C545   C547    1.382   .     A
C545   H576    1.085   .     S
C546   H577    1.085   .     S
C546   C548    1.382   .     A
C547   C549    1.411   .     A
C547   C554    1.400   .     A
C548   C555    1.400   .     A
C548   C550    1.411   .     A
C549   C551    1.412   .     A
C550   C553    1.412   .     A
C550   C63     1.390   1_556 S
C551   C562    1.383   .     A
C551   C557    1.399   .     A
C552   O588    1.287   .     A
C552   C559    1.397   .     S
C552   O586    1.275   .     A
C553   C556    1.399   .     A
C554   H572    1.084   .     S
C555   H573    1.084   .     S
C555   C71     1.389   1_556 S
C556   H574    1.084   .     S
C556   C68     1.389   1_556 S
C557   H575    1.084   .     S
C558   C721    1.357   .     S
C558   N743    1.448   .     S
C559   C882    1.357   1_545 S
C559   N906    1.444   1_545 S
C560   O589    1.289   .     A
C560   O591    1.292   .     A
C561   O590    1.290   .     A
C561   O592    1.292   .     A
C562   H563    1.084   .     S
H564   N581    1.046   .     S
H565   N582    1.046   .     S
H566   N582    1.044   .     S
H567   N637    1.045   .     S
H568   N637    1.044   .     S
H578   N743    1.044   .     S
N579   Zn594   2.022   .     S
N579   N634    1.285   .     S
N579   N637    1.384   .     S
N580   Zn593   2.022   .     S
N581   H902    1.044   1_545 S
N581   C882    1.448   1_545 S
N582   C721    1.444   .     S
N584   H624    1.044   .     S
N584   N634    1.384   .     S
N584   H623    1.044   .     S
O585   Zn593   1.973   .     S
O586   Zn594   1.973   .     S
O587   Zn594   1.984   .     S
O588   Zn593   1.984   .     S
O589   Zn593   2.006   .     S
O590   Zn594   2.006   .     S
O591   Zn594   2.017   .     S
O592   Zn593   2.017   .     S
C595   O639    1.274   .     A
C595   C612    1.408   .     S
C595   O641    1.291   .     A
C596   C598    1.395   .     A
C596   C607    1.383   .     A
C596   H625    1.084   .     S
C597   C615    1.431   .     S
C597   C616    1.396   .     A
C597   C599    1.397   .     A
C598   C600    1.397   .     A
C598   C614    1.431   .     S
C599   C601    1.382   .     A
C599   H630    1.085   .     S
C600   H631    1.085   .     S
C600   C602    1.382   .     A
C601   C603    1.411   .     A
C601   C608    1.400   .     A
C602   C609    1.400   .     A
C602   C604    1.411   .     A
C603   C605    1.412   .     A
C604   C607    1.412   .     A
C604   C117    1.390   1_556 S
C605   C616    1.383   .     A
C605   C611    1.399   .     A
C606   O642    1.287   .     A
C606   C613    1.397   .     S
C606   O640    1.275   .     A
C607   C610    1.399   .     A
C608   H626    1.084   .     S
C609   H627    1.084   .     S
C609   C125    1.389   1_556 S
C610   H628    1.084   .     S
C610   C122    1.389   1_556 S
C611   H629    1.084   .     S
C612   C775    1.357   .     S
C612   N797    1.448   .     S
C613   C936    1.357   1_545 S
C613   N960    1.444   1_545 S
C614   O643    1.289   .     A
C614   O645    1.292   .     A
C615   O644    1.290   .     A
C615   O646    1.292   .     A
C616   H617    1.084   .     S
H618   N635    1.046   .     S
H619   N636    1.046   .     S
H620   N636    1.044   .     S
H621   N529    1.045   1_655 S
H622   N529    1.044   1_655 S
H632   N797    1.044   .     S
N633   Zn648   2.022   .     S
N633   N526    1.285   1_655 S
N633   N529    1.384   1_655 S
N634   Zn647   2.022   .     S
N635   H956    1.044   1_545 S
N635   C936    1.448   1_545 S
N636   C775    1.444   .     S
N638   H516    1.044   1_655 S
N638   N526    1.384   1_655 S
N638   H515    1.044   1_655 S
O639   Zn647   1.973   .     S
O640   Zn648   1.973   .     S
O641   Zn648   1.984   .     S
O642   Zn647   1.984   .     S
O643   Zn647   2.006   .     S
O644   Zn648   2.006   .     S
O645   Zn648   2.017   .     S
O646   Zn647   2.017   .     S
C649   O693    1.274   .     A
C649   C666    1.408   .     S
C649   O695    1.291   .     A
C650   C652    1.395   .     A
C650   C661    1.383   .     A
C650   H679    1.084   .     S
C651   C669    1.431   .     S
C651   C670    1.396   .     A
C651   C653    1.397   .     A
C652   C654    1.397   .     A
C652   C668    1.431   .     S
C653   C655    1.382   .     A
C653   H684    1.085   .     S
C654   H685    1.085   .     S
C654   C656    1.382   .     A
C655   C657    1.411   .     A
C655   C662    1.400   .     A
C656   C663    1.400   .     A
C656   C658    1.411   .     A
C657   C659    1.412   .     A
C658   C661    1.412   .     A
C658   C171    1.390   1_556 S
C659   C670    1.383   .     A
C659   C665    1.399   .     A
C660   O696    1.287   .     A
C660   C667    1.397   .     S
C660   O694    1.275   .     A
C661   C664    1.399   .     A
C662   H680    1.084   .     S
C663   H681    1.084   .     S
C663   C179    1.389   1_556 S
C664   H682    1.084   .     S
C664   C176    1.389   1_556 S
C665   H683    1.084   .     S
C666   C829    1.357   .     S
C666   N851    1.448   .     S
C668   O697    1.289   .     A
C668   O699    1.292   .     A
C669   O698    1.290   .     A
C669   O700    1.292   .     A
C670   H671    1.084   .     S
H672   N689    1.046   .     S
H673   N690    1.046   .     S
H674   N690    1.044   .     S
H675   N745    1.045   .     S
H676   N745    1.044   .     S
H677   N800    1.044   1_455 S
H678   N800    1.044   1_455 S
H686   N851    1.044   .     S
N687   Zn702   2.022   .     S
N687   N742    1.285   .     S
N687   N745    1.384   .     S
N688   Zn701   2.022   .     S
N688   N795    1.285   1_455 S
N688   N800    1.384   1_455 S
N690   C829    1.444   .     S
N691   N795    1.384   1_455 S
N691   H783    1.045   1_455 S
N691   H784    1.044   1_455 S
N692   H732    1.044   .     S
N692   N742    1.384   .     S
N692   H731    1.044   .     S
O693   Zn701   1.973   .     S
O694   Zn702   1.973   .     S
O695   Zn702   1.984   .     S
O696   Zn701   1.984   .     S
O697   Zn701   2.006   .     S
O698   Zn702   2.006   .     S
O699   Zn702   2.017   .     S
O700   Zn701   2.017   .     S
C703   O747    1.274   .     A
C703   C720    1.408   .     S
C703   O749    1.291   .     A
C704   C706    1.395   .     A
C704   C715    1.383   .     A
C704   H733    1.084   .     S
C705   C723    1.431   .     S
C705   C724    1.396   .     A
C705   C707    1.397   .     A
C706   C708    1.397   .     A
C706   C722    1.431   .     S
C707   C709    1.382   .     A
C707   H738    1.085   .     S
C708   H739    1.085   .     S
C708   C710    1.382   .     A
C709   C711    1.411   .     A
C709   C716    1.400   .     A
C710   C717    1.400   .     A
C710   C712    1.411   .     A
C711   C713    1.412   .     A
C712   C715    1.412   .     A
C712   C225    1.390   1_556 S
C713   C724    1.383   .     A
C713   C719    1.399   .     A
C714   O750    1.287   .     A
C714   C721    1.397   .     S
C714   O748    1.275   .     A
C715   C718    1.399   .     A
C716   H734    1.084   .     S
C717   H735    1.084   .     S
C717   C233    1.389   1_556 S
C718   H736    1.084   .     S
C718   C230    1.389   1_556 S
C719   H737    1.084   .     S
C720   C883    1.357   .     S
C720   N905    1.448   .     S
C722   O751    1.289   .     A
C722   O753    1.292   .     A
C723   O752    1.290   .     A
C723   O754    1.292   .     A
C724   H725    1.084   .     S
H726   N743    1.046   .     S
H727   N744    1.046   .     S
H728   N744    1.044   .     S
H729   N799    1.045   .     S
H730   N799    1.044   .     S
H740   N905    1.044   .     S
N741   Zn756   2.022   .     S
N741   N796    1.285   .     S
N741   N799    1.384   .     S
N742   Zn755   2.022   .     S
N744   C883    1.444   .     S
N746   H786    1.044   .     S
N746   N796    1.384   .     S
N746   H785    1.044   .     S
O747   Zn755   1.973   .     S
O748   Zn756   1.973   .     S
O749   Zn756   1.984   .     S
O750   Zn755   1.984   .     S
O751   Zn755   2.006   .     S
O752   Zn756   2.006   .     S
O753   Zn756   2.017   .     S
O754   Zn755   2.017   .     S
C757   O801    1.274   .     A
C757   C774    1.408   .     S
C757   O803    1.291   .     A
C758   C760    1.395   .     A
C758   C769    1.383   .     A
C758   H787    1.084   .     S
C759   C777    1.431   .     S
C759   C778    1.396   .     A
C759   C761    1.397   .     A
C760   C762    1.397   .     A
C760   C776    1.431   .     S
C761   C763    1.382   .     A
C761   H792    1.085   .     S
C762   H793    1.085   .     S
C762   C764    1.382   .     A
C763   C765    1.411   .     A
C763   C770    1.400   .     A
C764   C771    1.400   .     A
C764   C766    1.411   .     A
C765   C767    1.412   .     A
C766   C769    1.412   .     A
C766   C279    1.390   1_556 S
C767   C778    1.383   .     A
C767   C773    1.399   .     A
C768   O804    1.287   .     A
C768   C775    1.397   .     S
C768   O802    1.275   .     A
C769   C772    1.399   .     A
C770   H788    1.084   .     S
C771   H789    1.084   .     S
C771   C287    1.389   1_556 S
C772   H790    1.084   .     S
C772   C284    1.389   1_556 S
C773   H791    1.084   .     S
C774   C937    1.357   .     S
C774   N959    1.448   .     S
C776   O805    1.289   .     A
C776   O807    1.292   .     A
C777   O806    1.290   .     A
C777   O808    1.292   .     A
C778   H779    1.084   .     S
H780   N797    1.046   .     S
H781   N798    1.046   .     S
H782   N798    1.044   .     S
H783   N691    1.045   1_655 S
H784   N691    1.044   1_655 S
H794   N959    1.044   .     S
N795   Zn810   2.022   .     S
N795   N688    1.285   1_655 S
N795   N691    1.384   1_655 S
N796   Zn809   2.022   .     S
N798   C937    1.444   .     S
N800   H678    1.044   1_655 S
N800   N688    1.384   1_655 S
N800   H677    1.044   1_655 S
O801   Zn809   1.973   .     S
O802   Zn810   1.973   .     S
O803   Zn810   1.984   .     S
O804   Zn809   1.984   .     S
O805   Zn809   2.006   .     S
O806   Zn810   2.006   .     S
O807   Zn810   2.017   .     S
O808   Zn809   2.017   .     S
C811   O855    1.274   .     A
C811   C828    1.408   .     S
C811   O857    1.291   .     A
C812   C814    1.395   .     A
C812   C823    1.383   .     A
C812   H841    1.084   .     S
C813   C831    1.431   .     S
C813   C832    1.396   .     A
C813   C815    1.397   .     A
C814   C816    1.397   .     A
C814   C830    1.431   .     S
C815   C817    1.382   .     A
C815   H846    1.085   .     S
C816   H847    1.085   .     S
C816   C818    1.382   .     A
C817   C819    1.411   .     A
C817   C824    1.400   .     A
C818   C825    1.400   .     A
C818   C820    1.411   .     A
C819   C821    1.412   .     A
C820   C823    1.412   .     A
C820   C333    1.390   1_556 S
C821   C832    1.383   .     A
C821   C827    1.399   .     A
C822   O858    1.287   .     A
C822   C829    1.397   .     S
C822   O856    1.275   .     A
C823   C826    1.399   .     A
C824   H842    1.084   .     S
C825   H843    1.084   .     S
C825   C341    1.389   1_556 S
C826   H844    1.084   .     S
C826   C338    1.389   1_556 S
C827   H845    1.084   .     S
C828   C505    1.357   1_565 S
C828   N527    1.448   1_565 S
C830   O859    1.289   .     A
C830   O861    1.292   .     A
C831   O860    1.290   .     A
C831   O862    1.292   .     A
C832   H833    1.084   .     S
H834   N851    1.046   .     S
H835   N852    1.046   .     S
H836   N852    1.044   .     S
H837   N907    1.045   .     S
H838   N907    1.044   .     S
H839   N962    1.044   1_455 S
H840   N962    1.044   1_455 S
H848   N527    1.044   1_565 S
N849   Zn864   2.022   .     S
N849   N904    1.285   .     S
N849   N907    1.384   .     S
N850   Zn863   2.022   .     S
N850   N957    1.285   1_455 S
N850   N962    1.384   1_455 S
N852   C505    1.444   1_565 S
N853   N957    1.384   1_455 S
N853   H945    1.045   1_455 S
N853   H946    1.044   1_455 S
N854   H894    1.044   .     S
N854   N904    1.384   .     S
N854   H893    1.044   .     S
O855   Zn863   1.973   .     S
O856   Zn864   1.973   .     S
O857   Zn864   1.984   .     S
O858   Zn863   1.984   .     S
O859   Zn863   2.006   .     S
O860   Zn864   2.006   .     S
O861   Zn864   2.017   .     S
O862   Zn863   2.017   .     S
C865   O909    1.274   .     A
C865   C882    1.408   .     S
C865   O911    1.291   .     A
C866   C868    1.395   .     A
C866   C877    1.383   .     A
C866   H895    1.084   .     S
C867   C885    1.431   .     S
C867   C886    1.396   .     A
C867   C869    1.397   .     A
C868   C870    1.397   .     A
C868   C884    1.431   .     S
C869   C871    1.382   .     A
C869   H900    1.085   .     S
C870   H901    1.085   .     S
C870   C872    1.382   .     A
C871   C873    1.411   .     A
C871   C878    1.400   .     A
C872   C879    1.400   .     A
C872   C874    1.411   .     A
C873   C875    1.412   .     A
C874   C877    1.412   .     A
C874   C387    1.390   1_556 S
C875   C886    1.383   .     A
C875   C881    1.399   .     A
C876   O912    1.287   .     A
C876   C883    1.397   .     S
C876   O910    1.275   .     A
C877   C880    1.399   .     A
C878   H896    1.084   .     S
C879   H897    1.084   .     S
C879   C395    1.389   1_556 S
C880   H898    1.084   .     S
C880   C392    1.389   1_556 S
C881   H899    1.084   .     S
C882   C559    1.357   1_565 S
C882   N581    1.448   1_565 S
C884   O913    1.289   .     A
C884   O915    1.292   .     A
C885   O914    1.290   .     A
C885   O916    1.292   .     A
C886   H887    1.084   .     S
H888   N905    1.046   .     S
H889   N906    1.046   .     S
H890   N906    1.044   .     S
H891   N961    1.045   .     S
H892   N961    1.044   .     S
H902   N581    1.044   1_565 S
N903   Zn918   2.022   .     S
N903   N958    1.285   .     S
N903   N961    1.384   .     S
N904   Zn917   2.022   .     S
N906   C559    1.444   1_565 S
N908   H948    1.044   .     S
N908   N958    1.384   .     S
N908   H947    1.044   .     S
O909   Zn917   1.973   .     S
O910   Zn918   1.973   .     S
O911   Zn918   1.984   .     S
O912   Zn917   1.984   .     S
O913   Zn917   2.006   .     S
O914   Zn918   2.006   .     S
O915   Zn918   2.017   .     S
O916   Zn917   2.017   .     S
C919   O963    1.274   .     A
C919   C936    1.408   .     S
C919   O965    1.291   .     A
C920   C922    1.395   .     A
C920   C931    1.383   .     A
C920   H949    1.084   .     S
C921   C939    1.431   .     S
C921   C940    1.396   .     A
C921   C923    1.397   .     A
C922   C924    1.397   .     A
C922   C938    1.431   .     S
C923   C925    1.382   .     A
C923   H954    1.085   .     S
C924   H955    1.085   .     S
C924   C926    1.382   .     A
C925   C927    1.411   .     A
C925   C932    1.400   .     A
C926   C933    1.400   .     A
C926   C928    1.411   .     A
C927   C929    1.412   .     A
C928   C931    1.412   .     A
C928   C441    1.390   1_556 S
C929   C940    1.383   .     A
C929   C935    1.399   .     A
C930   O966    1.287   .     A
C930   C937    1.397   .     S
C930   O964    1.275   .     A
C931   C934    1.399   .     A
C932   H950    1.084   .     S
C933   H951    1.084   .     S
C933   C449    1.389   1_556 S
C934   H952    1.084   .     S
C934   C446    1.389   1_556 S
C935   H953    1.084   .     S
C936   C613    1.357   1_565 S
C936   N635    1.448   1_565 S
C938   O967    1.289   .     A
C938   O969    1.292   .     A
C939   O968    1.290   .     A
C939   O970    1.292   .     A
C940   H941    1.084   .     S
H942   N959    1.046   .     S
H943   N960    1.046   .     S
H944   N960    1.044   .     S
H945   N853    1.045   1_655 S
H946   N853    1.044   1_655 S
H956   N635    1.044   1_565 S
N957   Zn972   2.022   .     S
N957   N850    1.285   1_655 S
N957   N853    1.384   1_655 S
N958   Zn971   2.022   .     S
N960   C613    1.444   1_565 S
N962   H840    1.044   1_655 S
N962   N850    1.384   1_655 S
N962   H839    1.044   1_655 S
O963   Zn971   1.973   .     S
O964   Zn972   1.973   .     S
O965   Zn972   1.984   .     S
O966   Zn971   1.984   .     S
O967   Zn971   2.006   .     S
O968   Zn972   2.006   .     S
O969   Zn972   2.017   .     S
O970   Zn971   2.017   .     S
