data_str_m3_o5_o17_pcu_sym.33
_audit_creation_date              2020-01-03
_audit_creation_method            'Materials Studio'
_symmetry_space_group_name_H-M    'P1'
_symmetry_Int_Tables_number       1
_symmetry_cell_setting            triclinic
loop_
_symmetry_equiv_pos_as_xyz
  x,y,z
_cell_length_a                    30.0228
_cell_length_b                    26.8064
_cell_length_c                    24.3151
_cell_angle_alpha                 89.9922
_cell_angle_beta                  90.0000
_cell_angle_gamma                 90.0000
loop_
_atom_site_label
_atom_site_type_symbol
_atom_site_fract_x
_atom_site_fract_y
_atom_site_fract_z
_atom_site_U_iso_or_equiv
_atom_site_adp_type
_atom_site_occupancy
O1     O     0.25000   0.09512   0.21228   0.00000  Uiso   1.00
O2     O     0.25000   0.23822   0.12105   0.00000  Uiso   1.00
O3     O     0.25000   0.23822   0.21228   0.00000  Uiso   1.00
O4     O     0.25000   0.09512   0.12105   0.00000  Uiso   1.00
C5     C     0.25000   0.07266   0.16667   0.00000  Uiso   1.00
C6     C     0.25000   0.26067   0.16666   0.00000  Uiso   1.00
O7     O     0.18392   0.16667   0.21230   0.00000  Uiso   1.00
O8     O     0.31607   0.16667   0.12104   0.00000  Uiso   1.00
O9     O     0.31607   0.16667   0.21230   0.00000  Uiso   1.00
O10    O     0.18392   0.16667   0.12104   0.00000  Uiso   1.00
C11    C     0.16308   0.16667   0.16667   0.00000  Uiso   1.00
C12    C     0.33691   0.16667   0.16667   0.00000  Uiso   1.00
Zn13   Zn    0.25000   0.16667   0.22759   0.00000  Uiso   1.00
Zn14   Zn    0.25000   0.16667   0.10574   0.00000  Uiso   1.00
N15    N     0.25000   0.16667   0.02455   0.00000  Uiso   1.00
N16    N     0.25000   0.16667   0.30879   0.00000  Uiso   1.00
C17    C     0.40757   0.18000   0.21457   0.00000  Uiso   1.00
C18    C     0.09243   0.15333   0.11876   0.00000  Uiso   1.00
C19    C     0.40757   0.15333   0.11876   0.00000  Uiso   1.00
C20    C     0.09243   0.18000   0.21457   0.00000  Uiso   1.00
C21    C     0.38476   0.16667   0.16667   0.00000  Uiso   1.00
C22    C     0.11524   0.16667   0.16667   0.00000  Uiso   1.00
C23    C     0.45365   0.15305   0.11845   0.00000  Uiso   1.00
C24    C     0.04634   0.18029   0.21488   0.00000  Uiso   1.00
C25    C     0.45365   0.18029   0.21488   0.00000  Uiso   1.00
C26    C     0.04634   0.15305   0.11845   0.00000  Uiso   1.00
C27    C     0.47683   0.16667   0.16667   0.00000  Uiso   1.00
C28    C     0.02317   0.16667   0.16667   0.00000  Uiso   1.00
C29    C     0.47686   0.13929   0.07088   0.00000  Uiso   1.00
C30    C     0.02314   0.19405   0.26245   0.00000  Uiso   1.00
C31    C     0.47686   0.19405   0.26245   0.00000  Uiso   1.00
C32    C     0.02314   0.13929   0.07088   0.00000  Uiso   1.00
C33    C     0.25000   0.02173   0.16667   0.00000  Uiso   1.00
C34    C     0.25000   0.31160   0.16666   0.00000  Uiso   1.00
H35    H     0.38950   0.19058   0.25140   0.00000  Uiso   1.00
H36    H     0.11050   0.14276   0.08193   0.00000  Uiso   1.00
H37    H     0.38950   0.14276   0.08193   0.00000  Uiso   1.00
H38    H     0.11050   0.19058   0.25140   0.00000  Uiso   1.00
H39    H     0.45924   0.12851   0.03384   0.00000  Uiso   1.00
H40    H     0.04076   0.20482   0.29949   0.00000  Uiso   1.00
H41    H     0.45924   0.20482   0.29949   0.00000  Uiso   1.00
H42    H     0.04076   0.12851   0.03384   0.00000  Uiso   1.00
O43    O     0.75000   0.09512   0.21228   0.00000  Uiso   1.00
O44    O     0.75000   0.23822   0.12105   0.00000  Uiso   1.00
O45    O     0.75000   0.23822   0.21228   0.00000  Uiso   1.00
O46    O     0.75000   0.09512   0.12105   0.00000  Uiso   1.00
C47    C     0.75000   0.07266   0.16667   0.00000  Uiso   1.00
C48    C     0.75000   0.26067   0.16666   0.00000  Uiso   1.00
O49    O     0.68392   0.16667   0.21230   0.00000  Uiso   1.00
O50    O     0.81607   0.16667   0.12104   0.00000  Uiso   1.00
O51    O     0.81607   0.16667   0.21230   0.00000  Uiso   1.00
O52    O     0.68392   0.16667   0.12104   0.00000  Uiso   1.00
C53    C     0.66308   0.16667   0.16667   0.00000  Uiso   1.00
C54    C     0.83691   0.16667   0.16667   0.00000  Uiso   1.00
Zn55   Zn    0.75000   0.16667   0.22759   0.00000  Uiso   1.00
Zn56   Zn    0.75000   0.16667   0.10574   0.00000  Uiso   1.00
N57    N     0.75000   0.16667   0.02455   0.00000  Uiso   1.00
N58    N     0.75000   0.16667   0.30879   0.00000  Uiso   1.00
C59    C     0.90757   0.18000   0.21457   0.00000  Uiso   1.00
C60    C     0.59243   0.15333   0.11876   0.00000  Uiso   1.00
C61    C     0.90757   0.15333   0.11876   0.00000  Uiso   1.00
C62    C     0.59243   0.18000   0.21457   0.00000  Uiso   1.00
C63    C     0.88476   0.16667   0.16667   0.00000  Uiso   1.00
C64    C     0.61524   0.16667   0.16667   0.00000  Uiso   1.00
C65    C     0.95365   0.15305   0.11845   0.00000  Uiso   1.00
C66    C     0.54634   0.18029   0.21488   0.00000  Uiso   1.00
C67    C     0.95365   0.18029   0.21488   0.00000  Uiso   1.00
C68    C     0.54634   0.15305   0.11845   0.00000  Uiso   1.00
C69    C     0.97683   0.16667   0.16667   0.00000  Uiso   1.00
C70    C     0.52317   0.16667   0.16667   0.00000  Uiso   1.00
C71    C     0.97686   0.13929   0.07088   0.00000  Uiso   1.00
C72    C     0.52314   0.19405   0.26245   0.00000  Uiso   1.00
C73    C     0.97686   0.19405   0.26245   0.00000  Uiso   1.00
C74    C     0.52314   0.13929   0.07088   0.00000  Uiso   1.00
C75    C     0.75000   0.02173   0.16667   0.00000  Uiso   1.00
C76    C     0.75000   0.31160   0.16666   0.00000  Uiso   1.00
H77    H     0.88950   0.19058   0.25140   0.00000  Uiso   1.00
H78    H     0.61050   0.14276   0.08193   0.00000  Uiso   1.00
H79    H     0.88950   0.14276   0.08193   0.00000  Uiso   1.00
H80    H     0.61050   0.19058   0.25140   0.00000  Uiso   1.00
H81    H     0.95924   0.12851   0.03384   0.00000  Uiso   1.00
H82    H     0.54076   0.20482   0.29949   0.00000  Uiso   1.00
H83    H     0.95924   0.20482   0.29949   0.00000  Uiso   1.00
H84    H     0.54076   0.12851   0.03384   0.00000  Uiso   1.00
O85    O     0.25000   0.42845   0.21228   0.00000  Uiso   1.00
O86    O     0.25000   0.57155   0.12105   0.00000  Uiso   1.00
O87    O     0.25000   0.57155   0.21228   0.00000  Uiso   1.00
O88    O     0.25000   0.42845   0.12105   0.00000  Uiso   1.00
C89    C     0.25000   0.40600   0.16667   0.00000  Uiso   1.00
C90    C     0.25000   0.59400   0.16666   0.00000  Uiso   1.00
O91    O     0.18392   0.50000   0.21230   0.00000  Uiso   1.00
O92    O     0.31607   0.50000   0.12104   0.00000  Uiso   1.00
O93    O     0.31607   0.50000   0.21230   0.00000  Uiso   1.00
O94    O     0.18392   0.50000   0.12104   0.00000  Uiso   1.00
C95    C     0.16308   0.50000   0.16667   0.00000  Uiso   1.00
C96    C     0.33691   0.50000   0.16667   0.00000  Uiso   1.00
Zn97   Zn    0.25000   0.50000   0.22759   0.00000  Uiso   1.00
Zn98   Zn    0.25000   0.50000   0.10574   0.00000  Uiso   1.00
N99    N     0.25000   0.50000   0.02455   0.00000  Uiso   1.00
N100   N     0.25000   0.50000   0.30879   0.00000  Uiso   1.00
C101   C     0.40757   0.51333   0.21457   0.00000  Uiso   1.00
C102   C     0.09243   0.48667   0.11876   0.00000  Uiso   1.00
C103   C     0.40757   0.48667   0.11876   0.00000  Uiso   1.00
C104   C     0.09243   0.51333   0.21457   0.00000  Uiso   1.00
C105   C     0.38476   0.50000   0.16667   0.00000  Uiso   1.00
C106   C     0.11524   0.50000   0.16667   0.00000  Uiso   1.00
C107   C     0.45365   0.48638   0.11845   0.00000  Uiso   1.00
C108   C     0.04634   0.51362   0.21488   0.00000  Uiso   1.00
C109   C     0.45365   0.51362   0.21488   0.00000  Uiso   1.00
C110   C     0.04634   0.48638   0.11845   0.00000  Uiso   1.00
C111   C     0.47683   0.50000   0.16667   0.00000  Uiso   1.00
C112   C     0.02317   0.50000   0.16667   0.00000  Uiso   1.00
C113   C     0.47686   0.47262   0.07088   0.00000  Uiso   1.00
C114   C     0.02314   0.52738   0.26245   0.00000  Uiso   1.00
C115   C     0.47686   0.52738   0.26245   0.00000  Uiso   1.00
C116   C     0.02314   0.47262   0.07088   0.00000  Uiso   1.00
C117   C     0.25000   0.35506   0.16667   0.00000  Uiso   1.00
C118   C     0.25000   0.64494   0.16666   0.00000  Uiso   1.00
H119   H     0.38950   0.52391   0.25140   0.00000  Uiso   1.00
H120   H     0.11050   0.47609   0.08193   0.00000  Uiso   1.00
H121   H     0.38950   0.47609   0.08193   0.00000  Uiso   1.00
H122   H     0.11050   0.52391   0.25140   0.00000  Uiso   1.00
H123   H     0.45924   0.46184   0.03384   0.00000  Uiso   1.00
H124   H     0.04076   0.53816   0.29949   0.00000  Uiso   1.00
H125   H     0.45924   0.53816   0.29949   0.00000  Uiso   1.00
H126   H     0.04076   0.46184   0.03384   0.00000  Uiso   1.00
O127   O     0.75000   0.42845   0.21228   0.00000  Uiso   1.00
O128   O     0.75000   0.57155   0.12105   0.00000  Uiso   1.00
O129   O     0.75000   0.57155   0.21228   0.00000  Uiso   1.00
O130   O     0.75000   0.42845   0.12105   0.00000  Uiso   1.00
C131   C     0.75000   0.40600   0.16667   0.00000  Uiso   1.00
C132   C     0.75000   0.59400   0.16666   0.00000  Uiso   1.00
O133   O     0.68392   0.50000   0.21230   0.00000  Uiso   1.00
O134   O     0.81607   0.50000   0.12104   0.00000  Uiso   1.00
O135   O     0.81607   0.50000   0.21230   0.00000  Uiso   1.00
O136   O     0.68392   0.50000   0.12104   0.00000  Uiso   1.00
C137   C     0.66308   0.50000   0.16667   0.00000  Uiso   1.00
C138   C     0.83691   0.50000   0.16667   0.00000  Uiso   1.00
Zn139  Zn    0.75000   0.50000   0.22759   0.00000  Uiso   1.00
Zn140  Zn    0.75000   0.50000   0.10574   0.00000  Uiso   1.00
N141   N     0.75000   0.50000   0.02455   0.00000  Uiso   1.00
N142   N     0.75000   0.50000   0.30879   0.00000  Uiso   1.00
C143   C     0.90757   0.51333   0.21457   0.00000  Uiso   1.00
C144   C     0.59243   0.48667   0.11876   0.00000  Uiso   1.00
C145   C     0.90757   0.48667   0.11876   0.00000  Uiso   1.00
C146   C     0.59243   0.51333   0.21457   0.00000  Uiso   1.00
C147   C     0.88476   0.50000   0.16667   0.00000  Uiso   1.00
C148   C     0.61524   0.50000   0.16667   0.00000  Uiso   1.00
C149   C     0.95365   0.48638   0.11845   0.00000  Uiso   1.00
C150   C     0.54634   0.51362   0.21488   0.00000  Uiso   1.00
C151   C     0.95365   0.51362   0.21488   0.00000  Uiso   1.00
C152   C     0.54634   0.48638   0.11845   0.00000  Uiso   1.00
C153   C     0.97683   0.50000   0.16667   0.00000  Uiso   1.00
C154   C     0.52317   0.50000   0.16667   0.00000  Uiso   1.00
C155   C     0.97686   0.47262   0.07088   0.00000  Uiso   1.00
C156   C     0.52314   0.52738   0.26245   0.00000  Uiso   1.00
C157   C     0.97686   0.52738   0.26245   0.00000  Uiso   1.00
C158   C     0.52314   0.47262   0.07088   0.00000  Uiso   1.00
C159   C     0.75000   0.35506   0.16667   0.00000  Uiso   1.00
C160   C     0.75000   0.64494   0.16666   0.00000  Uiso   1.00
H161   H     0.88950   0.52391   0.25140   0.00000  Uiso   1.00
H162   H     0.61050   0.47609   0.08193   0.00000  Uiso   1.00
H163   H     0.88950   0.47609   0.08193   0.00000  Uiso   1.00
H164   H     0.61050   0.52391   0.25140   0.00000  Uiso   1.00
H165   H     0.95924   0.46184   0.03384   0.00000  Uiso   1.00
H166   H     0.54076   0.53816   0.29949   0.00000  Uiso   1.00
H167   H     0.95924   0.53816   0.29949   0.00000  Uiso   1.00
H168   H     0.54076   0.46184   0.03384   0.00000  Uiso   1.00
O169   O     0.25000   0.76178   0.21228   0.00000  Uiso   1.00
O170   O     0.25000   0.90488   0.12105   0.00000  Uiso   1.00
O171   O     0.25000   0.90488   0.21228   0.00000  Uiso   1.00
O172   O     0.25000   0.76178   0.12105   0.00000  Uiso   1.00
C173   C     0.25000   0.73933   0.16667   0.00000  Uiso   1.00
C174   C     0.25000   0.92734   0.16666   0.00000  Uiso   1.00
O175   O     0.18392   0.83333   0.21230   0.00000  Uiso   1.00
O176   O     0.31607   0.83333   0.12104   0.00000  Uiso   1.00
O177   O     0.31607   0.83333   0.21230   0.00000  Uiso   1.00
O178   O     0.18392   0.83333   0.12104   0.00000  Uiso   1.00
C179   C     0.16308   0.83333   0.16667   0.00000  Uiso   1.00
C180   C     0.33691   0.83333   0.16667   0.00000  Uiso   1.00
Zn181  Zn    0.25000   0.83333   0.22759   0.00000  Uiso   1.00
Zn182  Zn    0.25000   0.83333   0.10574   0.00000  Uiso   1.00
N183   N     0.25000   0.83333   0.02455   0.00000  Uiso   1.00
N184   N     0.25000   0.83333   0.30879   0.00000  Uiso   1.00
C185   C     0.40757   0.84667   0.21457   0.00000  Uiso   1.00
C186   C     0.09243   0.82000   0.11876   0.00000  Uiso   1.00
C187   C     0.40757   0.82000   0.11876   0.00000  Uiso   1.00
C188   C     0.09243   0.84667   0.21457   0.00000  Uiso   1.00
C189   C     0.38476   0.83333   0.16667   0.00000  Uiso   1.00
C190   C     0.11524   0.83333   0.16667   0.00000  Uiso   1.00
C191   C     0.45365   0.81971   0.11845   0.00000  Uiso   1.00
C192   C     0.04634   0.84695   0.21488   0.00000  Uiso   1.00
C193   C     0.45365   0.84695   0.21488   0.00000  Uiso   1.00
C194   C     0.04634   0.81971   0.11845   0.00000  Uiso   1.00
C195   C     0.47683   0.83333   0.16667   0.00000  Uiso   1.00
C196   C     0.02317   0.83333   0.16667   0.00000  Uiso   1.00
C197   C     0.47686   0.80595   0.07088   0.00000  Uiso   1.00
C198   C     0.02314   0.86071   0.26245   0.00000  Uiso   1.00
C199   C     0.47686   0.86071   0.26245   0.00000  Uiso   1.00
C200   C     0.02314   0.80595   0.07088   0.00000  Uiso   1.00
C201   C     0.25000   0.68840   0.16667   0.00000  Uiso   1.00
C202   C     0.25000   0.97827   0.16666   0.00000  Uiso   1.00
H203   H     0.38950   0.85724   0.25140   0.00000  Uiso   1.00
H204   H     0.11050   0.80942   0.08193   0.00000  Uiso   1.00
H205   H     0.38950   0.80942   0.08193   0.00000  Uiso   1.00
H206   H     0.11050   0.85724   0.25140   0.00000  Uiso   1.00
H207   H     0.45924   0.79518   0.03384   0.00000  Uiso   1.00
H208   H     0.04076   0.87149   0.29949   0.00000  Uiso   1.00
H209   H     0.45924   0.87149   0.29949   0.00000  Uiso   1.00
H210   H     0.04076   0.79518   0.03384   0.00000  Uiso   1.00
O211   O     0.75000   0.76178   0.21228   0.00000  Uiso   1.00
O212   O     0.75000   0.90488   0.12105   0.00000  Uiso   1.00
O213   O     0.75000   0.90488   0.21228   0.00000  Uiso   1.00
O214   O     0.75000   0.76178   0.12105   0.00000  Uiso   1.00
C215   C     0.75000   0.73933   0.16667   0.00000  Uiso   1.00
C216   C     0.75000   0.92734   0.16666   0.00000  Uiso   1.00
O217   O     0.68392   0.83333   0.21230   0.00000  Uiso   1.00
O218   O     0.81607   0.83333   0.12104   0.00000  Uiso   1.00
O219   O     0.81607   0.83333   0.21230   0.00000  Uiso   1.00
O220   O     0.68392   0.83333   0.12104   0.00000  Uiso   1.00
C221   C     0.66308   0.83333   0.16667   0.00000  Uiso   1.00
C222   C     0.83691   0.83333   0.16667   0.00000  Uiso   1.00
Zn223  Zn    0.75000   0.83333   0.22759   0.00000  Uiso   1.00
Zn224  Zn    0.75000   0.83333   0.10574   0.00000  Uiso   1.00
N225   N     0.75000   0.83333   0.02455   0.00000  Uiso   1.00
N226   N     0.75000   0.83333   0.30879   0.00000  Uiso   1.00
C227   C     0.90757   0.84667   0.21457   0.00000  Uiso   1.00
C228   C     0.59243   0.82000   0.11876   0.00000  Uiso   1.00
C229   C     0.90757   0.82000   0.11876   0.00000  Uiso   1.00
C230   C     0.59243   0.84667   0.21457   0.00000  Uiso   1.00
C231   C     0.88476   0.83333   0.16667   0.00000  Uiso   1.00
C232   C     0.61524   0.83333   0.16667   0.00000  Uiso   1.00
C233   C     0.95365   0.81971   0.11845   0.00000  Uiso   1.00
C234   C     0.54634   0.84695   0.21488   0.00000  Uiso   1.00
C235   C     0.95365   0.84695   0.21488   0.00000  Uiso   1.00
C236   C     0.54634   0.81971   0.11845   0.00000  Uiso   1.00
C237   C     0.97683   0.83333   0.16667   0.00000  Uiso   1.00
C238   C     0.52317   0.83333   0.16667   0.00000  Uiso   1.00
C239   C     0.97686   0.80595   0.07088   0.00000  Uiso   1.00
C240   C     0.52314   0.86071   0.26245   0.00000  Uiso   1.00
C241   C     0.97686   0.86071   0.26245   0.00000  Uiso   1.00
C242   C     0.52314   0.80595   0.07088   0.00000  Uiso   1.00
C243   C     0.75000   0.68840   0.16667   0.00000  Uiso   1.00
C244   C     0.75000   0.97827   0.16666   0.00000  Uiso   1.00
H245   H     0.88950   0.85724   0.25140   0.00000  Uiso   1.00
H246   H     0.61050   0.80942   0.08193   0.00000  Uiso   1.00
H247   H     0.88950   0.80942   0.08193   0.00000  Uiso   1.00
H248   H     0.61050   0.85724   0.25140   0.00000  Uiso   1.00
H249   H     0.95924   0.79518   0.03384   0.00000  Uiso   1.00
H250   H     0.54076   0.87149   0.29949   0.00000  Uiso   1.00
H251   H     0.95924   0.87149   0.29949   0.00000  Uiso   1.00
H252   H     0.54076   0.79518   0.03384   0.00000  Uiso   1.00
O253   O     0.25000   0.09512   0.54562   0.00000  Uiso   1.00
O254   O     0.25000   0.23822   0.45438   0.00000  Uiso   1.00
O255   O     0.25000   0.23822   0.54562   0.00000  Uiso   1.00
O256   O     0.25000   0.09512   0.45438   0.00000  Uiso   1.00
C257   C     0.25000   0.07266   0.50000   0.00000  Uiso   1.00
C258   C     0.25000   0.26067   0.50000   0.00000  Uiso   1.00
O259   O     0.18392   0.16667   0.54563   0.00000  Uiso   1.00
O260   O     0.31607   0.16667   0.45437   0.00000  Uiso   1.00
O261   O     0.31607   0.16667   0.54563   0.00000  Uiso   1.00
O262   O     0.18392   0.16667   0.45437   0.00000  Uiso   1.00
C263   C     0.16308   0.16667   0.50000   0.00000  Uiso   1.00
C264   C     0.33691   0.16667   0.50000   0.00000  Uiso   1.00
Zn265  Zn    0.25000   0.16667   0.56093   0.00000  Uiso   1.00
Zn266  Zn    0.25000   0.16667   0.43907   0.00000  Uiso   1.00
N267   N     0.25000   0.16667   0.35788   0.00000  Uiso   1.00
N268   N     0.25000   0.16667   0.64212   0.00000  Uiso   1.00
C269   C     0.40757   0.18000   0.54790   0.00000  Uiso   1.00
C270   C     0.09243   0.15333   0.45210   0.00000  Uiso   1.00
C271   C     0.40757   0.15333   0.45210   0.00000  Uiso   1.00
C272   C     0.09243   0.18000   0.54790   0.00000  Uiso   1.00
C273   C     0.38476   0.16667   0.50000   0.00000  Uiso   1.00
C274   C     0.11524   0.16667   0.50000   0.00000  Uiso   1.00
C275   C     0.45365   0.15305   0.45179   0.00000  Uiso   1.00
C276   C     0.04634   0.18029   0.54821   0.00000  Uiso   1.00
C277   C     0.45365   0.18029   0.54821   0.00000  Uiso   1.00
C278   C     0.04634   0.15305   0.45179   0.00000  Uiso   1.00
C279   C     0.47683   0.16667   0.50000   0.00000  Uiso   1.00
C280   C     0.02317   0.16667   0.50000   0.00000  Uiso   1.00
C281   C     0.47686   0.13929   0.40421   0.00000  Uiso   1.00
C282   C     0.02314   0.19405   0.59579   0.00000  Uiso   1.00
C283   C     0.47686   0.19405   0.59579   0.00000  Uiso   1.00
C284   C     0.02314   0.13929   0.40421   0.00000  Uiso   1.00
C285   C     0.25000   0.02173   0.50000   0.00000  Uiso   1.00
C286   C     0.25000   0.31160   0.50000   0.00000  Uiso   1.00
H287   H     0.38950   0.19058   0.58474   0.00000  Uiso   1.00
H288   H     0.11050   0.14276   0.41526   0.00000  Uiso   1.00
H289   H     0.38950   0.14276   0.41526   0.00000  Uiso   1.00
H290   H     0.11050   0.19058   0.58474   0.00000  Uiso   1.00
H291   H     0.45924   0.12851   0.36718   0.00000  Uiso   1.00
H292   H     0.04076   0.20482   0.63282   0.00000  Uiso   1.00
H293   H     0.45924   0.20482   0.63282   0.00000  Uiso   1.00
H294   H     0.04076   0.12851   0.36718   0.00000  Uiso   1.00
O295   O     0.75000   0.09512   0.54562   0.00000  Uiso   1.00
O296   O     0.75000   0.23822   0.45438   0.00000  Uiso   1.00
O297   O     0.75000   0.23822   0.54562   0.00000  Uiso   1.00
O298   O     0.75000   0.09512   0.45438   0.00000  Uiso   1.00
C299   C     0.75000   0.07266   0.50000   0.00000  Uiso   1.00
C300   C     0.75000   0.26067   0.50000   0.00000  Uiso   1.00
O301   O     0.68392   0.16667   0.54563   0.00000  Uiso   1.00
O302   O     0.81607   0.16667   0.45437   0.00000  Uiso   1.00
O303   O     0.81607   0.16667   0.54563   0.00000  Uiso   1.00
O304   O     0.68392   0.16667   0.45437   0.00000  Uiso   1.00
C305   C     0.66308   0.16667   0.50000   0.00000  Uiso   1.00
C306   C     0.83691   0.16667   0.50000   0.00000  Uiso   1.00
Zn307  Zn    0.75000   0.16667   0.56093   0.00000  Uiso   1.00
Zn308  Zn    0.75000   0.16667   0.43907   0.00000  Uiso   1.00
N309   N     0.75000   0.16667   0.35788   0.00000  Uiso   1.00
N310   N     0.75000   0.16667   0.64212   0.00000  Uiso   1.00
C311   C     0.90757   0.18000   0.54790   0.00000  Uiso   1.00
C312   C     0.59243   0.15333   0.45210   0.00000  Uiso   1.00
C313   C     0.90757   0.15333   0.45210   0.00000  Uiso   1.00
C314   C     0.59243   0.18000   0.54790   0.00000  Uiso   1.00
C315   C     0.88476   0.16667   0.50000   0.00000  Uiso   1.00
C316   C     0.61524   0.16667   0.50000   0.00000  Uiso   1.00
C317   C     0.95365   0.15305   0.45179   0.00000  Uiso   1.00
C318   C     0.54634   0.18029   0.54821   0.00000  Uiso   1.00
C319   C     0.95365   0.18029   0.54821   0.00000  Uiso   1.00
C320   C     0.54634   0.15305   0.45179   0.00000  Uiso   1.00
C321   C     0.97683   0.16667   0.50000   0.00000  Uiso   1.00
C322   C     0.52317   0.16667   0.50000   0.00000  Uiso   1.00
C323   C     0.97686   0.13929   0.40421   0.00000  Uiso   1.00
C324   C     0.52314   0.19405   0.59579   0.00000  Uiso   1.00
C325   C     0.97686   0.19405   0.59579   0.00000  Uiso   1.00
C326   C     0.52314   0.13929   0.40421   0.00000  Uiso   1.00
C327   C     0.75000   0.02173   0.50000   0.00000  Uiso   1.00
C328   C     0.75000   0.31160   0.50000   0.00000  Uiso   1.00
H329   H     0.88950   0.19058   0.58474   0.00000  Uiso   1.00
H330   H     0.61050   0.14276   0.41526   0.00000  Uiso   1.00
H331   H     0.88950   0.14276   0.41526   0.00000  Uiso   1.00
H332   H     0.61050   0.19058   0.58474   0.00000  Uiso   1.00
H333   H     0.95924   0.12851   0.36718   0.00000  Uiso   1.00
H334   H     0.54076   0.20482   0.63282   0.00000  Uiso   1.00
H335   H     0.95924   0.20482   0.63282   0.00000  Uiso   1.00
H336   H     0.54076   0.12851   0.36718   0.00000  Uiso   1.00
O337   O     0.25000   0.42845   0.54562   0.00000  Uiso   1.00
O338   O     0.25000   0.57155   0.45438   0.00000  Uiso   1.00
O339   O     0.25000   0.57155   0.54562   0.00000  Uiso   1.00
O340   O     0.25000   0.42845   0.45438   0.00000  Uiso   1.00
C341   C     0.25000   0.40600   0.50000   0.00000  Uiso   1.00
C342   C     0.25000   0.59400   0.50000   0.00000  Uiso   1.00
O343   O     0.18392   0.50000   0.54563   0.00000  Uiso   1.00
O344   O     0.31607   0.50000   0.45437   0.00000  Uiso   1.00
O345   O     0.31607   0.50000   0.54563   0.00000  Uiso   1.00
O346   O     0.18392   0.50000   0.45437   0.00000  Uiso   1.00
C347   C     0.16308   0.50000   0.50000   0.00000  Uiso   1.00
C348   C     0.33691   0.50000   0.50000   0.00000  Uiso   1.00
Zn349  Zn    0.25000   0.50000   0.56093   0.00000  Uiso   1.00
Zn350  Zn    0.25000   0.50000   0.43907   0.00000  Uiso   1.00
N351   N     0.25000   0.50000   0.35788   0.00000  Uiso   1.00
N352   N     0.25000   0.50000   0.64212   0.00000  Uiso   1.00
C353   C     0.40757   0.51333   0.54790   0.00000  Uiso   1.00
C354   C     0.09243   0.48667   0.45210   0.00000  Uiso   1.00
C355   C     0.40757   0.48667   0.45210   0.00000  Uiso   1.00
C356   C     0.09243   0.51333   0.54790   0.00000  Uiso   1.00
C357   C     0.38476   0.50000   0.50000   0.00000  Uiso   1.00
C358   C     0.11524   0.50000   0.50000   0.00000  Uiso   1.00
C359   C     0.45365   0.48638   0.45179   0.00000  Uiso   1.00
C360   C     0.04634   0.51362   0.54821   0.00000  Uiso   1.00
C361   C     0.45365   0.51362   0.54821   0.00000  Uiso   1.00
C362   C     0.04634   0.48638   0.45179   0.00000  Uiso   1.00
C363   C     0.47683   0.50000   0.50000   0.00000  Uiso   1.00
C364   C     0.02317   0.50000   0.50000   0.00000  Uiso   1.00
C365   C     0.47686   0.47262   0.40421   0.00000  Uiso   1.00
C366   C     0.02314   0.52738   0.59579   0.00000  Uiso   1.00
C367   C     0.47686   0.52738   0.59579   0.00000  Uiso   1.00
C368   C     0.02314   0.47262   0.40421   0.00000  Uiso   1.00
C369   C     0.25000   0.35506   0.50000   0.00000  Uiso   1.00
C370   C     0.25000   0.64494   0.50000   0.00000  Uiso   1.00
H371   H     0.38950   0.52391   0.58474   0.00000  Uiso   1.00
H372   H     0.11050   0.47609   0.41526   0.00000  Uiso   1.00
H373   H     0.38950   0.47609   0.41526   0.00000  Uiso   1.00
H374   H     0.11050   0.52391   0.58474   0.00000  Uiso   1.00
H375   H     0.45924   0.46184   0.36718   0.00000  Uiso   1.00
H376   H     0.04076   0.53816   0.63282   0.00000  Uiso   1.00
H377   H     0.45924   0.53816   0.63282   0.00000  Uiso   1.00
H378   H     0.04076   0.46184   0.36718   0.00000  Uiso   1.00
O379   O     0.75000   0.42845   0.54562   0.00000  Uiso   1.00
O380   O     0.75000   0.57155   0.45438   0.00000  Uiso   1.00
O381   O     0.75000   0.57155   0.54562   0.00000  Uiso   1.00
O382   O     0.75000   0.42845   0.45438   0.00000  Uiso   1.00
C383   C     0.75000   0.40600   0.50000   0.00000  Uiso   1.00
C384   C     0.75000   0.59400   0.50000   0.00000  Uiso   1.00
O385   O     0.68392   0.50000   0.54563   0.00000  Uiso   1.00
O386   O     0.81607   0.50000   0.45437   0.00000  Uiso   1.00
O387   O     0.81607   0.50000   0.54563   0.00000  Uiso   1.00
O388   O     0.68392   0.50000   0.45437   0.00000  Uiso   1.00
C389   C     0.66308   0.50000   0.50000   0.00000  Uiso   1.00
C390   C     0.83691   0.50000   0.50000   0.00000  Uiso   1.00
Zn391  Zn    0.75000   0.50000   0.56093   0.00000  Uiso   1.00
Zn392  Zn    0.75000   0.50000   0.43907   0.00000  Uiso   1.00
N393   N     0.75000   0.50000   0.35788   0.00000  Uiso   1.00
N394   N     0.75000   0.50000   0.64212   0.00000  Uiso   1.00
C395   C     0.90757   0.51333   0.54790   0.00000  Uiso   1.00
C396   C     0.59243   0.48667   0.45210   0.00000  Uiso   1.00
C397   C     0.90757   0.48667   0.45210   0.00000  Uiso   1.00
C398   C     0.59243   0.51333   0.54790   0.00000  Uiso   1.00
C399   C     0.88476   0.50000   0.50000   0.00000  Uiso   1.00
C400   C     0.61524   0.50000   0.50000   0.00000  Uiso   1.00
C401   C     0.95365   0.48638   0.45179   0.00000  Uiso   1.00
C402   C     0.54634   0.51362   0.54821   0.00000  Uiso   1.00
C403   C     0.95365   0.51362   0.54821   0.00000  Uiso   1.00
C404   C     0.54634   0.48638   0.45179   0.00000  Uiso   1.00
C405   C     0.97683   0.50000   0.50000   0.00000  Uiso   1.00
C406   C     0.52317   0.50000   0.50000   0.00000  Uiso   1.00
C407   C     0.97686   0.47262   0.40421   0.00000  Uiso   1.00
C408   C     0.52314   0.52738   0.59579   0.00000  Uiso   1.00
C409   C     0.97686   0.52738   0.59579   0.00000  Uiso   1.00
C410   C     0.52314   0.47262   0.40421   0.00000  Uiso   1.00
C411   C     0.75000   0.35506   0.50000   0.00000  Uiso   1.00
C412   C     0.75000   0.64494   0.50000   0.00000  Uiso   1.00
H413   H     0.88950   0.52391   0.58474   0.00000  Uiso   1.00
H414   H     0.61050   0.47609   0.41526   0.00000  Uiso   1.00
H415   H     0.88950   0.47609   0.41526   0.00000  Uiso   1.00
H416   H     0.61050   0.52391   0.58474   0.00000  Uiso   1.00
H417   H     0.95924   0.46184   0.36718   0.00000  Uiso   1.00
H418   H     0.54076   0.53816   0.63282   0.00000  Uiso   1.00
H419   H     0.95924   0.53816   0.63282   0.00000  Uiso   1.00
H420   H     0.54076   0.46184   0.36718   0.00000  Uiso   1.00
O421   O     0.25000   0.76178   0.54562   0.00000  Uiso   1.00
O422   O     0.25000   0.90488   0.45438   0.00000  Uiso   1.00
O423   O     0.25000   0.90488   0.54562   0.00000  Uiso   1.00
O424   O     0.25000   0.76178   0.45438   0.00000  Uiso   1.00
C425   C     0.25000   0.73933   0.50000   0.00000  Uiso   1.00
C426   C     0.25000   0.92734   0.50000   0.00000  Uiso   1.00
O427   O     0.18392   0.83333   0.54563   0.00000  Uiso   1.00
O428   O     0.31607   0.83333   0.45437   0.00000  Uiso   1.00
O429   O     0.31607   0.83333   0.54563   0.00000  Uiso   1.00
O430   O     0.18392   0.83333   0.45437   0.00000  Uiso   1.00
C431   C     0.16308   0.83333   0.50000   0.00000  Uiso   1.00
C432   C     0.33691   0.83333   0.50000   0.00000  Uiso   1.00
Zn433  Zn    0.25000   0.83333   0.56093   0.00000  Uiso   1.00
Zn434  Zn    0.25000   0.83333   0.43907   0.00000  Uiso   1.00
N435   N     0.25000   0.83333   0.35788   0.00000  Uiso   1.00
N436   N     0.25000   0.83333   0.64212   0.00000  Uiso   1.00
C437   C     0.40757   0.84667   0.54790   0.00000  Uiso   1.00
C438   C     0.09243   0.82000   0.45210   0.00000  Uiso   1.00
C439   C     0.40757   0.82000   0.45210   0.00000  Uiso   1.00
C440   C     0.09243   0.84667   0.54790   0.00000  Uiso   1.00
C441   C     0.38476   0.83333   0.50000   0.00000  Uiso   1.00
C442   C     0.11524   0.83333   0.50000   0.00000  Uiso   1.00
C443   C     0.45365   0.81971   0.45179   0.00000  Uiso   1.00
C444   C     0.04634   0.84695   0.54821   0.00000  Uiso   1.00
C445   C     0.45365   0.84695   0.54821   0.00000  Uiso   1.00
C446   C     0.04634   0.81971   0.45179   0.00000  Uiso   1.00
C447   C     0.47683   0.83333   0.50000   0.00000  Uiso   1.00
C448   C     0.02317   0.83333   0.50000   0.00000  Uiso   1.00
C449   C     0.47686   0.80595   0.40421   0.00000  Uiso   1.00
C450   C     0.02314   0.86071   0.59579   0.00000  Uiso   1.00
C451   C     0.47686   0.86071   0.59579   0.00000  Uiso   1.00
C452   C     0.02314   0.80595   0.40421   0.00000  Uiso   1.00
C453   C     0.25000   0.68840   0.50000   0.00000  Uiso   1.00
C454   C     0.25000   0.97827   0.50000   0.00000  Uiso   1.00
H455   H     0.38950   0.85724   0.58474   0.00000  Uiso   1.00
H456   H     0.11050   0.80942   0.41526   0.00000  Uiso   1.00
H457   H     0.38950   0.80942   0.41526   0.00000  Uiso   1.00
H458   H     0.11050   0.85724   0.58474   0.00000  Uiso   1.00
H459   H     0.45924   0.79518   0.36718   0.00000  Uiso   1.00
H460   H     0.04076   0.87149   0.63282   0.00000  Uiso   1.00
H461   H     0.45924   0.87149   0.63282   0.00000  Uiso   1.00
H462   H     0.04076   0.79518   0.36718   0.00000  Uiso   1.00
O463   O     0.75000   0.76178   0.54562   0.00000  Uiso   1.00
O464   O     0.75000   0.90488   0.45438   0.00000  Uiso   1.00
O465   O     0.75000   0.90488   0.54562   0.00000  Uiso   1.00
O466   O     0.75000   0.76178   0.45438   0.00000  Uiso   1.00
C467   C     0.75000   0.73933   0.50000   0.00000  Uiso   1.00
C468   C     0.75000   0.92734   0.50000   0.00000  Uiso   1.00
O469   O     0.68392   0.83333   0.54563   0.00000  Uiso   1.00
O470   O     0.81607   0.83333   0.45437   0.00000  Uiso   1.00
O471   O     0.81607   0.83333   0.54563   0.00000  Uiso   1.00
O472   O     0.68392   0.83333   0.45437   0.00000  Uiso   1.00
C473   C     0.66308   0.83333   0.50000   0.00000  Uiso   1.00
C474   C     0.83691   0.83333   0.50000   0.00000  Uiso   1.00
Zn475  Zn    0.75000   0.83333   0.56093   0.00000  Uiso   1.00
Zn476  Zn    0.75000   0.83333   0.43907   0.00000  Uiso   1.00
N477   N     0.75000   0.83333   0.35788   0.00000  Uiso   1.00
N478   N     0.75000   0.83333   0.64212   0.00000  Uiso   1.00
C479   C     0.90757   0.84667   0.54790   0.00000  Uiso   1.00
C480   C     0.59243   0.82000   0.45210   0.00000  Uiso   1.00
C481   C     0.90757   0.82000   0.45210   0.00000  Uiso   1.00
C482   C     0.59243   0.84667   0.54790   0.00000  Uiso   1.00
C483   C     0.88476   0.83333   0.50000   0.00000  Uiso   1.00
C484   C     0.61524   0.83333   0.50000   0.00000  Uiso   1.00
C485   C     0.95365   0.81971   0.45179   0.00000  Uiso   1.00
C486   C     0.54634   0.84695   0.54821   0.00000  Uiso   1.00
C487   C     0.95365   0.84695   0.54821   0.00000  Uiso   1.00
C488   C     0.54634   0.81971   0.45179   0.00000  Uiso   1.00
C489   C     0.97683   0.83333   0.50000   0.00000  Uiso   1.00
C490   C     0.52317   0.83333   0.50000   0.00000  Uiso   1.00
C491   C     0.97686   0.80595   0.40421   0.00000  Uiso   1.00
C492   C     0.52314   0.86071   0.59579   0.00000  Uiso   1.00
C493   C     0.97686   0.86071   0.59579   0.00000  Uiso   1.00
C494   C     0.52314   0.80595   0.40421   0.00000  Uiso   1.00
C495   C     0.75000   0.68840   0.50000   0.00000  Uiso   1.00
C496   C     0.75000   0.97827   0.50000   0.00000  Uiso   1.00
H497   H     0.88950   0.85724   0.58474   0.00000  Uiso   1.00
H498   H     0.61050   0.80942   0.41526   0.00000  Uiso   1.00
H499   H     0.88950   0.80942   0.41526   0.00000  Uiso   1.00
H500   H     0.61050   0.85724   0.58474   0.00000  Uiso   1.00
H501   H     0.95924   0.79518   0.36718   0.00000  Uiso   1.00
H502   H     0.54076   0.87149   0.63282   0.00000  Uiso   1.00
H503   H     0.95924   0.87149   0.63282   0.00000  Uiso   1.00
H504   H     0.54076   0.79518   0.36718   0.00000  Uiso   1.00
O505   O     0.25000   0.09512   0.87895   0.00000  Uiso   1.00
O506   O     0.25000   0.23822   0.78772   0.00000  Uiso   1.00
O507   O     0.25000   0.23822   0.87895   0.00000  Uiso   1.00
O508   O     0.25000   0.09512   0.78772   0.00000  Uiso   1.00
C509   C     0.25000   0.07266   0.83334   0.00000  Uiso   1.00
C510   C     0.25000   0.26067   0.83333   0.00000  Uiso   1.00
O511   O     0.18392   0.16667   0.87896   0.00000  Uiso   1.00
O512   O     0.31607   0.16667   0.78770   0.00000  Uiso   1.00
O513   O     0.31607   0.16667   0.87896   0.00000  Uiso   1.00
O514   O     0.18392   0.16667   0.78770   0.00000  Uiso   1.00
C515   C     0.16308   0.16667   0.83333   0.00000  Uiso   1.00
C516   C     0.33691   0.16667   0.83333   0.00000  Uiso   1.00
Zn517  Zn    0.25000   0.16667   0.89426   0.00000  Uiso   1.00
Zn518  Zn    0.25000   0.16667   0.77241   0.00000  Uiso   1.00
N519   N     0.25000   0.16667   0.69121   0.00000  Uiso   1.00
N520   N     0.25000   0.16667   0.97545   0.00000  Uiso   1.00
C521   C     0.40757   0.18000   0.88124   0.00000  Uiso   1.00
C522   C     0.09243   0.15333   0.78543   0.00000  Uiso   1.00
C523   C     0.40757   0.15333   0.78543   0.00000  Uiso   1.00
C524   C     0.09243   0.18000   0.88124   0.00000  Uiso   1.00
C525   C     0.38476   0.16667   0.83333   0.00000  Uiso   1.00
C526   C     0.11524   0.16667   0.83333   0.00000  Uiso   1.00
C527   C     0.45365   0.15305   0.78512   0.00000  Uiso   1.00
C528   C     0.04634   0.18029   0.88155   0.00000  Uiso   1.00
C529   C     0.45365   0.18029   0.88155   0.00000  Uiso   1.00
C530   C     0.04634   0.15305   0.78512   0.00000  Uiso   1.00
C531   C     0.47683   0.16667   0.83333   0.00000  Uiso   1.00
C532   C     0.02317   0.16667   0.83333   0.00000  Uiso   1.00
C533   C     0.47686   0.13929   0.73755   0.00000  Uiso   1.00
C534   C     0.02314   0.19405   0.92912   0.00000  Uiso   1.00
C535   C     0.47686   0.19405   0.92912   0.00000  Uiso   1.00
C536   C     0.02314   0.13929   0.73755   0.00000  Uiso   1.00
C537   C     0.25000   0.02173   0.83334   0.00000  Uiso   1.00
C538   C     0.25000   0.31160   0.83333   0.00000  Uiso   1.00
H539   H     0.38950   0.19058   0.91807   0.00000  Uiso   1.00
H540   H     0.11050   0.14276   0.74860   0.00000  Uiso   1.00
H541   H     0.38950   0.14276   0.74860   0.00000  Uiso   1.00
H542   H     0.11050   0.19058   0.91807   0.00000  Uiso   1.00
H543   H     0.45924   0.12851   0.70051   0.00000  Uiso   1.00
H544   H     0.04076   0.20482   0.96616   0.00000  Uiso   1.00
H545   H     0.45924   0.20482   0.96616   0.00000  Uiso   1.00
H546   H     0.04076   0.12851   0.70051   0.00000  Uiso   1.00
O547   O     0.75000   0.09512   0.87895   0.00000  Uiso   1.00
O548   O     0.75000   0.23822   0.78772   0.00000  Uiso   1.00
O549   O     0.75000   0.23822   0.87895   0.00000  Uiso   1.00
O550   O     0.75000   0.09512   0.78772   0.00000  Uiso   1.00
C551   C     0.75000   0.07266   0.83334   0.00000  Uiso   1.00
C552   C     0.75000   0.26067   0.83333   0.00000  Uiso   1.00
O553   O     0.68392   0.16667   0.87896   0.00000  Uiso   1.00
O554   O     0.81607   0.16667   0.78770   0.00000  Uiso   1.00
O555   O     0.81607   0.16667   0.87896   0.00000  Uiso   1.00
O556   O     0.68392   0.16667   0.78770   0.00000  Uiso   1.00
C557   C     0.66308   0.16667   0.83333   0.00000  Uiso   1.00
C558   C     0.83691   0.16667   0.83333   0.00000  Uiso   1.00
Zn559  Zn    0.75000   0.16667   0.89426   0.00000  Uiso   1.00
Zn560  Zn    0.75000   0.16667   0.77241   0.00000  Uiso   1.00
N561   N     0.75000   0.16667   0.69121   0.00000  Uiso   1.00
N562   N     0.75000   0.16667   0.97545   0.00000  Uiso   1.00
C563   C     0.90757   0.18000   0.88124   0.00000  Uiso   1.00
C564   C     0.59243   0.15333   0.78543   0.00000  Uiso   1.00
C565   C     0.90757   0.15333   0.78543   0.00000  Uiso   1.00
C566   C     0.59243   0.18000   0.88124   0.00000  Uiso   1.00
C567   C     0.88476   0.16667   0.83333   0.00000  Uiso   1.00
C568   C     0.61524   0.16667   0.83333   0.00000  Uiso   1.00
C569   C     0.95365   0.15305   0.78512   0.00000  Uiso   1.00
C570   C     0.54634   0.18029   0.88155   0.00000  Uiso   1.00
C571   C     0.95365   0.18029   0.88155   0.00000  Uiso   1.00
C572   C     0.54634   0.15305   0.78512   0.00000  Uiso   1.00
C573   C     0.97683   0.16667   0.83333   0.00000  Uiso   1.00
C574   C     0.52317   0.16667   0.83333   0.00000  Uiso   1.00
C575   C     0.97686   0.13929   0.73755   0.00000  Uiso   1.00
C576   C     0.52314   0.19405   0.92912   0.00000  Uiso   1.00
C577   C     0.97686   0.19405   0.92912   0.00000  Uiso   1.00
C578   C     0.52314   0.13929   0.73755   0.00000  Uiso   1.00
C579   C     0.75000   0.02173   0.83334   0.00000  Uiso   1.00
C580   C     0.75000   0.31160   0.83333   0.00000  Uiso   1.00
H581   H     0.88950   0.19058   0.91807   0.00000  Uiso   1.00
H582   H     0.61050   0.14276   0.74860   0.00000  Uiso   1.00
H583   H     0.88950   0.14276   0.74860   0.00000  Uiso   1.00
H584   H     0.61050   0.19058   0.91807   0.00000  Uiso   1.00
H585   H     0.95924   0.12851   0.70051   0.00000  Uiso   1.00
H586   H     0.54076   0.20482   0.96616   0.00000  Uiso   1.00
H587   H     0.95924   0.20482   0.96616   0.00000  Uiso   1.00
H588   H     0.54076   0.12851   0.70051   0.00000  Uiso   1.00
O589   O     0.25000   0.42845   0.87895   0.00000  Uiso   1.00
O590   O     0.25000   0.57155   0.78772   0.00000  Uiso   1.00
O591   O     0.25000   0.57155   0.87895   0.00000  Uiso   1.00
O592   O     0.25000   0.42845   0.78772   0.00000  Uiso   1.00
C593   C     0.25000   0.40600   0.83334   0.00000  Uiso   1.00
C594   C     0.25000   0.59400   0.83333   0.00000  Uiso   1.00
O595   O     0.18392   0.50000   0.87896   0.00000  Uiso   1.00
O596   O     0.31607   0.50000   0.78770   0.00000  Uiso   1.00
O597   O     0.31607   0.50000   0.87896   0.00000  Uiso   1.00
O598   O     0.18392   0.50000   0.78770   0.00000  Uiso   1.00
C599   C     0.16308   0.50000   0.83333   0.00000  Uiso   1.00
C600   C     0.33691   0.50000   0.83333   0.00000  Uiso   1.00
Zn601  Zn    0.25000   0.50000   0.89426   0.00000  Uiso   1.00
Zn602  Zn    0.25000   0.50000   0.77241   0.00000  Uiso   1.00
N603   N     0.25000   0.50000   0.69121   0.00000  Uiso   1.00
N604   N     0.25000   0.50000   0.97545   0.00000  Uiso   1.00
C605   C     0.40757   0.51333   0.88124   0.00000  Uiso   1.00
C606   C     0.09243   0.48667   0.78543   0.00000  Uiso   1.00
C607   C     0.40757   0.48667   0.78543   0.00000  Uiso   1.00
C608   C     0.09243   0.51333   0.88124   0.00000  Uiso   1.00
C609   C     0.38476   0.50000   0.83333   0.00000  Uiso   1.00
C610   C     0.11524   0.50000   0.83333   0.00000  Uiso   1.00
C611   C     0.45365   0.48638   0.78512   0.00000  Uiso   1.00
C612   C     0.04634   0.51362   0.88155   0.00000  Uiso   1.00
C613   C     0.45365   0.51362   0.88155   0.00000  Uiso   1.00
C614   C     0.04634   0.48638   0.78512   0.00000  Uiso   1.00
C615   C     0.47683   0.50000   0.83333   0.00000  Uiso   1.00
C616   C     0.02317   0.50000   0.83333   0.00000  Uiso   1.00
C617   C     0.47686   0.47262   0.73755   0.00000  Uiso   1.00
C618   C     0.02314   0.52738   0.92912   0.00000  Uiso   1.00
C619   C     0.47686   0.52738   0.92912   0.00000  Uiso   1.00
C620   C     0.02314   0.47262   0.73755   0.00000  Uiso   1.00
C621   C     0.25000   0.35506   0.83334   0.00000  Uiso   1.00
C622   C     0.25000   0.64494   0.83333   0.00000  Uiso   1.00
H623   H     0.38950   0.52391   0.91807   0.00000  Uiso   1.00
H624   H     0.11050   0.47609   0.74860   0.00000  Uiso   1.00
H625   H     0.38950   0.47609   0.74860   0.00000  Uiso   1.00
H626   H     0.11050   0.52391   0.91807   0.00000  Uiso   1.00
H627   H     0.45924   0.46184   0.70051   0.00000  Uiso   1.00
H628   H     0.04076   0.53816   0.96616   0.00000  Uiso   1.00
H629   H     0.45924   0.53816   0.96616   0.00000  Uiso   1.00
H630   H     0.04076   0.46184   0.70051   0.00000  Uiso   1.00
O631   O     0.75000   0.42845   0.87895   0.00000  Uiso   1.00
O632   O     0.75000   0.57155   0.78772   0.00000  Uiso   1.00
O633   O     0.75000   0.57155   0.87895   0.00000  Uiso   1.00
O634   O     0.75000   0.42845   0.78772   0.00000  Uiso   1.00
C635   C     0.75000   0.40600   0.83334   0.00000  Uiso   1.00
C636   C     0.75000   0.59400   0.83333   0.00000  Uiso   1.00
O637   O     0.68392   0.50000   0.87896   0.00000  Uiso   1.00
O638   O     0.81607   0.50000   0.78770   0.00000  Uiso   1.00
O639   O     0.81607   0.50000   0.87896   0.00000  Uiso   1.00
O640   O     0.68392   0.50000   0.78770   0.00000  Uiso   1.00
C641   C     0.66308   0.50000   0.83333   0.00000  Uiso   1.00
C642   C     0.83691   0.50000   0.83333   0.00000  Uiso   1.00
Zn643  Zn    0.75000   0.50000   0.89426   0.00000  Uiso   1.00
Zn644  Zn    0.75000   0.50000   0.77241   0.00000  Uiso   1.00
N645   N     0.75000   0.50000   0.69121   0.00000  Uiso   1.00
N646   N     0.75000   0.50000   0.97545   0.00000  Uiso   1.00
C647   C     0.90757   0.51333   0.88124   0.00000  Uiso   1.00
C648   C     0.59243   0.48667   0.78543   0.00000  Uiso   1.00
C649   C     0.90757   0.48667   0.78543   0.00000  Uiso   1.00
C650   C     0.59243   0.51333   0.88124   0.00000  Uiso   1.00
C651   C     0.88476   0.50000   0.83333   0.00000  Uiso   1.00
C652   C     0.61524   0.50000   0.83333   0.00000  Uiso   1.00
C653   C     0.95365   0.48638   0.78512   0.00000  Uiso   1.00
C654   C     0.54634   0.51362   0.88155   0.00000  Uiso   1.00
C655   C     0.95365   0.51362   0.88155   0.00000  Uiso   1.00
C656   C     0.54634   0.48638   0.78512   0.00000  Uiso   1.00
C657   C     0.97683   0.50000   0.83333   0.00000  Uiso   1.00
C658   C     0.52317   0.50000   0.83333   0.00000  Uiso   1.00
C659   C     0.97686   0.47262   0.73755   0.00000  Uiso   1.00
C660   C     0.52314   0.52738   0.92912   0.00000  Uiso   1.00
C661   C     0.97686   0.52738   0.92912   0.00000  Uiso   1.00
C662   C     0.52314   0.47262   0.73755   0.00000  Uiso   1.00
C663   C     0.75000   0.35506   0.83334   0.00000  Uiso   1.00
C664   C     0.75000   0.64494   0.83333   0.00000  Uiso   1.00
H665   H     0.88950   0.52391   0.91807   0.00000  Uiso   1.00
H666   H     0.61050   0.47609   0.74860   0.00000  Uiso   1.00
H667   H     0.88950   0.47609   0.74860   0.00000  Uiso   1.00
H668   H     0.61050   0.52391   0.91807   0.00000  Uiso   1.00
H669   H     0.95924   0.46184   0.70051   0.00000  Uiso   1.00
H670   H     0.54076   0.53816   0.96616   0.00000  Uiso   1.00
H671   H     0.95924   0.53816   0.96616   0.00000  Uiso   1.00
H672   H     0.54076   0.46184   0.70051   0.00000  Uiso   1.00
O673   O     0.25000   0.76178   0.87895   0.00000  Uiso   1.00
O674   O     0.25000   0.90488   0.78772   0.00000  Uiso   1.00
O675   O     0.25000   0.90488   0.87895   0.00000  Uiso   1.00
O676   O     0.25000   0.76178   0.78772   0.00000  Uiso   1.00
C677   C     0.25000   0.73933   0.83334   0.00000  Uiso   1.00
C678   C     0.25000   0.92734   0.83333   0.00000  Uiso   1.00
O679   O     0.18392   0.83333   0.87896   0.00000  Uiso   1.00
O680   O     0.31607   0.83333   0.78770   0.00000  Uiso   1.00
O681   O     0.31607   0.83333   0.87896   0.00000  Uiso   1.00
O682   O     0.18392   0.83333   0.78770   0.00000  Uiso   1.00
C683   C     0.16308   0.83333   0.83333   0.00000  Uiso   1.00
C684   C     0.33691   0.83333   0.83333   0.00000  Uiso   1.00
Zn685  Zn    0.25000   0.83333   0.89426   0.00000  Uiso   1.00
Zn686  Zn    0.25000   0.83333   0.77241   0.00000  Uiso   1.00
N687   N     0.25000   0.83333   0.69121   0.00000  Uiso   1.00
N688   N     0.25000   0.83333   0.97545   0.00000  Uiso   1.00
C689   C     0.40757   0.84667   0.88124   0.00000  Uiso   1.00
C690   C     0.09243   0.82000   0.78543   0.00000  Uiso   1.00
C691   C     0.40757   0.82000   0.78543   0.00000  Uiso   1.00
C692   C     0.09243   0.84667   0.88124   0.00000  Uiso   1.00
C693   C     0.38476   0.83333   0.83333   0.00000  Uiso   1.00
C694   C     0.11524   0.83333   0.83333   0.00000  Uiso   1.00
C695   C     0.45365   0.81971   0.78512   0.00000  Uiso   1.00
C696   C     0.04634   0.84695   0.88155   0.00000  Uiso   1.00
C697   C     0.45365   0.84695   0.88155   0.00000  Uiso   1.00
C698   C     0.04634   0.81971   0.78512   0.00000  Uiso   1.00
C699   C     0.47683   0.83333   0.83333   0.00000  Uiso   1.00
C700   C     0.02317   0.83333   0.83333   0.00000  Uiso   1.00
C701   C     0.47686   0.80595   0.73755   0.00000  Uiso   1.00
C702   C     0.02314   0.86071   0.92912   0.00000  Uiso   1.00
C703   C     0.47686   0.86071   0.92912   0.00000  Uiso   1.00
C704   C     0.02314   0.80595   0.73755   0.00000  Uiso   1.00
C705   C     0.25000   0.68840   0.83334   0.00000  Uiso   1.00
C706   C     0.25000   0.97827   0.83333   0.00000  Uiso   1.00
H707   H     0.38950   0.85724   0.91807   0.00000  Uiso   1.00
H708   H     0.11050   0.80942   0.74860   0.00000  Uiso   1.00
H709   H     0.38950   0.80942   0.74860   0.00000  Uiso   1.00
H710   H     0.11050   0.85724   0.91807   0.00000  Uiso   1.00
H711   H     0.45924   0.79518   0.70051   0.00000  Uiso   1.00
H712   H     0.04076   0.87149   0.96616   0.00000  Uiso   1.00
H713   H     0.45924   0.87149   0.96616   0.00000  Uiso   1.00
H714   H     0.04076   0.79518   0.70051   0.00000  Uiso   1.00
O715   O     0.75000   0.76178   0.87895   0.00000  Uiso   1.00
O716   O     0.75000   0.90488   0.78772   0.00000  Uiso   1.00
O717   O     0.75000   0.90488   0.87895   0.00000  Uiso   1.00
O718   O     0.75000   0.76178   0.78772   0.00000  Uiso   1.00
C719   C     0.75000   0.73933   0.83334   0.00000  Uiso   1.00
C720   C     0.75000   0.92734   0.83333   0.00000  Uiso   1.00
O721   O     0.68392   0.83333   0.87896   0.00000  Uiso   1.00
O722   O     0.81607   0.83333   0.78770   0.00000  Uiso   1.00
O723   O     0.81607   0.83333   0.87896   0.00000  Uiso   1.00
O724   O     0.68392   0.83333   0.78770   0.00000  Uiso   1.00
C725   C     0.66308   0.83333   0.83333   0.00000  Uiso   1.00
C726   C     0.83691   0.83333   0.83333   0.00000  Uiso   1.00
Zn727  Zn    0.75000   0.83333   0.89426   0.00000  Uiso   1.00
Zn728  Zn    0.75000   0.83333   0.77241   0.00000  Uiso   1.00
N729   N     0.75000   0.83333   0.69121   0.00000  Uiso   1.00
N730   N     0.75000   0.83333   0.97545   0.00000  Uiso   1.00
C731   C     0.90757   0.84667   0.88124   0.00000  Uiso   1.00
C732   C     0.59243   0.82000   0.78543   0.00000  Uiso   1.00
C733   C     0.90757   0.82000   0.78543   0.00000  Uiso   1.00
C734   C     0.59243   0.84667   0.88124   0.00000  Uiso   1.00
C735   C     0.88476   0.83333   0.83333   0.00000  Uiso   1.00
C736   C     0.61524   0.83333   0.83333   0.00000  Uiso   1.00
C737   C     0.95365   0.81971   0.78512   0.00000  Uiso   1.00
C738   C     0.54634   0.84695   0.88155   0.00000  Uiso   1.00
C739   C     0.95365   0.84695   0.88155   0.00000  Uiso   1.00
C740   C     0.54634   0.81971   0.78512   0.00000  Uiso   1.00
C741   C     0.97683   0.83333   0.83333   0.00000  Uiso   1.00
C742   C     0.52317   0.83333   0.83333   0.00000  Uiso   1.00
C743   C     0.97686   0.80595   0.73755   0.00000  Uiso   1.00
C744   C     0.52314   0.86071   0.92912   0.00000  Uiso   1.00
C745   C     0.97686   0.86071   0.92912   0.00000  Uiso   1.00
C746   C     0.52314   0.80595   0.73755   0.00000  Uiso   1.00
C747   C     0.75000   0.68840   0.83334   0.00000  Uiso   1.00
C748   C     0.75000   0.97827   0.83333   0.00000  Uiso   1.00
H749   H     0.88950   0.85724   0.91807   0.00000  Uiso   1.00
H750   H     0.61050   0.80942   0.74860   0.00000  Uiso   1.00
H751   H     0.88950   0.80942   0.74860   0.00000  Uiso   1.00
H752   H     0.61050   0.85724   0.91807   0.00000  Uiso   1.00
H753   H     0.95924   0.79518   0.70051   0.00000  Uiso   1.00
H754   H     0.54076   0.87149   0.96616   0.00000  Uiso   1.00
H755   H     0.95924   0.87149   0.96616   0.00000  Uiso   1.00
H756   H     0.54076   0.79518   0.70051   0.00000  Uiso   1.00
loop_
_geom_bond_atom_site_label_1
_geom_bond_atom_site_label_2
_geom_bond_distance
_geom_bond_site_symmetry_2
_ccdc_geom_bond_type
O1     C5      1.262   .     A
O1     Zn13    1.954   .     S
O2     C6      1.262   .     A
O2     Zn14    1.954   .     S
O3     Zn13    1.954   .     S
O3     C6      1.262   .     A
O4     Zn14    1.954   .     S
O4     C5      1.262   .     A
C5     C33     1.365   .     S
C6     C34     1.365   .     S
O7     C11     1.274   .     A
O7     Zn13    2.018   .     S
O8     C12     1.274   .     A
O8     Zn14    2.018   .     S
O9     C12     1.274   .     A
O9     Zn13    2.018   .     S
O10    C11     1.274   .     A
O10    Zn14    2.018   .     S
C11    C22     1.436   .     S
C12    C21     1.436   .     S
Zn13   N16     1.974   .     S
Zn14   N15     1.974   .     S
N15    N520    1.194   1_554 S
N16    N267    1.194   .     S
C17    C25     1.384   .     A
C17    H35     1.085   .     S
C17    C21     1.398   .     A
C18    C26     1.384   .     A
C18    C22     1.398   .     A
C18    H36     1.085   .     S
C19    C23     1.384   .     A
C19    H37     1.085   .     S
C19    C21     1.398   .     A
C20    C22     1.398   .     A
C20    H38     1.085   .     S
C20    C24     1.384   .     A
C23    C27     1.411   .     A
C23    C29     1.400   .     A
C24    C30     1.400   .     A
C24    C28     1.411   .     A
C25    C31     1.400   .     A
C25    C27     1.411   .     A
C26    C32     1.400   .     A
C26    C28     1.411   .     A
C27    C70     1.391   .     S
C28    C69     1.391   1_455 S
C29    H39     1.084   .     S
C29    C74     1.389   .     S
C30    H40     1.084   .     S
C30    C73     1.389   1_455 S
C31    H41     1.084   .     S
C31    C72     1.389   .     S
C32    H42     1.084   .     S
C32    C71     1.389   1_455 S
C33    C202    1.165   1_545 S
C34    C117    1.165   .     S
O43    C47     1.262   .     A
O43    Zn55    1.954   .     S
O44    C48     1.262   .     A
O44    Zn56    1.954   .     S
O45    Zn55    1.954   .     S
O45    C48     1.262   .     A
O46    Zn56    1.954   .     S
O46    C47     1.262   .     A
C47    C75     1.365   .     S
C48    C76     1.365   .     S
O49    C53     1.274   .     A
O49    Zn55    2.018   .     S
O50    C54     1.274   .     A
O50    Zn56    2.018   .     S
O51    C54     1.274   .     A
O51    Zn55    2.018   .     S
O52    C53     1.274   .     A
O52    Zn56    2.018   .     S
C53    C64     1.436   .     S
C54    C63     1.436   .     S
Zn55   N58     1.974   .     S
Zn56   N57     1.974   .     S
N57    N562    1.194   1_554 S
N58    N309    1.194   .     S
C59    C67     1.384   .     A
C59    H77     1.085   .     S
C59    C63     1.398   .     A
C60    C68     1.384   .     A
C60    C64     1.398   .     A
C60    H78     1.085   .     S
C61    C65     1.384   .     A
C61    H79     1.085   .     S
C61    C63     1.398   .     A
C62    C64     1.398   .     A
C62    H80     1.085   .     S
C62    C66     1.384   .     A
C65    C69     1.411   .     A
C65    C71     1.400   .     A
C66    C72     1.400   .     A
C66    C70     1.411   .     A
C67    C73     1.400   .     A
C67    C69     1.411   .     A
C68    C74     1.400   .     A
C68    C70     1.411   .     A
C69    C28     1.391   1_655 S
C71    H81     1.084   .     S
C71    C32     1.389   1_655 S
C72    H82     1.084   .     S
C73    H83     1.084   .     S
C73    C30     1.389   1_655 S
C74    H84     1.084   .     S
C75    C244    1.165   1_545 S
C76    C159    1.165   .     S
O85    C89     1.262   .     A
O85    Zn97    1.954   .     S
O86    C90     1.262   .     A
O86    Zn98    1.954   .     S
O87    Zn97    1.954   .     S
O87    C90     1.262   .     A
O88    Zn98    1.954   .     S
O88    C89     1.262   .     A
C89    C117    1.365   .     S
C90    C118    1.365   .     S
O91    C95     1.274   .     A
O91    Zn97    2.018   .     S
O92    C96     1.274   .     A
O92    Zn98    2.018   .     S
O93    C96     1.274   .     A
O93    Zn97    2.018   .     S
O94    C95     1.274   .     A
O94    Zn98    2.018   .     S
C95    C106    1.436   .     S
C96    C105    1.436   .     S
Zn97   N100    1.974   .     S
Zn98   N99     1.974   .     S
N99    N604    1.194   1_554 S
N100   N351    1.194   .     S
C101   C109    1.384   .     A
C101   H119    1.085   .     S
C101   C105    1.398   .     A
C102   C110    1.384   .     A
C102   C106    1.398   .     A
C102   H120    1.085   .     S
C103   C107    1.384   .     A
C103   H121    1.085   .     S
C103   C105    1.398   .     A
C104   C106    1.398   .     A
C104   H122    1.085   .     S
C104   C108    1.384   .     A
C107   C111    1.411   .     A
C107   C113    1.400   .     A
C108   C114    1.400   .     A
C108   C112    1.411   .     A
C109   C115    1.400   .     A
C109   C111    1.411   .     A
C110   C116    1.400   .     A
C110   C112    1.411   .     A
C111   C154    1.391   .     S
C112   C153    1.391   1_455 S
C113   H123    1.084   .     S
C113   C158    1.389   .     S
C114   H124    1.084   .     S
C114   C157    1.389   1_455 S
C115   H125    1.084   .     S
C115   C156    1.389   .     S
C116   H126    1.084   .     S
C116   C155    1.389   1_455 S
C118   C201    1.165   .     S
O127   C131    1.262   .     A
O127   Zn139   1.954   .     S
O128   C132    1.262   .     A
O128   Zn140   1.954   .     S
O129   Zn139   1.954   .     S
O129   C132    1.262   .     A
O130   Zn140   1.954   .     S
O130   C131    1.262   .     A
C131   C159    1.365   .     S
C132   C160    1.365   .     S
O133   C137    1.274   .     A
O133   Zn139   2.018   .     S
O134   C138    1.274   .     A
O134   Zn140   2.018   .     S
O135   C138    1.274   .     A
O135   Zn139   2.018   .     S
O136   C137    1.274   .     A
O136   Zn140   2.018   .     S
C137   C148    1.436   .     S
C138   C147    1.436   .     S
Zn139  N142    1.974   .     S
Zn140  N141    1.974   .     S
N141   N646    1.194   1_554 S
N142   N393    1.194   .     S
C143   C151    1.384   .     A
C143   H161    1.085   .     S
C143   C147    1.398   .     A
C144   C152    1.384   .     A
C144   C148    1.398   .     A
C144   H162    1.085   .     S
C145   C149    1.384   .     A
C145   H163    1.085   .     S
C145   C147    1.398   .     A
C146   C148    1.398   .     A
C146   H164    1.085   .     S
C146   C150    1.384   .     A
C149   C153    1.411   .     A
C149   C155    1.400   .     A
C150   C156    1.400   .     A
C150   C154    1.411   .     A
C151   C157    1.400   .     A
C151   C153    1.411   .     A
C152   C158    1.400   .     A
C152   C154    1.411   .     A
C153   C112    1.391   1_655 S
C155   H165    1.084   .     S
C155   C116    1.389   1_655 S
C156   H166    1.084   .     S
C157   H167    1.084   .     S
C157   C114    1.389   1_655 S
C158   H168    1.084   .     S
C160   C243    1.165   .     S
O169   C173    1.262   .     A
O169   Zn181   1.954   .     S
O170   C174    1.262   .     A
O170   Zn182   1.954   .     S
O171   Zn181   1.954   .     S
O171   C174    1.262   .     A
O172   Zn182   1.954   .     S
O172   C173    1.262   .     A
C173   C201    1.365   .     S
C174   C202    1.365   .     S
O175   C179    1.274   .     A
O175   Zn181   2.018   .     S
O176   C180    1.274   .     A
O176   Zn182   2.018   .     S
O177   C180    1.274   .     A
O177   Zn181   2.018   .     S
O178   C179    1.274   .     A
O178   Zn182   2.018   .     S
C179   C190    1.436   .     S
C180   C189    1.436   .     S
Zn181  N184    1.974   .     S
Zn182  N183    1.974   .     S
N183   N688    1.194   1_554 S
N184   N435    1.194   .     S
C185   C193    1.384   .     A
C185   H203    1.085   .     S
C185   C189    1.398   .     A
C186   C194    1.384   .     A
C186   C190    1.398   .     A
C186   H204    1.085   .     S
C187   C191    1.384   .     A
C187   H205    1.085   .     S
C187   C189    1.398   .     A
C188   C190    1.398   .     A
C188   H206    1.085   .     S
C188   C192    1.384   .     A
C191   C195    1.411   .     A
C191   C197    1.400   .     A
C192   C198    1.400   .     A
C192   C196    1.411   .     A
C193   C199    1.400   .     A
C193   C195    1.411   .     A
C194   C200    1.400   .     A
C194   C196    1.411   .     A
C195   C238    1.391   .     S
C196   C237    1.391   1_455 S
C197   H207    1.084   .     S
C197   C242    1.389   .     S
C198   H208    1.084   .     S
C198   C241    1.389   1_455 S
C199   H209    1.084   .     S
C199   C240    1.389   .     S
C200   H210    1.084   .     S
C200   C239    1.389   1_455 S
C202   C33     1.165   1_565 S
O211   C215    1.262   .     A
O211   Zn223   1.954   .     S
O212   C216    1.262   .     A
O212   Zn224   1.954   .     S
O213   Zn223   1.954   .     S
O213   C216    1.262   .     A
O214   Zn224   1.954   .     S
O214   C215    1.262   .     A
C215   C243    1.365   .     S
C216   C244    1.365   .     S
O217   C221    1.274   .     A
O217   Zn223   2.018   .     S
O218   C222    1.274   .     A
O218   Zn224   2.018   .     S
O219   C222    1.274   .     A
O219   Zn223   2.018   .     S
O220   C221    1.274   .     A
O220   Zn224   2.018   .     S
C221   C232    1.436   .     S
C222   C231    1.436   .     S
Zn223  N226    1.974   .     S
Zn224  N225    1.974   .     S
N225   N730    1.194   1_554 S
N226   N477    1.194   .     S
C227   C235    1.384   .     A
C227   H245    1.085   .     S
C227   C231    1.398   .     A
C228   C236    1.384   .     A
C228   C232    1.398   .     A
C228   H246    1.085   .     S
C229   C233    1.384   .     A
C229   H247    1.085   .     S
C229   C231    1.398   .     A
C230   C232    1.398   .     A
C230   H248    1.085   .     S
C230   C234    1.384   .     A
C233   C237    1.411   .     A
C233   C239    1.400   .     A
C234   C240    1.400   .     A
C234   C238    1.411   .     A
C235   C241    1.400   .     A
C235   C237    1.411   .     A
C236   C242    1.400   .     A
C236   C238    1.411   .     A
C237   C196    1.391   1_655 S
C239   H249    1.084   .     S
C239   C200    1.389   1_655 S
C240   H250    1.084   .     S
C241   H251    1.084   .     S
C241   C198    1.389   1_655 S
C242   H252    1.084   .     S
C244   C75     1.165   1_565 S
O253   C257    1.262   .     A
O253   Zn265   1.954   .     S
O254   C258    1.262   .     A
O254   Zn266   1.954   .     S
O255   Zn265   1.954   .     S
O255   C258    1.262   .     A
O256   Zn266   1.954   .     S
O256   C257    1.262   .     A
C257   C285    1.365   .     S
C258   C286    1.365   .     S
O259   C263    1.274   .     A
O259   Zn265   2.018   .     S
O260   C264    1.274   .     A
O260   Zn266   2.018   .     S
O261   C264    1.274   .     A
O261   Zn265   2.018   .     S
O262   C263    1.274   .     A
O262   Zn266   2.018   .     S
C263   C274    1.436   .     S
C264   C273    1.436   .     S
Zn265  N268    1.974   .     S
Zn266  N267    1.974   .     S
N268   N519    1.194   .     S
C269   C277    1.384   .     A
C269   H287    1.085   .     S
C269   C273    1.398   .     A
C270   C278    1.384   .     A
C270   C274    1.398   .     A
C270   H288    1.085   .     S
C271   C275    1.384   .     A
C271   H289    1.085   .     S
C271   C273    1.398   .     A
C272   C274    1.398   .     A
C272   H290    1.085   .     S
C272   C276    1.384   .     A
C275   C279    1.411   .     A
C275   C281    1.400   .     A
C276   C282    1.400   .     A
C276   C280    1.411   .     A
C277   C283    1.400   .     A
C277   C279    1.411   .     A
C278   C284    1.400   .     A
C278   C280    1.411   .     A
C279   C322    1.391   .     S
C280   C321    1.391   1_455 S
C281   H291    1.084   .     S
C281   C326    1.389   .     S
C282   H292    1.084   .     S
C282   C325    1.389   1_455 S
C283   H293    1.084   .     S
C283   C324    1.389   .     S
C284   H294    1.084   .     S
C284   C323    1.389   1_455 S
C285   C454    1.165   1_545 S
C286   C369    1.165   .     S
O295   C299    1.262   .     A
O295   Zn307   1.954   .     S
O296   C300    1.262   .     A
O296   Zn308   1.954   .     S
O297   Zn307   1.954   .     S
O297   C300    1.262   .     A
O298   Zn308   1.954   .     S
O298   C299    1.262   .     A
C299   C327    1.365   .     S
C300   C328    1.365   .     S
O301   C305    1.274   .     A
O301   Zn307   2.018   .     S
O302   C306    1.274   .     A
O302   Zn308   2.018   .     S
O303   C306    1.274   .     A
O303   Zn307   2.018   .     S
O304   C305    1.274   .     A
O304   Zn308   2.018   .     S
C305   C316    1.436   .     S
C306   C315    1.436   .     S
Zn307  N310    1.974   .     S
Zn308  N309    1.974   .     S
N310   N561    1.194   .     S
C311   C319    1.384   .     A
C311   H329    1.085   .     S
C311   C315    1.398   .     A
C312   C320    1.384   .     A
C312   C316    1.398   .     A
C312   H330    1.085   .     S
C313   C317    1.384   .     A
C313   H331    1.085   .     S
C313   C315    1.398   .     A
C314   C316    1.398   .     A
C314   H332    1.085   .     S
C314   C318    1.384   .     A
C317   C321    1.411   .     A
C317   C323    1.400   .     A
C318   C324    1.400   .     A
C318   C322    1.411   .     A
C319   C325    1.400   .     A
C319   C321    1.411   .     A
C320   C326    1.400   .     A
C320   C322    1.411   .     A
C321   C280    1.391   1_655 S
C323   H333    1.084   .     S
C323   C284    1.389   1_655 S
C324   H334    1.084   .     S
C325   H335    1.084   .     S
C325   C282    1.389   1_655 S
C326   H336    1.084   .     S
C327   C496    1.165   1_545 S
C328   C411    1.165   .     S
O337   C341    1.262   .     A
O337   Zn349   1.954   .     S
O338   C342    1.262   .     A
O338   Zn350   1.954   .     S
O339   Zn349   1.954   .     S
O339   C342    1.262   .     A
O340   Zn350   1.954   .     S
O340   C341    1.262   .     A
C341   C369    1.365   .     S
C342   C370    1.365   .     S
O343   C347    1.274   .     A
O343   Zn349   2.018   .     S
O344   C348    1.274   .     A
O344   Zn350   2.018   .     S
O345   C348    1.274   .     A
O345   Zn349   2.018   .     S
O346   C347    1.274   .     A
O346   Zn350   2.018   .     S
C347   C358    1.436   .     S
C348   C357    1.436   .     S
Zn349  N352    1.974   .     S
Zn350  N351    1.974   .     S
N352   N603    1.194   .     S
C353   C361    1.384   .     A
C353   H371    1.085   .     S
C353   C357    1.398   .     A
C354   C362    1.384   .     A
C354   C358    1.398   .     A
C354   H372    1.085   .     S
C355   C359    1.384   .     A
C355   H373    1.085   .     S
C355   C357    1.398   .     A
C356   C358    1.398   .     A
C356   H374    1.085   .     S
C356   C360    1.384   .     A
C359   C363    1.411   .     A
C359   C365    1.400   .     A
C360   C366    1.400   .     A
C360   C364    1.411   .     A
C361   C367    1.400   .     A
C361   C363    1.411   .     A
C362   C368    1.400   .     A
C362   C364    1.411   .     A
C363   C406    1.391   .     S
C364   C405    1.391   1_455 S
C365   H375    1.084   .     S
C365   C410    1.389   .     S
C366   H376    1.084   .     S
C366   C409    1.389   1_455 S
C367   H377    1.084   .     S
C367   C408    1.389   .     S
C368   H378    1.084   .     S
C368   C407    1.389   1_455 S
C370   C453    1.165   .     S
O379   C383    1.262   .     A
O379   Zn391   1.954   .     S
O380   C384    1.262   .     A
O380   Zn392   1.954   .     S
O381   Zn391   1.954   .     S
O381   C384    1.262   .     A
O382   Zn392   1.954   .     S
O382   C383    1.262   .     A
C383   C411    1.365   .     S
C384   C412    1.365   .     S
O385   C389    1.274   .     A
O385   Zn391   2.018   .     S
O386   C390    1.274   .     A
O386   Zn392   2.018   .     S
O387   C390    1.274   .     A
O387   Zn391   2.018   .     S
O388   C389    1.274   .     A
O388   Zn392   2.018   .     S
C389   C400    1.436   .     S
C390   C399    1.436   .     S
Zn391  N394    1.974   .     S
Zn392  N393    1.974   .     S
N394   N645    1.194   .     S
C395   C403    1.384   .     A
C395   H413    1.085   .     S
C395   C399    1.398   .     A
C396   C404    1.384   .     A
C396   C400    1.398   .     A
C396   H414    1.085   .     S
C397   C401    1.384   .     A
C397   H415    1.085   .     S
C397   C399    1.398   .     A
C398   C400    1.398   .     A
C398   H416    1.085   .     S
C398   C402    1.384   .     A
C401   C405    1.411   .     A
C401   C407    1.400   .     A
C402   C408    1.400   .     A
C402   C406    1.411   .     A
C403   C409    1.400   .     A
C403   C405    1.411   .     A
C404   C410    1.400   .     A
C404   C406    1.411   .     A
C405   C364    1.391   1_655 S
C407   H417    1.084   .     S
C407   C368    1.389   1_655 S
C408   H418    1.084   .     S
C409   H419    1.084   .     S
C409   C366    1.389   1_655 S
C410   H420    1.084   .     S
C412   C495    1.165   .     S
O421   C425    1.262   .     A
O421   Zn433   1.954   .     S
O422   C426    1.262   .     A
O422   Zn434   1.954   .     S
O423   Zn433   1.954   .     S
O423   C426    1.262   .     A
O424   Zn434   1.954   .     S
O424   C425    1.262   .     A
C425   C453    1.365   .     S
C426   C454    1.365   .     S
O427   C431    1.274   .     A
O427   Zn433   2.018   .     S
O428   C432    1.274   .     A
O428   Zn434   2.018   .     S
O429   C432    1.274   .     A
O429   Zn433   2.018   .     S
O430   C431    1.274   .     A
O430   Zn434   2.018   .     S
C431   C442    1.436   .     S
C432   C441    1.436   .     S
Zn433  N436    1.974   .     S
Zn434  N435    1.974   .     S
N436   N687    1.194   .     S
C437   C445    1.384   .     A
C437   H455    1.085   .     S
C437   C441    1.398   .     A
C438   C446    1.384   .     A
C438   C442    1.398   .     A
C438   H456    1.085   .     S
C439   C443    1.384   .     A
C439   H457    1.085   .     S
C439   C441    1.398   .     A
C440   C442    1.398   .     A
C440   H458    1.085   .     S
C440   C444    1.384   .     A
C443   C447    1.411   .     A
C443   C449    1.400   .     A
C444   C450    1.400   .     A
C444   C448    1.411   .     A
C445   C451    1.400   .     A
C445   C447    1.411   .     A
C446   C452    1.400   .     A
C446   C448    1.411   .     A
C447   C490    1.391   .     S
C448   C489    1.391   1_455 S
C449   H459    1.084   .     S
C449   C494    1.389   .     S
C450   H460    1.084   .     S
C450   C493    1.389   1_455 S
C451   H461    1.084   .     S
C451   C492    1.389   .     S
C452   H462    1.084   .     S
C452   C491    1.389   1_455 S
C454   C285    1.165   1_565 S
O463   C467    1.262   .     A
O463   Zn475   1.954   .     S
O464   C468    1.262   .     A
O464   Zn476   1.954   .     S
O465   Zn475   1.954   .     S
O465   C468    1.262   .     A
O466   Zn476   1.954   .     S
O466   C467    1.262   .     A
C467   C495    1.365   .     S
C468   C496    1.365   .     S
O469   C473    1.274   .     A
O469   Zn475   2.018   .     S
O470   C474    1.274   .     A
O470   Zn476   2.018   .     S
O471   C474    1.274   .     A
O471   Zn475   2.018   .     S
O472   C473    1.274   .     A
O472   Zn476   2.018   .     S
C473   C484    1.436   .     S
C474   C483    1.436   .     S
Zn475  N478    1.974   .     S
Zn476  N477    1.974   .     S
N478   N729    1.194   .     S
C479   C487    1.384   .     A
C479   H497    1.085   .     S
C479   C483    1.398   .     A
C480   C488    1.384   .     A
C480   C484    1.398   .     A
C480   H498    1.085   .     S
C481   C485    1.384   .     A
C481   H499    1.085   .     S
C481   C483    1.398   .     A
C482   C484    1.398   .     A
C482   H500    1.085   .     S
C482   C486    1.384   .     A
C485   C489    1.411   .     A
C485   C491    1.400   .     A
C486   C492    1.400   .     A
C486   C490    1.411   .     A
C487   C493    1.400   .     A
C487   C489    1.411   .     A
C488   C494    1.400   .     A
C488   C490    1.411   .     A
C489   C448    1.391   1_655 S
C491   H501    1.084   .     S
C491   C452    1.389   1_655 S
C492   H502    1.084   .     S
C493   H503    1.084   .     S
C493   C450    1.389   1_655 S
C494   H504    1.084   .     S
C496   C327    1.165   1_565 S
O505   C509    1.262   .     A
O505   Zn517   1.954   .     S
O506   C510    1.262   .     A
O506   Zn518   1.954   .     S
O507   Zn517   1.954   .     S
O507   C510    1.262   .     A
O508   Zn518   1.954   .     S
O508   C509    1.262   .     A
C509   C537    1.365   .     S
C510   C538    1.365   .     S
O511   C515    1.274   .     A
O511   Zn517   2.018   .     S
O512   C516    1.274   .     A
O512   Zn518   2.018   .     S
O513   C516    1.274   .     A
O513   Zn517   2.018   .     S
O514   C515    1.274   .     A
O514   Zn518   2.018   .     S
C515   C526    1.436   .     S
C516   C525    1.436   .     S
Zn517  N520    1.974   .     S
Zn518  N519    1.974   .     S
N520   N15     1.194   1_556 S
C521   C529    1.384   .     A
C521   H539    1.085   .     S
C521   C525    1.398   .     A
C522   C530    1.384   .     A
C522   C526    1.398   .     A
C522   H540    1.085   .     S
C523   C527    1.384   .     A
C523   H541    1.085   .     S
C523   C525    1.398   .     A
C524   C526    1.398   .     A
C524   H542    1.085   .     S
C524   C528    1.384   .     A
C527   C531    1.411   .     A
C527   C533    1.400   .     A
C528   C534    1.400   .     A
C528   C532    1.411   .     A
C529   C535    1.400   .     A
C529   C531    1.411   .     A
C530   C536    1.400   .     A
C530   C532    1.411   .     A
C531   C574    1.391   .     S
C532   C573    1.391   1_455 S
C533   H543    1.084   .     S
C533   C578    1.389   .     S
C534   H544    1.084   .     S
C534   C577    1.389   1_455 S
C535   H545    1.084   .     S
C535   C576    1.389   .     S
C536   H546    1.084   .     S
C536   C575    1.389   1_455 S
C537   C706    1.165   1_545 S
C538   C621    1.165   .     S
O547   C551    1.262   .     A
O547   Zn559   1.954   .     S
O548   C552    1.262   .     A
O548   Zn560   1.954   .     S
O549   Zn559   1.954   .     S
O549   C552    1.262   .     A
O550   Zn560   1.954   .     S
O550   C551    1.262   .     A
C551   C579    1.365   .     S
C552   C580    1.365   .     S
O553   C557    1.274   .     A
O553   Zn559   2.018   .     S
O554   C558    1.274   .     A
O554   Zn560   2.018   .     S
O555   C558    1.274   .     A
O555   Zn559   2.018   .     S
O556   C557    1.274   .     A
O556   Zn560   2.018   .     S
C557   C568    1.436   .     S
C558   C567    1.436   .     S
Zn559  N562    1.974   .     S
Zn560  N561    1.974   .     S
N562   N57     1.194   1_556 S
C563   C571    1.384   .     A
C563   H581    1.085   .     S
C563   C567    1.398   .     A
C564   C572    1.384   .     A
C564   C568    1.398   .     A
C564   H582    1.085   .     S
C565   C569    1.384   .     A
C565   H583    1.085   .     S
C565   C567    1.398   .     A
C566   C568    1.398   .     A
C566   H584    1.085   .     S
C566   C570    1.384   .     A
C569   C573    1.411   .     A
C569   C575    1.400   .     A
C570   C576    1.400   .     A
C570   C574    1.411   .     A
C571   C577    1.400   .     A
C571   C573    1.411   .     A
C572   C578    1.400   .     A
C572   C574    1.411   .     A
C573   C532    1.391   1_655 S
C575   H585    1.084   .     S
C575   C536    1.389   1_655 S
C576   H586    1.084   .     S
C577   H587    1.084   .     S
C577   C534    1.389   1_655 S
C578   H588    1.084   .     S
C579   C748    1.165   1_545 S
C580   C663    1.165   .     S
O589   C593    1.262   .     A
O589   Zn601   1.954   .     S
O590   C594    1.262   .     A
O590   Zn602   1.954   .     S
O591   Zn601   1.954   .     S
O591   C594    1.262   .     A
O592   Zn602   1.954   .     S
O592   C593    1.262   .     A
C593   C621    1.365   .     S
C594   C622    1.365   .     S
O595   C599    1.274   .     A
O595   Zn601   2.018   .     S
O596   C600    1.274   .     A
O596   Zn602   2.018   .     S
O597   C600    1.274   .     A
O597   Zn601   2.018   .     S
O598   C599    1.274   .     A
O598   Zn602   2.018   .     S
C599   C610    1.436   .     S
C600   C609    1.436   .     S
Zn601  N604    1.974   .     S
Zn602  N603    1.974   .     S
N604   N99     1.194   1_556 S
C605   C613    1.384   .     A
C605   H623    1.085   .     S
C605   C609    1.398   .     A
C606   C614    1.384   .     A
C606   C610    1.398   .     A
C606   H624    1.085   .     S
C607   C611    1.384   .     A
C607   H625    1.085   .     S
C607   C609    1.398   .     A
C608   C610    1.398   .     A
C608   H626    1.085   .     S
C608   C612    1.384   .     A
C611   C615    1.411   .     A
C611   C617    1.400   .     A
C612   C618    1.400   .     A
C612   C616    1.411   .     A
C613   C619    1.400   .     A
C613   C615    1.411   .     A
C614   C620    1.400   .     A
C614   C616    1.411   .     A
C615   C658    1.391   .     S
C616   C657    1.391   1_455 S
C617   H627    1.084   .     S
C617   C662    1.389   .     S
C618   H628    1.084   .     S
C618   C661    1.389   1_455 S
C619   H629    1.084   .     S
C619   C660    1.389   .     S
C620   H630    1.084   .     S
C620   C659    1.389   1_455 S
C622   C705    1.165   .     S
O631   C635    1.262   .     A
O631   Zn643   1.954   .     S
O632   C636    1.262   .     A
O632   Zn644   1.954   .     S
O633   Zn643   1.954   .     S
O633   C636    1.262   .     A
O634   Zn644   1.954   .     S
O634   C635    1.262   .     A
C635   C663    1.365   .     S
C636   C664    1.365   .     S
O637   C641    1.274   .     A
O637   Zn643   2.018   .     S
O638   C642    1.274   .     A
O638   Zn644   2.018   .     S
O639   C642    1.274   .     A
O639   Zn643   2.018   .     S
O640   C641    1.274   .     A
O640   Zn644   2.018   .     S
C641   C652    1.436   .     S
C642   C651    1.436   .     S
Zn643  N646    1.974   .     S
Zn644  N645    1.974   .     S
N646   N141    1.194   1_556 S
C647   C655    1.384   .     A
C647   H665    1.085   .     S
C647   C651    1.398   .     A
C648   C656    1.384   .     A
C648   C652    1.398   .     A
C648   H666    1.085   .     S
C649   C653    1.384   .     A
C649   H667    1.085   .     S
C649   C651    1.398   .     A
C650   C652    1.398   .     A
C650   H668    1.085   .     S
C650   C654    1.384   .     A
C653   C657    1.411   .     A
C653   C659    1.400   .     A
C654   C660    1.400   .     A
C654   C658    1.411   .     A
C655   C661    1.400   .     A
C655   C657    1.411   .     A
C656   C662    1.400   .     A
C656   C658    1.411   .     A
C657   C616    1.391   1_655 S
C659   H669    1.084   .     S
C659   C620    1.389   1_655 S
C660   H670    1.084   .     S
C661   H671    1.084   .     S
C661   C618    1.389   1_655 S
C662   H672    1.084   .     S
C664   C747    1.165   .     S
O673   C677    1.262   .     A
O673   Zn685   1.954   .     S
O674   C678    1.262   .     A
O674   Zn686   1.954   .     S
O675   Zn685   1.954   .     S
O675   C678    1.262   .     A
O676   Zn686   1.954   .     S
O676   C677    1.262   .     A
C677   C705    1.365   .     S
C678   C706    1.365   .     S
O679   C683    1.274   .     A
O679   Zn685   2.018   .     S
O680   C684    1.274   .     A
O680   Zn686   2.018   .     S
O681   C684    1.274   .     A
O681   Zn685   2.018   .     S
O682   C683    1.274   .     A
O682   Zn686   2.018   .     S
C683   C694    1.436   .     S
C684   C693    1.436   .     S
Zn685  N688    1.974   .     S
Zn686  N687    1.974   .     S
N688   N183    1.194   1_556 S
C689   C697    1.384   .     A
C689   H707    1.085   .     S
C689   C693    1.398   .     A
C690   C698    1.384   .     A
C690   C694    1.398   .     A
C690   H708    1.085   .     S
C691   C695    1.384   .     A
C691   H709    1.085   .     S
C691   C693    1.398   .     A
C692   C694    1.398   .     A
C692   H710    1.085   .     S
C692   C696    1.384   .     A
C695   C699    1.411   .     A
C695   C701    1.400   .     A
C696   C702    1.400   .     A
C696   C700    1.411   .     A
C697   C703    1.400   .     A
C697   C699    1.411   .     A
C698   C704    1.400   .     A
C698   C700    1.411   .     A
C699   C742    1.391   .     S
C700   C741    1.391   1_455 S
C701   H711    1.084   .     S
C701   C746    1.389   .     S
C702   H712    1.084   .     S
C702   C745    1.389   1_455 S
C703   H713    1.084   .     S
C703   C744    1.389   .     S
C704   H714    1.084   .     S
C704   C743    1.389   1_455 S
C706   C537    1.165   1_565 S
O715   C719    1.262   .     A
O715   Zn727   1.954   .     S
O716   C720    1.262   .     A
O716   Zn728   1.954   .     S
O717   Zn727   1.954   .     S
O717   C720    1.262   .     A
O718   Zn728   1.954   .     S
O718   C719    1.262   .     A
C719   C747    1.365   .     S
C720   C748    1.365   .     S
O721   C725    1.274   .     A
O721   Zn727   2.018   .     S
O722   C726    1.274   .     A
O722   Zn728   2.018   .     S
O723   C726    1.274   .     A
O723   Zn727   2.018   .     S
O724   C725    1.274   .     A
O724   Zn728   2.018   .     S
C725   C736    1.436   .     S
C726   C735    1.436   .     S
Zn727  N730    1.974   .     S
Zn728  N729    1.974   .     S
N730   N225    1.194   1_556 S
C731   C739    1.384   .     A
C731   H749    1.085   .     S
C731   C735    1.398   .     A
C732   C740    1.384   .     A
C732   C736    1.398   .     A
C732   H750    1.085   .     S
C733   C737    1.384   .     A
C733   H751    1.085   .     S
C733   C735    1.398   .     A
C734   C736    1.398   .     A
C734   H752    1.085   .     S
C734   C738    1.384   .     A
C737   C741    1.411   .     A
C737   C743    1.400   .     A
C738   C744    1.400   .     A
C738   C742    1.411   .     A
C739   C745    1.400   .     A
C739   C741    1.411   .     A
C740   C746    1.400   .     A
C740   C742    1.411   .     A
C741   C700    1.391   1_655 S
C743   H753    1.084   .     S
C743   C704    1.389   1_655 S
C744   H754    1.084   .     S
C745   H755    1.084   .     S
C745   C702    1.389   1_655 S
C746   H756    1.084   .     S
C748   C579    1.165   1_565 S
