data_str_m3_o1_o1_pcu_sym.87
_audit_creation_date              2020-01-03
_audit_creation_method            'Materials Studio'
_symmetry_space_group_name_H-M    'P1'
_symmetry_Int_Tables_number       1
_symmetry_cell_setting            triclinic
loop_
_symmetry_equiv_pos_as_xyz
  x,y,z
_cell_length_a                    31.3965
_cell_length_b                    28.9761
_cell_length_c                    29.5469
_cell_angle_alpha                 90.0001
_cell_angle_beta                  90.0009
_cell_angle_gamma                 90.0000
loop_
_atom_site_label
_atom_site_type_symbol
_atom_site_fract_x
_atom_site_fract_y
_atom_site_fract_z
_atom_site_U_iso_or_equiv
_atom_site_adp_type
_atom_site_occupancy
C1     C     0.06337   0.19395   0.16685   0.00000  Uiso   1.00
C2     C     0.43663   0.30605   0.16685   0.00000  Uiso   1.00
C3     C     0.43663   0.19395   0.16649   0.00000  Uiso   1.00
C4     C     0.06337   0.30605   0.16649   0.00000  Uiso   1.00
C5     C     0.31337   0.44395   0.16684   0.00000  Uiso   1.00
C6     C     0.18663   0.05605   0.16684   0.00000  Uiso   1.00
C7     C     0.18663   0.44395   0.16649   0.00000  Uiso   1.00
C8     C     0.31337   0.05605   0.16649   0.00000  Uiso   1.00
C9     C     0.49984   0.29094   0.02428   0.00000  Uiso   1.00
C10    C     0.49983   0.20906   0.30906   0.00000  Uiso   1.00
C11    C     0.00017   0.20906   0.02428   0.00000  Uiso   1.00
C12    C     0.00017   0.29094   0.30905   0.00000  Uiso   1.00
C13    C     0.24985   0.04094   0.02428   0.00000  Uiso   1.00
C14    C     0.24984   0.45906   0.30905   0.00000  Uiso   1.00
C15    C     0.25015   0.45906   0.02428   0.00000  Uiso   1.00
C16    C     0.25016   0.04094   0.30905   0.00000  Uiso   1.00
C17    C     0.38562   0.14585   0.12416   0.00000  Uiso   1.00
C18    C     0.11562   0.35351   0.20656   0.00000  Uiso   1.00
C19    C     0.11440   0.35413   0.12417   0.00000  Uiso   1.00
C20    C     0.38436   0.14652   0.20656   0.00000  Uiso   1.00
C21    C     0.11438   0.14585   0.20917   0.00000  Uiso   1.00
C22    C     0.38438   0.35350   0.12677   0.00000  Uiso   1.00
C23    C     0.38560   0.35413   0.20917   0.00000  Uiso   1.00
C24    C     0.11564   0.14652   0.12678   0.00000  Uiso   1.00
C25    C     0.13559   0.39589   0.12417   0.00000  Uiso   1.00
C26    C     0.36559   0.10354   0.20657   0.00000  Uiso   1.00
C27    C     0.36443   0.10409   0.12418   0.00000  Uiso   1.00
C28    C     0.13439   0.39648   0.20657   0.00000  Uiso   1.00
C29    C     0.36441   0.39589   0.20916   0.00000  Uiso   1.00
C30    C     0.13441   0.10354   0.12676   0.00000  Uiso   1.00
C31    C     0.13558   0.10409   0.20916   0.00000  Uiso   1.00
C32    C     0.36561   0.39648   0.12677   0.00000  Uiso   1.00
C33    C     0.10052   0.33556   0.16565   0.00000  Uiso   1.00
C34    C     0.39948   0.16444   0.16564   0.00000  Uiso   1.00
C35    C     0.39948   0.33556   0.16768   0.00000  Uiso   1.00
C36    C     0.10052   0.16444   0.16769   0.00000  Uiso   1.00
C37    C     0.35052   0.08555   0.16566   0.00000  Uiso   1.00
C38    C     0.14948   0.41444   0.16565   0.00000  Uiso   1.00
C39    C     0.14948   0.08556   0.16767   0.00000  Uiso   1.00
C40    C     0.35052   0.41444   0.16768   0.00000  Uiso   1.00
N41    N    -0.00000   0.25000   0.28573   0.00000  Uiso   1.00
N42    N    -0.00000   0.25000   0.04760   0.00000  Uiso   1.00
N43    N     0.25000  -0.00000   0.28573   0.00000  Uiso   1.00
N44    N     0.25000  -0.00000   0.04760   0.00000  Uiso   1.00
O45    O     0.04580   0.20419   0.20487   0.00000  Uiso   1.00
O46    O     0.45419   0.29581   0.12846   0.00000  Uiso   1.00
O47    O     0.45419   0.29581   0.20487   0.00000  Uiso   1.00
O48    O     0.04580   0.20419   0.12846   0.00000  Uiso   1.00
O49    O     0.45419   0.20419   0.12846   0.00000  Uiso   1.00
O50    O     0.04580   0.29581   0.20487   0.00000  Uiso   1.00
O51    O     0.04580   0.29581   0.12846   0.00000  Uiso   1.00
O52    O     0.45419   0.20419   0.20487   0.00000  Uiso   1.00
O53    O     0.29580   0.45419   0.20487   0.00000  Uiso   1.00
O54    O     0.20419   0.04581   0.12846   0.00000  Uiso   1.00
O55    O     0.20419   0.04581   0.20487   0.00000  Uiso   1.00
O56    O     0.29580   0.45419   0.12846   0.00000  Uiso   1.00
O57    O     0.20419   0.45419   0.12846   0.00000  Uiso   1.00
O58    O     0.29580   0.04581   0.20487   0.00000  Uiso   1.00
O59    O     0.29580   0.04581   0.12846   0.00000  Uiso   1.00
O60    O     0.20419   0.45419   0.20487   0.00000  Uiso   1.00
Zn61   Zn   -0.00000   0.25000   0.21771   0.00000  Uiso   1.00
Zn62   Zn   -0.00000   0.25000   0.11563   0.00000  Uiso   1.00
Zn63   Zn    0.25000  -0.00000   0.21771   0.00000  Uiso   1.00
Zn64   Zn    0.25000  -0.00000   0.11563   0.00000  Uiso   1.00
N65    N     0.00245   0.33282   0.04940   0.00000  Uiso   1.00
H66    H     0.03229   0.34726   0.05088   0.00000  Uiso   1.00
C67    C     0.46854   0.36637   0.04526   0.00000  Uiso   1.00
H68    H     0.45624   0.37447   0.07942   0.00000  Uiso   1.00
H69    H     0.44233   0.35381   0.02333   0.00000  Uiso   1.00
H70    H     0.48079   0.39926   0.03132   0.00000  Uiso   1.00
N71    N     0.00242   0.16718   0.28394   0.00000  Uiso   1.00
H72    H     0.03225   0.15271   0.28247   0.00000  Uiso   1.00
C73    C     0.46849   0.13365   0.28809   0.00000  Uiso   1.00
H74    H     0.48070   0.10077   0.30208   0.00000  Uiso   1.00
H75    H     0.45621   0.12553   0.25393   0.00000  Uiso   1.00
H76    H     0.44227   0.14627   0.30999   0.00000  Uiso   1.00
N77    N     0.49758   0.16718   0.04940   0.00000  Uiso   1.00
H78    H     0.46775   0.15271   0.05087   0.00000  Uiso   1.00
C79    C     0.03152   0.13365   0.04524   0.00000  Uiso   1.00
H80    H     0.04379   0.12552   0.07940   0.00000  Uiso   1.00
H81    H     0.05774   0.14627   0.02335   0.00000  Uiso   1.00
H82    H     0.01930   0.10077   0.03124   0.00000  Uiso   1.00
N83    N     0.49755   0.33282   0.28393   0.00000  Uiso   1.00
H84    H     0.46771   0.34725   0.28243   0.00000  Uiso   1.00
C85    C     0.03146   0.36638   0.28809   0.00000  Uiso   1.00
H86    H     0.01921   0.39926   0.30205   0.00000  Uiso   1.00
H87    H     0.04375   0.37450   0.25393   0.00000  Uiso   1.00
H88    H     0.05768   0.35381   0.31000   0.00000  Uiso   1.00
N89    N     0.25252   0.08281   0.04940   0.00000  Uiso   1.00
H90    H     0.28238   0.09721   0.05087   0.00000  Uiso   1.00
C91    C     0.21864   0.11642   0.04530   0.00000  Uiso   1.00
H92    H     0.23094   0.14931   0.03141   0.00000  Uiso   1.00
H93    H     0.20636   0.12448   0.07948   0.00000  Uiso   1.00
H94    H     0.19242   0.10391   0.02336   0.00000  Uiso   1.00
N95    N     0.25250   0.41718   0.28393   0.00000  Uiso   1.00
H96    H     0.28234   0.40276   0.28248   0.00000  Uiso   1.00
C97    C     0.21860   0.38361   0.28804   0.00000  Uiso   1.00
H98    H     0.23086   0.35072   0.30198   0.00000  Uiso   1.00
H99    H     0.20633   0.37551   0.25386   0.00000  Uiso   1.00
H100   H     0.19236   0.39615   0.30994   0.00000  Uiso   1.00
N101   N     0.24749   0.41718   0.04940   0.00000  Uiso   1.00
H102   H     0.21765   0.40275   0.05080   0.00000  Uiso   1.00
C103   C     0.28140   0.38362   0.04530   0.00000  Uiso   1.00
H104   H     0.26914   0.35072   0.03137   0.00000  Uiso   1.00
H105   H     0.29367   0.37554   0.07947   0.00000  Uiso   1.00
H106   H     0.30762   0.39616   0.02338   0.00000  Uiso   1.00
N107   N     0.24749   0.08281   0.28393   0.00000  Uiso   1.00
H108   H     0.21763   0.09721   0.28245   0.00000  Uiso   1.00
C109   C     0.28136   0.11642   0.28804   0.00000  Uiso   1.00
H110   H     0.26907   0.14931   0.30193   0.00000  Uiso   1.00
H111   H     0.29365   0.12448   0.25386   0.00000  Uiso   1.00
H112   H     0.30759   0.10391   0.30997   0.00000  Uiso   1.00
Cl113  Cl    0.38800   0.17733   0.07278   0.00000  Uiso   1.00
Cl114  Cl    0.11924   0.31905   0.25580   0.00000  Uiso   1.00
Cl115  Cl    0.11204   0.32262   0.07280   0.00000  Uiso   1.00
Cl116  Cl    0.38072   0.18100   0.25577   0.00000  Uiso   1.00
Cl117  Cl    0.11200   0.17733   0.26056   0.00000  Uiso   1.00
Cl118  Cl    0.38076   0.31905   0.07754   0.00000  Uiso   1.00
Cl119  Cl    0.38796   0.32262   0.26054   0.00000  Uiso   1.00
Cl120  Cl    0.11928   0.18101   0.07757   0.00000  Uiso   1.00
Cl121  Cl    0.13793   0.42741   0.07281   0.00000  Uiso   1.00
Cl122  Cl    0.36918   0.06912   0.25584   0.00000  Uiso   1.00
Cl123  Cl    0.36210   0.07254   0.07283   0.00000  Uiso   1.00
Cl124  Cl    0.13079   0.43093   0.25581   0.00000  Uiso   1.00
Cl125  Cl    0.36207   0.42742   0.26052   0.00000  Uiso   1.00
Cl126  Cl    0.13082   0.06913   0.07750   0.00000  Uiso   1.00
Cl127  Cl    0.13790   0.07254   0.26050   0.00000  Uiso   1.00
Cl128  Cl    0.36921   0.43092   0.07752   0.00000  Uiso   1.00
C129   C     0.56337   0.19395   0.16685   0.00000  Uiso   1.00
C130   C     0.93663   0.30605   0.16685   0.00000  Uiso   1.00
C131   C     0.93663   0.19395   0.16649   0.00000  Uiso   1.00
C132   C     0.56337   0.30605   0.16649   0.00000  Uiso   1.00
C133   C     0.81337   0.44395   0.16684   0.00000  Uiso   1.00
C134   C     0.68663   0.05605   0.16684   0.00000  Uiso   1.00
C135   C     0.68663   0.44395   0.16649   0.00000  Uiso   1.00
C136   C     0.81337   0.05605   0.16649   0.00000  Uiso   1.00
C137   C     0.99984   0.29094   0.02428   0.00000  Uiso   1.00
C138   C     0.99983   0.20906   0.30906   0.00000  Uiso   1.00
C139   C     0.50017   0.20906   0.02428   0.00000  Uiso   1.00
C140   C     0.50017   0.29094   0.30905   0.00000  Uiso   1.00
C141   C     0.74985   0.04094   0.02428   0.00000  Uiso   1.00
C142   C     0.74984   0.45906   0.30905   0.00000  Uiso   1.00
C143   C     0.75015   0.45906   0.02428   0.00000  Uiso   1.00
C144   C     0.75016   0.04094   0.30905   0.00000  Uiso   1.00
C145   C     0.88562   0.14585   0.12416   0.00000  Uiso   1.00
C146   C     0.61562   0.35351   0.20656   0.00000  Uiso   1.00
C147   C     0.61440   0.35413   0.12417   0.00000  Uiso   1.00
C148   C     0.88436   0.14652   0.20656   0.00000  Uiso   1.00
C149   C     0.61438   0.14585   0.20917   0.00000  Uiso   1.00
C150   C     0.88438   0.35350   0.12677   0.00000  Uiso   1.00
C151   C     0.88560   0.35413   0.20917   0.00000  Uiso   1.00
C152   C     0.61564   0.14652   0.12678   0.00000  Uiso   1.00
C153   C     0.63559   0.39589   0.12417   0.00000  Uiso   1.00
C154   C     0.86559   0.10354   0.20657   0.00000  Uiso   1.00
C155   C     0.86443   0.10409   0.12418   0.00000  Uiso   1.00
C156   C     0.63439   0.39648   0.20657   0.00000  Uiso   1.00
C157   C     0.86441   0.39589   0.20916   0.00000  Uiso   1.00
C158   C     0.63441   0.10354   0.12676   0.00000  Uiso   1.00
C159   C     0.63558   0.10409   0.20916   0.00000  Uiso   1.00
C160   C     0.86561   0.39648   0.12677   0.00000  Uiso   1.00
C161   C     0.60052   0.33556   0.16565   0.00000  Uiso   1.00
C162   C     0.89948   0.16444   0.16564   0.00000  Uiso   1.00
C163   C     0.89948   0.33556   0.16768   0.00000  Uiso   1.00
C164   C     0.60052   0.16444   0.16769   0.00000  Uiso   1.00
C165   C     0.85052   0.08555   0.16566   0.00000  Uiso   1.00
C166   C     0.64948   0.41444   0.16565   0.00000  Uiso   1.00
C167   C     0.64948   0.08556   0.16767   0.00000  Uiso   1.00
C168   C     0.85052   0.41444   0.16768   0.00000  Uiso   1.00
N169   N     0.50000   0.25000   0.28573   0.00000  Uiso   1.00
N170   N     0.50000   0.25000   0.04760   0.00000  Uiso   1.00
N171   N     0.75000  -0.00000   0.28573   0.00000  Uiso   1.00
N172   N     0.75000  -0.00000   0.04760   0.00000  Uiso   1.00
O173   O     0.54580   0.20419   0.20487   0.00000  Uiso   1.00
O174   O     0.95419   0.29581   0.12846   0.00000  Uiso   1.00
O175   O     0.95419   0.29581   0.20487   0.00000  Uiso   1.00
O176   O     0.54580   0.20419   0.12846   0.00000  Uiso   1.00
O177   O     0.95419   0.20419   0.12846   0.00000  Uiso   1.00
O178   O     0.54580   0.29581   0.20487   0.00000  Uiso   1.00
O179   O     0.54580   0.29581   0.12846   0.00000  Uiso   1.00
O180   O     0.95419   0.20419   0.20487   0.00000  Uiso   1.00
O181   O     0.79580   0.45419   0.20487   0.00000  Uiso   1.00
O182   O     0.70419   0.04581   0.12846   0.00000  Uiso   1.00
O183   O     0.70419   0.04581   0.20487   0.00000  Uiso   1.00
O184   O     0.79580   0.45419   0.12846   0.00000  Uiso   1.00
O185   O     0.70419   0.45419   0.12846   0.00000  Uiso   1.00
O186   O     0.79580   0.04581   0.20487   0.00000  Uiso   1.00
O187   O     0.79580   0.04581   0.12846   0.00000  Uiso   1.00
O188   O     0.70419   0.45419   0.20487   0.00000  Uiso   1.00
Zn189  Zn    0.50000   0.25000   0.21771   0.00000  Uiso   1.00
Zn190  Zn    0.50000   0.25000   0.11563   0.00000  Uiso   1.00
Zn191  Zn    0.75000  -0.00000   0.21771   0.00000  Uiso   1.00
Zn192  Zn    0.75000  -0.00000   0.11563   0.00000  Uiso   1.00
N193   N     0.50245   0.33282   0.04940   0.00000  Uiso   1.00
H194   H     0.53229   0.34726   0.05088   0.00000  Uiso   1.00
C195   C     0.96854   0.36637   0.04526   0.00000  Uiso   1.00
H196   H     0.95624   0.37447   0.07942   0.00000  Uiso   1.00
H197   H     0.94233   0.35381   0.02333   0.00000  Uiso   1.00
H198   H     0.98079   0.39926   0.03132   0.00000  Uiso   1.00
N199   N     0.50242   0.16718   0.28394   0.00000  Uiso   1.00
H200   H     0.53225   0.15271   0.28247   0.00000  Uiso   1.00
C201   C     0.96849   0.13365   0.28809   0.00000  Uiso   1.00
H202   H     0.98070   0.10077   0.30208   0.00000  Uiso   1.00
H203   H     0.95621   0.12553   0.25393   0.00000  Uiso   1.00
H204   H     0.94227   0.14627   0.30999   0.00000  Uiso   1.00
N205   N     0.99758   0.16718   0.04940   0.00000  Uiso   1.00
H206   H     0.96775   0.15271   0.05087   0.00000  Uiso   1.00
C207   C     0.53152   0.13365   0.04524   0.00000  Uiso   1.00
H208   H     0.54379   0.12552   0.07940   0.00000  Uiso   1.00
H209   H     0.55774   0.14627   0.02335   0.00000  Uiso   1.00
H210   H     0.51930   0.10077   0.03124   0.00000  Uiso   1.00
N211   N     0.99755   0.33282   0.28393   0.00000  Uiso   1.00
H212   H     0.96771   0.34725   0.28243   0.00000  Uiso   1.00
C213   C     0.53146   0.36638   0.28809   0.00000  Uiso   1.00
H214   H     0.51921   0.39926   0.30205   0.00000  Uiso   1.00
H215   H     0.54375   0.37450   0.25393   0.00000  Uiso   1.00
H216   H     0.55768   0.35381   0.31000   0.00000  Uiso   1.00
N217   N     0.75252   0.08281   0.04940   0.00000  Uiso   1.00
H218   H     0.78238   0.09721   0.05087   0.00000  Uiso   1.00
C219   C     0.71864   0.11642   0.04530   0.00000  Uiso   1.00
H220   H     0.73094   0.14931   0.03141   0.00000  Uiso   1.00
H221   H     0.70636   0.12448   0.07948   0.00000  Uiso   1.00
H222   H     0.69242   0.10391   0.02336   0.00000  Uiso   1.00
N223   N     0.75250   0.41718   0.28393   0.00000  Uiso   1.00
H224   H     0.78234   0.40276   0.28248   0.00000  Uiso   1.00
C225   C     0.71860   0.38361   0.28804   0.00000  Uiso   1.00
H226   H     0.73086   0.35072   0.30198   0.00000  Uiso   1.00
H227   H     0.70633   0.37551   0.25386   0.00000  Uiso   1.00
H228   H     0.69236   0.39615   0.30994   0.00000  Uiso   1.00
N229   N     0.74749   0.41718   0.04940   0.00000  Uiso   1.00
H230   H     0.71765   0.40275   0.05080   0.00000  Uiso   1.00
C231   C     0.78140   0.38362   0.04530   0.00000  Uiso   1.00
H232   H     0.76914   0.35072   0.03137   0.00000  Uiso   1.00
H233   H     0.79367   0.37554   0.07947   0.00000  Uiso   1.00
H234   H     0.80762   0.39616   0.02338   0.00000  Uiso   1.00
N235   N     0.74749   0.08281   0.28393   0.00000  Uiso   1.00
H236   H     0.71763   0.09721   0.28245   0.00000  Uiso   1.00
C237   C     0.78136   0.11642   0.28804   0.00000  Uiso   1.00
H238   H     0.76907   0.14931   0.30193   0.00000  Uiso   1.00
H239   H     0.79365   0.12448   0.25386   0.00000  Uiso   1.00
H240   H     0.80759   0.10391   0.30997   0.00000  Uiso   1.00
Cl241  Cl    0.88800   0.17733   0.07278   0.00000  Uiso   1.00
Cl242  Cl    0.61924   0.31905   0.25580   0.00000  Uiso   1.00
Cl243  Cl    0.61204   0.32262   0.07280   0.00000  Uiso   1.00
Cl244  Cl    0.88072   0.18100   0.25577   0.00000  Uiso   1.00
Cl245  Cl    0.61200   0.17733   0.26056   0.00000  Uiso   1.00
Cl246  Cl    0.88076   0.31905   0.07754   0.00000  Uiso   1.00
Cl247  Cl    0.88796   0.32262   0.26054   0.00000  Uiso   1.00
Cl248  Cl    0.61928   0.18101   0.07757   0.00000  Uiso   1.00
Cl249  Cl    0.63793   0.42741   0.07281   0.00000  Uiso   1.00
Cl250  Cl    0.86918   0.06912   0.25584   0.00000  Uiso   1.00
Cl251  Cl    0.86210   0.07254   0.07283   0.00000  Uiso   1.00
Cl252  Cl    0.63079   0.43093   0.25581   0.00000  Uiso   1.00
Cl253  Cl    0.86207   0.42742   0.26052   0.00000  Uiso   1.00
Cl254  Cl    0.63082   0.06913   0.07750   0.00000  Uiso   1.00
Cl255  Cl    0.63790   0.07254   0.26050   0.00000  Uiso   1.00
Cl256  Cl    0.86921   0.43092   0.07752   0.00000  Uiso   1.00
C257   C     0.06337   0.69395   0.16685   0.00000  Uiso   1.00
C258   C     0.43663   0.80605   0.16685   0.00000  Uiso   1.00
C259   C     0.43663   0.69395   0.16649   0.00000  Uiso   1.00
C260   C     0.06337   0.80605   0.16649   0.00000  Uiso   1.00
C261   C     0.31337   0.94395   0.16684   0.00000  Uiso   1.00
C262   C     0.18663   0.55605   0.16684   0.00000  Uiso   1.00
C263   C     0.18663   0.94395   0.16649   0.00000  Uiso   1.00
C264   C     0.31337   0.55605   0.16649   0.00000  Uiso   1.00
C265   C     0.49984   0.79094   0.02428   0.00000  Uiso   1.00
C266   C     0.49983   0.70906   0.30906   0.00000  Uiso   1.00
C267   C     0.00017   0.70906   0.02428   0.00000  Uiso   1.00
C268   C     0.00017   0.79094   0.30905   0.00000  Uiso   1.00
C269   C     0.24985   0.54094   0.02428   0.00000  Uiso   1.00
C270   C     0.24984   0.95906   0.30905   0.00000  Uiso   1.00
C271   C     0.25015   0.95906   0.02428   0.00000  Uiso   1.00
C272   C     0.25016   0.54094   0.30905   0.00000  Uiso   1.00
C273   C     0.38562   0.64585   0.12416   0.00000  Uiso   1.00
C274   C     0.11562   0.85351   0.20656   0.00000  Uiso   1.00
C275   C     0.11440   0.85413   0.12417   0.00000  Uiso   1.00
C276   C     0.38436   0.64652   0.20656   0.00000  Uiso   1.00
C277   C     0.11438   0.64585   0.20917   0.00000  Uiso   1.00
C278   C     0.38438   0.85350   0.12677   0.00000  Uiso   1.00
C279   C     0.38560   0.85413   0.20917   0.00000  Uiso   1.00
C280   C     0.11564   0.64652   0.12678   0.00000  Uiso   1.00
C281   C     0.13559   0.89589   0.12417   0.00000  Uiso   1.00
C282   C     0.36559   0.60354   0.20657   0.00000  Uiso   1.00
C283   C     0.36443   0.60409   0.12418   0.00000  Uiso   1.00
C284   C     0.13439   0.89648   0.20657   0.00000  Uiso   1.00
C285   C     0.36441   0.89589   0.20916   0.00000  Uiso   1.00
C286   C     0.13441   0.60354   0.12676   0.00000  Uiso   1.00
C287   C     0.13558   0.60409   0.20916   0.00000  Uiso   1.00
C288   C     0.36561   0.89648   0.12677   0.00000  Uiso   1.00
C289   C     0.10052   0.83556   0.16565   0.00000  Uiso   1.00
C290   C     0.39948   0.66444   0.16564   0.00000  Uiso   1.00
C291   C     0.39948   0.83556   0.16768   0.00000  Uiso   1.00
C292   C     0.10052   0.66444   0.16769   0.00000  Uiso   1.00
C293   C     0.35052   0.58555   0.16566   0.00000  Uiso   1.00
C294   C     0.14948   0.91444   0.16565   0.00000  Uiso   1.00
C295   C     0.14948   0.58556   0.16767   0.00000  Uiso   1.00
C296   C     0.35052   0.91444   0.16768   0.00000  Uiso   1.00
N297   N    -0.00000   0.75000   0.28573   0.00000  Uiso   1.00
N298   N    -0.00000   0.75000   0.04760   0.00000  Uiso   1.00
N299   N     0.25000   0.50000   0.28573   0.00000  Uiso   1.00
N300   N     0.25000   0.50000   0.04760   0.00000  Uiso   1.00
O301   O     0.04580   0.70419   0.20487   0.00000  Uiso   1.00
O302   O     0.45419   0.79581   0.12846   0.00000  Uiso   1.00
O303   O     0.45419   0.79581   0.20487   0.00000  Uiso   1.00
O304   O     0.04580   0.70419   0.12846   0.00000  Uiso   1.00
O305   O     0.45419   0.70419   0.12846   0.00000  Uiso   1.00
O306   O     0.04580   0.79581   0.20487   0.00000  Uiso   1.00
O307   O     0.04580   0.79581   0.12846   0.00000  Uiso   1.00
O308   O     0.45419   0.70419   0.20487   0.00000  Uiso   1.00
O309   O     0.29580   0.95419   0.20487   0.00000  Uiso   1.00
O310   O     0.20419   0.54581   0.12846   0.00000  Uiso   1.00
O311   O     0.20419   0.54581   0.20487   0.00000  Uiso   1.00
O312   O     0.29580   0.95419   0.12846   0.00000  Uiso   1.00
O313   O     0.20419   0.95419   0.12846   0.00000  Uiso   1.00
O314   O     0.29580   0.54581   0.20487   0.00000  Uiso   1.00
O315   O     0.29580   0.54581   0.12846   0.00000  Uiso   1.00
O316   O     0.20419   0.95419   0.20487   0.00000  Uiso   1.00
Zn317  Zn   -0.00000   0.75000   0.21771   0.00000  Uiso   1.00
Zn318  Zn   -0.00000   0.75000   0.11563   0.00000  Uiso   1.00
Zn319  Zn    0.25000   0.50000   0.21771   0.00000  Uiso   1.00
Zn320  Zn    0.25000   0.50000   0.11563   0.00000  Uiso   1.00
N321   N     0.00245   0.83282   0.04940   0.00000  Uiso   1.00
H322   H     0.03229   0.84726   0.05088   0.00000  Uiso   1.00
C323   C     0.46854   0.86637   0.04526   0.00000  Uiso   1.00
H324   H     0.45624   0.87447   0.07942   0.00000  Uiso   1.00
H325   H     0.44233   0.85381   0.02333   0.00000  Uiso   1.00
H326   H     0.48079   0.89926   0.03132   0.00000  Uiso   1.00
N327   N     0.00242   0.66718   0.28394   0.00000  Uiso   1.00
H328   H     0.03225   0.65271   0.28247   0.00000  Uiso   1.00
C329   C     0.46849   0.63365   0.28809   0.00000  Uiso   1.00
H330   H     0.48070   0.60077   0.30208   0.00000  Uiso   1.00
H331   H     0.45621   0.62553   0.25393   0.00000  Uiso   1.00
H332   H     0.44227   0.64627   0.30999   0.00000  Uiso   1.00
N333   N     0.49758   0.66718   0.04940   0.00000  Uiso   1.00
H334   H     0.46775   0.65271   0.05087   0.00000  Uiso   1.00
C335   C     0.03152   0.63365   0.04524   0.00000  Uiso   1.00
H336   H     0.04379   0.62552   0.07940   0.00000  Uiso   1.00
H337   H     0.05774   0.64627   0.02335   0.00000  Uiso   1.00
H338   H     0.01930   0.60077   0.03124   0.00000  Uiso   1.00
N339   N     0.49755   0.83282   0.28393   0.00000  Uiso   1.00
H340   H     0.46771   0.84725   0.28243   0.00000  Uiso   1.00
C341   C     0.03146   0.86638   0.28809   0.00000  Uiso   1.00
H342   H     0.01921   0.89926   0.30205   0.00000  Uiso   1.00
H343   H     0.04375   0.87450   0.25393   0.00000  Uiso   1.00
H344   H     0.05768   0.85381   0.31000   0.00000  Uiso   1.00
N345   N     0.25252   0.58281   0.04940   0.00000  Uiso   1.00
H346   H     0.28238   0.59721   0.05087   0.00000  Uiso   1.00
C347   C     0.21864   0.61642   0.04530   0.00000  Uiso   1.00
H348   H     0.23094   0.64931   0.03141   0.00000  Uiso   1.00
H349   H     0.20636   0.62448   0.07948   0.00000  Uiso   1.00
H350   H     0.19242   0.60391   0.02336   0.00000  Uiso   1.00
N351   N     0.25250   0.91718   0.28393   0.00000  Uiso   1.00
H352   H     0.28234   0.90276   0.28248   0.00000  Uiso   1.00
C353   C     0.21860   0.88361   0.28804   0.00000  Uiso   1.00
H354   H     0.23086   0.85072   0.30198   0.00000  Uiso   1.00
H355   H     0.20633   0.87551   0.25386   0.00000  Uiso   1.00
H356   H     0.19236   0.89615   0.30994   0.00000  Uiso   1.00
N357   N     0.24749   0.91718   0.04940   0.00000  Uiso   1.00
H358   H     0.21765   0.90275   0.05080   0.00000  Uiso   1.00
C359   C     0.28140   0.88362   0.04530   0.00000  Uiso   1.00
H360   H     0.26914   0.85072   0.03137   0.00000  Uiso   1.00
H361   H     0.29367   0.87554   0.07947   0.00000  Uiso   1.00
H362   H     0.30762   0.89616   0.02338   0.00000  Uiso   1.00
N363   N     0.24749   0.58281   0.28393   0.00000  Uiso   1.00
H364   H     0.21763   0.59721   0.28245   0.00000  Uiso   1.00
C365   C     0.28136   0.61642   0.28804   0.00000  Uiso   1.00
H366   H     0.26907   0.64931   0.30193   0.00000  Uiso   1.00
H367   H     0.29365   0.62448   0.25386   0.00000  Uiso   1.00
H368   H     0.30759   0.60391   0.30997   0.00000  Uiso   1.00
Cl369  Cl    0.38800   0.67733   0.07278   0.00000  Uiso   1.00
Cl370  Cl    0.11924   0.81905   0.25580   0.00000  Uiso   1.00
Cl371  Cl    0.11204   0.82262   0.07280   0.00000  Uiso   1.00
Cl372  Cl    0.38072   0.68100   0.25577   0.00000  Uiso   1.00
Cl373  Cl    0.11200   0.67733   0.26056   0.00000  Uiso   1.00
Cl374  Cl    0.38076   0.81905   0.07754   0.00000  Uiso   1.00
Cl375  Cl    0.38796   0.82262   0.26054   0.00000  Uiso   1.00
Cl376  Cl    0.11928   0.68101   0.07757   0.00000  Uiso   1.00
Cl377  Cl    0.13793   0.92741   0.07281   0.00000  Uiso   1.00
Cl378  Cl    0.36918   0.56912   0.25584   0.00000  Uiso   1.00
Cl379  Cl    0.36210   0.57254   0.07283   0.00000  Uiso   1.00
Cl380  Cl    0.13079   0.93093   0.25581   0.00000  Uiso   1.00
Cl381  Cl    0.36207   0.92742   0.26052   0.00000  Uiso   1.00
Cl382  Cl    0.13082   0.56913   0.07750   0.00000  Uiso   1.00
Cl383  Cl    0.13790   0.57254   0.26050   0.00000  Uiso   1.00
Cl384  Cl    0.36921   0.93092   0.07752   0.00000  Uiso   1.00
C385   C     0.56337   0.69395   0.16685   0.00000  Uiso   1.00
C386   C     0.93663   0.80605   0.16685   0.00000  Uiso   1.00
C387   C     0.93663   0.69395   0.16649   0.00000  Uiso   1.00
C388   C     0.56337   0.80605   0.16649   0.00000  Uiso   1.00
C389   C     0.81337   0.94395   0.16684   0.00000  Uiso   1.00
C390   C     0.68663   0.55605   0.16684   0.00000  Uiso   1.00
C391   C     0.68663   0.94395   0.16649   0.00000  Uiso   1.00
C392   C     0.81337   0.55605   0.16649   0.00000  Uiso   1.00
C393   C     0.99984   0.79094   0.02428   0.00000  Uiso   1.00
C394   C     0.99983   0.70906   0.30906   0.00000  Uiso   1.00
C395   C     0.50017   0.70906   0.02428   0.00000  Uiso   1.00
C396   C     0.50017   0.79094   0.30905   0.00000  Uiso   1.00
C397   C     0.74985   0.54094   0.02428   0.00000  Uiso   1.00
C398   C     0.74984   0.95906   0.30905   0.00000  Uiso   1.00
C399   C     0.75015   0.95906   0.02428   0.00000  Uiso   1.00
C400   C     0.75016   0.54094   0.30905   0.00000  Uiso   1.00
C401   C     0.88562   0.64585   0.12416   0.00000  Uiso   1.00
C402   C     0.61562   0.85351   0.20656   0.00000  Uiso   1.00
C403   C     0.61440   0.85413   0.12417   0.00000  Uiso   1.00
C404   C     0.88436   0.64652   0.20656   0.00000  Uiso   1.00
C405   C     0.61438   0.64585   0.20917   0.00000  Uiso   1.00
C406   C     0.88438   0.85350   0.12677   0.00000  Uiso   1.00
C407   C     0.88560   0.85413   0.20917   0.00000  Uiso   1.00
C408   C     0.61564   0.64652   0.12678   0.00000  Uiso   1.00
C409   C     0.63559   0.89589   0.12417   0.00000  Uiso   1.00
C410   C     0.86559   0.60354   0.20657   0.00000  Uiso   1.00
C411   C     0.86443   0.60409   0.12418   0.00000  Uiso   1.00
C412   C     0.63439   0.89648   0.20657   0.00000  Uiso   1.00
C413   C     0.86441   0.89589   0.20916   0.00000  Uiso   1.00
C414   C     0.63441   0.60354   0.12676   0.00000  Uiso   1.00
C415   C     0.63558   0.60409   0.20916   0.00000  Uiso   1.00
C416   C     0.86561   0.89648   0.12677   0.00000  Uiso   1.00
C417   C     0.60052   0.83556   0.16565   0.00000  Uiso   1.00
C418   C     0.89948   0.66444   0.16564   0.00000  Uiso   1.00
C419   C     0.89948   0.83556   0.16768   0.00000  Uiso   1.00
C420   C     0.60052   0.66444   0.16769   0.00000  Uiso   1.00
C421   C     0.85052   0.58555   0.16566   0.00000  Uiso   1.00
C422   C     0.64948   0.91444   0.16565   0.00000  Uiso   1.00
C423   C     0.64948   0.58556   0.16767   0.00000  Uiso   1.00
C424   C     0.85052   0.91444   0.16768   0.00000  Uiso   1.00
N425   N     0.50000   0.75000   0.28573   0.00000  Uiso   1.00
N426   N     0.50000   0.75000   0.04760   0.00000  Uiso   1.00
N427   N     0.75000   0.50000   0.28573   0.00000  Uiso   1.00
N428   N     0.75000   0.50000   0.04760   0.00000  Uiso   1.00
O429   O     0.54580   0.70419   0.20487   0.00000  Uiso   1.00
O430   O     0.95419   0.79581   0.12846   0.00000  Uiso   1.00
O431   O     0.95419   0.79581   0.20487   0.00000  Uiso   1.00
O432   O     0.54580   0.70419   0.12846   0.00000  Uiso   1.00
O433   O     0.95419   0.70419   0.12846   0.00000  Uiso   1.00
O434   O     0.54580   0.79581   0.20487   0.00000  Uiso   1.00
O435   O     0.54580   0.79581   0.12846   0.00000  Uiso   1.00
O436   O     0.95419   0.70419   0.20487   0.00000  Uiso   1.00
O437   O     0.79580   0.95419   0.20487   0.00000  Uiso   1.00
O438   O     0.70419   0.54581   0.12846   0.00000  Uiso   1.00
O439   O     0.70419   0.54581   0.20487   0.00000  Uiso   1.00
O440   O     0.79580   0.95419   0.12846   0.00000  Uiso   1.00
O441   O     0.70419   0.95419   0.12846   0.00000  Uiso   1.00
O442   O     0.79580   0.54581   0.20487   0.00000  Uiso   1.00
O443   O     0.79580   0.54581   0.12846   0.00000  Uiso   1.00
O444   O     0.70419   0.95419   0.20487   0.00000  Uiso   1.00
Zn445  Zn    0.50000   0.75000   0.21771   0.00000  Uiso   1.00
Zn446  Zn    0.50000   0.75000   0.11563   0.00000  Uiso   1.00
Zn447  Zn    0.75000   0.50000   0.21771   0.00000  Uiso   1.00
Zn448  Zn    0.75000   0.50000   0.11563   0.00000  Uiso   1.00
N449   N     0.50245   0.83282   0.04940   0.00000  Uiso   1.00
H450   H     0.53229   0.84726   0.05088   0.00000  Uiso   1.00
C451   C     0.96854   0.86637   0.04526   0.00000  Uiso   1.00
H452   H     0.95624   0.87447   0.07942   0.00000  Uiso   1.00
H453   H     0.94233   0.85381   0.02333   0.00000  Uiso   1.00
H454   H     0.98079   0.89926   0.03132   0.00000  Uiso   1.00
N455   N     0.50242   0.66718   0.28394   0.00000  Uiso   1.00
H456   H     0.53225   0.65271   0.28247   0.00000  Uiso   1.00
C457   C     0.96849   0.63365   0.28809   0.00000  Uiso   1.00
H458   H     0.98070   0.60077   0.30208   0.00000  Uiso   1.00
H459   H     0.95621   0.62553   0.25393   0.00000  Uiso   1.00
H460   H     0.94227   0.64627   0.30999   0.00000  Uiso   1.00
N461   N     0.99758   0.66718   0.04940   0.00000  Uiso   1.00
H462   H     0.96775   0.65271   0.05087   0.00000  Uiso   1.00
C463   C     0.53152   0.63365   0.04524   0.00000  Uiso   1.00
H464   H     0.54379   0.62552   0.07940   0.00000  Uiso   1.00
H465   H     0.55774   0.64627   0.02335   0.00000  Uiso   1.00
H466   H     0.51930   0.60077   0.03124   0.00000  Uiso   1.00
N467   N     0.99755   0.83282   0.28393   0.00000  Uiso   1.00
H468   H     0.96771   0.84725   0.28243   0.00000  Uiso   1.00
C469   C     0.53146   0.86638   0.28809   0.00000  Uiso   1.00
H470   H     0.51921   0.89926   0.30205   0.00000  Uiso   1.00
H471   H     0.54375   0.87450   0.25393   0.00000  Uiso   1.00
H472   H     0.55768   0.85381   0.31000   0.00000  Uiso   1.00
N473   N     0.75252   0.58281   0.04940   0.00000  Uiso   1.00
H474   H     0.78238   0.59721   0.05087   0.00000  Uiso   1.00
C475   C     0.71864   0.61642   0.04530   0.00000  Uiso   1.00
H476   H     0.73094   0.64931   0.03141   0.00000  Uiso   1.00
H477   H     0.70636   0.62448   0.07948   0.00000  Uiso   1.00
H478   H     0.69242   0.60391   0.02336   0.00000  Uiso   1.00
N479   N     0.75250   0.91718   0.28393   0.00000  Uiso   1.00
H480   H     0.78234   0.90276   0.28248   0.00000  Uiso   1.00
C481   C     0.71860   0.88361   0.28804   0.00000  Uiso   1.00
H482   H     0.73086   0.85072   0.30198   0.00000  Uiso   1.00
H483   H     0.70633   0.87551   0.25386   0.00000  Uiso   1.00
H484   H     0.69236   0.89615   0.30994   0.00000  Uiso   1.00
N485   N     0.74749   0.91718   0.04940   0.00000  Uiso   1.00
H486   H     0.71765   0.90275   0.05080   0.00000  Uiso   1.00
C487   C     0.78140   0.88362   0.04530   0.00000  Uiso   1.00
H488   H     0.76914   0.85072   0.03137   0.00000  Uiso   1.00
H489   H     0.79367   0.87554   0.07947   0.00000  Uiso   1.00
H490   H     0.80762   0.89616   0.02338   0.00000  Uiso   1.00
N491   N     0.74749   0.58281   0.28393   0.00000  Uiso   1.00
H492   H     0.71763   0.59721   0.28245   0.00000  Uiso   1.00
C493   C     0.78136   0.61642   0.28804   0.00000  Uiso   1.00
H494   H     0.76907   0.64931   0.30193   0.00000  Uiso   1.00
H495   H     0.79365   0.62448   0.25386   0.00000  Uiso   1.00
H496   H     0.80759   0.60391   0.30997   0.00000  Uiso   1.00
Cl497  Cl    0.88800   0.67733   0.07278   0.00000  Uiso   1.00
Cl498  Cl    0.61924   0.81905   0.25580   0.00000  Uiso   1.00
Cl499  Cl    0.61204   0.82262   0.07280   0.00000  Uiso   1.00
Cl500  Cl    0.88072   0.68100   0.25577   0.00000  Uiso   1.00
Cl501  Cl    0.61200   0.67733   0.26056   0.00000  Uiso   1.00
Cl502  Cl    0.88076   0.81905   0.07754   0.00000  Uiso   1.00
Cl503  Cl    0.88796   0.82262   0.26054   0.00000  Uiso   1.00
Cl504  Cl    0.61928   0.68101   0.07757   0.00000  Uiso   1.00
Cl505  Cl    0.63793   0.92741   0.07281   0.00000  Uiso   1.00
Cl506  Cl    0.86918   0.56912   0.25584   0.00000  Uiso   1.00
Cl507  Cl    0.86210   0.57254   0.07283   0.00000  Uiso   1.00
Cl508  Cl    0.63079   0.93093   0.25581   0.00000  Uiso   1.00
Cl509  Cl    0.86207   0.92742   0.26052   0.00000  Uiso   1.00
Cl510  Cl    0.63082   0.56913   0.07750   0.00000  Uiso   1.00
Cl511  Cl    0.63790   0.57254   0.26050   0.00000  Uiso   1.00
Cl512  Cl    0.86921   0.93092   0.07752   0.00000  Uiso   1.00
C513   C     0.06337   0.19395   0.50018   0.00000  Uiso   1.00
C514   C     0.43663   0.30605   0.50018   0.00000  Uiso   1.00
C515   C     0.43663   0.19395   0.49982   0.00000  Uiso   1.00
C516   C     0.06337   0.30605   0.49982   0.00000  Uiso   1.00
C517   C     0.31337   0.44395   0.50018   0.00000  Uiso   1.00
C518   C     0.18663   0.05605   0.50018   0.00000  Uiso   1.00
C519   C     0.18663   0.44395   0.49982   0.00000  Uiso   1.00
C520   C     0.31337   0.05605   0.49982   0.00000  Uiso   1.00
C521   C     0.49984   0.29094   0.35761   0.00000  Uiso   1.00
C522   C     0.49983   0.20906   0.64239   0.00000  Uiso   1.00
C523   C     0.00017   0.20906   0.35761   0.00000  Uiso   1.00
C524   C     0.00017   0.29094   0.64239   0.00000  Uiso   1.00
C525   C     0.24985   0.04094   0.35761   0.00000  Uiso   1.00
C526   C     0.24984   0.45906   0.64239   0.00000  Uiso   1.00
C527   C     0.25015   0.45906   0.35761   0.00000  Uiso   1.00
C528   C     0.25016   0.04094   0.64239   0.00000  Uiso   1.00
C529   C     0.38562   0.14585   0.45749   0.00000  Uiso   1.00
C530   C     0.11562   0.35351   0.53990   0.00000  Uiso   1.00
C531   C     0.11440   0.35413   0.45750   0.00000  Uiso   1.00
C532   C     0.38436   0.14652   0.53989   0.00000  Uiso   1.00
C533   C     0.11438   0.14585   0.54251   0.00000  Uiso   1.00
C534   C     0.38438   0.35350   0.46010   0.00000  Uiso   1.00
C535   C     0.38560   0.35413   0.54250   0.00000  Uiso   1.00
C536   C     0.11564   0.14652   0.46011   0.00000  Uiso   1.00
C537   C     0.13559   0.39589   0.45750   0.00000  Uiso   1.00
C538   C     0.36559   0.10354   0.53991   0.00000  Uiso   1.00
C539   C     0.36443   0.10409   0.45751   0.00000  Uiso   1.00
C540   C     0.13439   0.39648   0.53990   0.00000  Uiso   1.00
C541   C     0.36441   0.39589   0.54250   0.00000  Uiso   1.00
C542   C     0.13441   0.10354   0.46009   0.00000  Uiso   1.00
C543   C     0.13558   0.10409   0.54249   0.00000  Uiso   1.00
C544   C     0.36561   0.39648   0.46010   0.00000  Uiso   1.00
C545   C     0.10052   0.33556   0.49898   0.00000  Uiso   1.00
C546   C     0.39948   0.16444   0.49897   0.00000  Uiso   1.00
C547   C     0.39948   0.33556   0.50102   0.00000  Uiso   1.00
C548   C     0.10052   0.16444   0.50103   0.00000  Uiso   1.00
C549   C     0.35052   0.08555   0.49899   0.00000  Uiso   1.00
C550   C     0.14948   0.41444   0.49899   0.00000  Uiso   1.00
C551   C     0.14948   0.08556   0.50101   0.00000  Uiso   1.00
C552   C     0.35052   0.41444   0.50101   0.00000  Uiso   1.00
N553   N    -0.00000   0.25000   0.61907   0.00000  Uiso   1.00
N554   N    -0.00000   0.25000   0.38093   0.00000  Uiso   1.00
N555   N     0.25000  -0.00000   0.61907   0.00000  Uiso   1.00
N556   N     0.25000  -0.00000   0.38093   0.00000  Uiso   1.00
O557   O     0.04580   0.20419   0.53821   0.00000  Uiso   1.00
O558   O     0.45419   0.29581   0.46179   0.00000  Uiso   1.00
O559   O     0.45419   0.29581   0.53821   0.00000  Uiso   1.00
O560   O     0.04580   0.20419   0.46179   0.00000  Uiso   1.00
O561   O     0.45419   0.20419   0.46179   0.00000  Uiso   1.00
O562   O     0.04580   0.29581   0.53821   0.00000  Uiso   1.00
O563   O     0.04580   0.29581   0.46179   0.00000  Uiso   1.00
O564   O     0.45419   0.20419   0.53821   0.00000  Uiso   1.00
O565   O     0.29580   0.45419   0.53821   0.00000  Uiso   1.00
O566   O     0.20419   0.04581   0.46179   0.00000  Uiso   1.00
O567   O     0.20419   0.04581   0.53821   0.00000  Uiso   1.00
O568   O     0.29580   0.45419   0.46179   0.00000  Uiso   1.00
O569   O     0.20419   0.45419   0.46179   0.00000  Uiso   1.00
O570   O     0.29580   0.04581   0.53821   0.00000  Uiso   1.00
O571   O     0.29580   0.04581   0.46179   0.00000  Uiso   1.00
O572   O     0.20419   0.45419   0.53821   0.00000  Uiso   1.00
Zn573  Zn   -0.00000   0.25000   0.55104   0.00000  Uiso   1.00
Zn574  Zn   -0.00000   0.25000   0.44896   0.00000  Uiso   1.00
Zn575  Zn    0.25000  -0.00000   0.55104   0.00000  Uiso   1.00
Zn576  Zn    0.25000  -0.00000   0.44896   0.00000  Uiso   1.00
N577   N     0.00245   0.33282   0.38273   0.00000  Uiso   1.00
H578   H     0.03229   0.34726   0.38422   0.00000  Uiso   1.00
C579   C     0.46854   0.36637   0.37859   0.00000  Uiso   1.00
H580   H     0.45624   0.37447   0.41275   0.00000  Uiso   1.00
H581   H     0.44233   0.35381   0.35667   0.00000  Uiso   1.00
H582   H     0.48079   0.39926   0.36466   0.00000  Uiso   1.00
N583   N     0.00242   0.16718   0.61727   0.00000  Uiso   1.00
H584   H     0.03225   0.15271   0.61581   0.00000  Uiso   1.00
C585   C     0.46849   0.13365   0.62143   0.00000  Uiso   1.00
H586   H     0.48070   0.10077   0.63541   0.00000  Uiso   1.00
H587   H     0.45621   0.12553   0.58726   0.00000  Uiso   1.00
H588   H     0.44227   0.14627   0.64332   0.00000  Uiso   1.00
N589   N     0.49758   0.16718   0.38273   0.00000  Uiso   1.00
H590   H     0.46775   0.15271   0.38420   0.00000  Uiso   1.00
C591   C     0.03152   0.13365   0.37857   0.00000  Uiso   1.00
H592   H     0.04379   0.12552   0.41274   0.00000  Uiso   1.00
H593   H     0.05774   0.14627   0.35669   0.00000  Uiso   1.00
H594   H     0.01930   0.10077   0.36457   0.00000  Uiso   1.00
N595   N     0.49755   0.33282   0.61727   0.00000  Uiso   1.00
H596   H     0.46771   0.34725   0.61577   0.00000  Uiso   1.00
C597   C     0.03146   0.36638   0.62142   0.00000  Uiso   1.00
H598   H     0.01921   0.39926   0.63539   0.00000  Uiso   1.00
H599   H     0.04375   0.37450   0.58726   0.00000  Uiso   1.00
H600   H     0.05768   0.35381   0.64333   0.00000  Uiso   1.00
N601   N     0.25252   0.08281   0.38274   0.00000  Uiso   1.00
H602   H     0.28238   0.09721   0.38421   0.00000  Uiso   1.00
C603   C     0.21864   0.11642   0.37863   0.00000  Uiso   1.00
H604   H     0.23094   0.14931   0.36474   0.00000  Uiso   1.00
H605   H     0.20636   0.12448   0.41281   0.00000  Uiso   1.00
H606   H     0.19242   0.10391   0.35669   0.00000  Uiso   1.00
N607   N     0.25250   0.41718   0.61727   0.00000  Uiso   1.00
H608   H     0.28234   0.40276   0.61581   0.00000  Uiso   1.00
C609   C     0.21860   0.38361   0.62137   0.00000  Uiso   1.00
H610   H     0.23086   0.35072   0.63531   0.00000  Uiso   1.00
H611   H     0.20633   0.37551   0.58719   0.00000  Uiso   1.00
H612   H     0.19236   0.39615   0.64328   0.00000  Uiso   1.00
N613   N     0.24749   0.41718   0.38273   0.00000  Uiso   1.00
H614   H     0.21765   0.40275   0.38414   0.00000  Uiso   1.00
C615   C     0.28140   0.38362   0.37863   0.00000  Uiso   1.00
H616   H     0.26914   0.35072   0.36471   0.00000  Uiso   1.00
H617   H     0.29367   0.37554   0.41281   0.00000  Uiso   1.00
H618   H     0.30762   0.39616   0.35672   0.00000  Uiso   1.00
N619   N     0.24749   0.08281   0.61726   0.00000  Uiso   1.00
H620   H     0.21763   0.09721   0.61579   0.00000  Uiso   1.00
C621   C     0.28136   0.11642   0.62137   0.00000  Uiso   1.00
H622   H     0.26907   0.14931   0.63526   0.00000  Uiso   1.00
H623   H     0.29365   0.12448   0.58720   0.00000  Uiso   1.00
H624   H     0.30759   0.10391   0.64331   0.00000  Uiso   1.00
Cl625  Cl    0.38800   0.17733   0.40611   0.00000  Uiso   1.00
Cl626  Cl    0.11924   0.31905   0.58913   0.00000  Uiso   1.00
Cl627  Cl    0.11204   0.32262   0.40613   0.00000  Uiso   1.00
Cl628  Cl    0.38072   0.18100   0.58910   0.00000  Uiso   1.00
Cl629  Cl    0.11200   0.17733   0.59389   0.00000  Uiso   1.00
Cl630  Cl    0.38076   0.31905   0.41087   0.00000  Uiso   1.00
Cl631  Cl    0.38796   0.32262   0.59387   0.00000  Uiso   1.00
Cl632  Cl    0.11928   0.18101   0.41090   0.00000  Uiso   1.00
Cl633  Cl    0.13793   0.42741   0.40615   0.00000  Uiso   1.00
Cl634  Cl    0.36918   0.06912   0.58917   0.00000  Uiso   1.00
Cl635  Cl    0.36210   0.07254   0.40616   0.00000  Uiso   1.00
Cl636  Cl    0.13079   0.43093   0.58914   0.00000  Uiso   1.00
Cl637  Cl    0.36207   0.42742   0.59385   0.00000  Uiso   1.00
Cl638  Cl    0.13082   0.06913   0.41083   0.00000  Uiso   1.00
Cl639  Cl    0.13790   0.07254   0.59384   0.00000  Uiso   1.00
Cl640  Cl    0.36921   0.43092   0.41085   0.00000  Uiso   1.00
C641   C     0.56337   0.19395   0.50018   0.00000  Uiso   1.00
C642   C     0.93663   0.30605   0.50018   0.00000  Uiso   1.00
C643   C     0.93663   0.19395   0.49982   0.00000  Uiso   1.00
C644   C     0.56337   0.30605   0.49982   0.00000  Uiso   1.00
C645   C     0.81337   0.44395   0.50018   0.00000  Uiso   1.00
C646   C     0.68663   0.05605   0.50018   0.00000  Uiso   1.00
C647   C     0.68663   0.44395   0.49982   0.00000  Uiso   1.00
C648   C     0.81337   0.05605   0.49982   0.00000  Uiso   1.00
C649   C     0.99984   0.29094   0.35761   0.00000  Uiso   1.00
C650   C     0.99983   0.20906   0.64239   0.00000  Uiso   1.00
C651   C     0.50017   0.20906   0.35761   0.00000  Uiso   1.00
C652   C     0.50017   0.29094   0.64239   0.00000  Uiso   1.00
C653   C     0.74985   0.04094   0.35761   0.00000  Uiso   1.00
C654   C     0.74984   0.45906   0.64239   0.00000  Uiso   1.00
C655   C     0.75015   0.45906   0.35761   0.00000  Uiso   1.00
C656   C     0.75016   0.04094   0.64239   0.00000  Uiso   1.00
C657   C     0.88562   0.14585   0.45749   0.00000  Uiso   1.00
C658   C     0.61562   0.35351   0.53990   0.00000  Uiso   1.00
C659   C     0.61440   0.35413   0.45750   0.00000  Uiso   1.00
C660   C     0.88436   0.14652   0.53989   0.00000  Uiso   1.00
C661   C     0.61438   0.14585   0.54251   0.00000  Uiso   1.00
C662   C     0.88438   0.35350   0.46010   0.00000  Uiso   1.00
C663   C     0.88560   0.35413   0.54250   0.00000  Uiso   1.00
C664   C     0.61564   0.14652   0.46011   0.00000  Uiso   1.00
C665   C     0.63559   0.39589   0.45750   0.00000  Uiso   1.00
C666   C     0.86559   0.10354   0.53991   0.00000  Uiso   1.00
C667   C     0.86443   0.10409   0.45751   0.00000  Uiso   1.00
C668   C     0.63439   0.39648   0.53990   0.00000  Uiso   1.00
C669   C     0.86441   0.39589   0.54250   0.00000  Uiso   1.00
C670   C     0.63441   0.10354   0.46009   0.00000  Uiso   1.00
C671   C     0.63558   0.10409   0.54249   0.00000  Uiso   1.00
C672   C     0.86561   0.39648   0.46010   0.00000  Uiso   1.00
C673   C     0.60052   0.33556   0.49898   0.00000  Uiso   1.00
C674   C     0.89948   0.16444   0.49897   0.00000  Uiso   1.00
C675   C     0.89948   0.33556   0.50102   0.00000  Uiso   1.00
C676   C     0.60052   0.16444   0.50103   0.00000  Uiso   1.00
C677   C     0.85052   0.08555   0.49899   0.00000  Uiso   1.00
C678   C     0.64948   0.41444   0.49899   0.00000  Uiso   1.00
C679   C     0.64948   0.08556   0.50101   0.00000  Uiso   1.00
C680   C     0.85052   0.41444   0.50101   0.00000  Uiso   1.00
N681   N     0.50000   0.25000   0.61907   0.00000  Uiso   1.00
N682   N     0.50000   0.25000   0.38093   0.00000  Uiso   1.00
N683   N     0.75000  -0.00000   0.61907   0.00000  Uiso   1.00
N684   N     0.75000  -0.00000   0.38093   0.00000  Uiso   1.00
O685   O     0.54580   0.20419   0.53821   0.00000  Uiso   1.00
O686   O     0.95419   0.29581   0.46179   0.00000  Uiso   1.00
O687   O     0.95419   0.29581   0.53821   0.00000  Uiso   1.00
O688   O     0.54580   0.20419   0.46179   0.00000  Uiso   1.00
O689   O     0.95419   0.20419   0.46179   0.00000  Uiso   1.00
O690   O     0.54580   0.29581   0.53821   0.00000  Uiso   1.00
O691   O     0.54580   0.29581   0.46179   0.00000  Uiso   1.00
O692   O     0.95419   0.20419   0.53821   0.00000  Uiso   1.00
O693   O     0.79580   0.45419   0.53821   0.00000  Uiso   1.00
O694   O     0.70419   0.04581   0.46179   0.00000  Uiso   1.00
O695   O     0.70419   0.04581   0.53821   0.00000  Uiso   1.00
O696   O     0.79580   0.45419   0.46179   0.00000  Uiso   1.00
O697   O     0.70419   0.45419   0.46179   0.00000  Uiso   1.00
O698   O     0.79580   0.04581   0.53821   0.00000  Uiso   1.00
O699   O     0.79580   0.04581   0.46179   0.00000  Uiso   1.00
O700   O     0.70419   0.45419   0.53821   0.00000  Uiso   1.00
Zn701  Zn    0.50000   0.25000   0.55104   0.00000  Uiso   1.00
Zn702  Zn    0.50000   0.25000   0.44896   0.00000  Uiso   1.00
Zn703  Zn    0.75000  -0.00000   0.55104   0.00000  Uiso   1.00
Zn704  Zn    0.75000  -0.00000   0.44896   0.00000  Uiso   1.00
N705   N     0.50245   0.33282   0.38273   0.00000  Uiso   1.00
H706   H     0.53229   0.34726   0.38422   0.00000  Uiso   1.00
C707   C     0.96854   0.36637   0.37859   0.00000  Uiso   1.00
H708   H     0.95624   0.37447   0.41275   0.00000  Uiso   1.00
H709   H     0.94233   0.35381   0.35667   0.00000  Uiso   1.00
H710   H     0.98079   0.39926   0.36466   0.00000  Uiso   1.00
N711   N     0.50242   0.16718   0.61727   0.00000  Uiso   1.00
H712   H     0.53225   0.15271   0.61581   0.00000  Uiso   1.00
C713   C     0.96849   0.13365   0.62143   0.00000  Uiso   1.00
H714   H     0.98070   0.10077   0.63541   0.00000  Uiso   1.00
H715   H     0.95621   0.12553   0.58726   0.00000  Uiso   1.00
H716   H     0.94227   0.14627   0.64332   0.00000  Uiso   1.00
N717   N     0.99758   0.16718   0.38273   0.00000  Uiso   1.00
H718   H     0.96775   0.15271   0.38420   0.00000  Uiso   1.00
C719   C     0.53152   0.13365   0.37857   0.00000  Uiso   1.00
H720   H     0.54379   0.12552   0.41274   0.00000  Uiso   1.00
H721   H     0.55774   0.14627   0.35669   0.00000  Uiso   1.00
H722   H     0.51930   0.10077   0.36457   0.00000  Uiso   1.00
N723   N     0.99755   0.33282   0.61727   0.00000  Uiso   1.00
H724   H     0.96771   0.34725   0.61577   0.00000  Uiso   1.00
C725   C     0.53146   0.36638   0.62142   0.00000  Uiso   1.00
H726   H     0.51921   0.39926   0.63539   0.00000  Uiso   1.00
H727   H     0.54375   0.37450   0.58726   0.00000  Uiso   1.00
H728   H     0.55768   0.35381   0.64333   0.00000  Uiso   1.00
N729   N     0.75252   0.08281   0.38274   0.00000  Uiso   1.00
H730   H     0.78238   0.09721   0.38421   0.00000  Uiso   1.00
C731   C     0.71864   0.11642   0.37863   0.00000  Uiso   1.00
H732   H     0.73094   0.14931   0.36474   0.00000  Uiso   1.00
H733   H     0.70636   0.12448   0.41281   0.00000  Uiso   1.00
H734   H     0.69242   0.10391   0.35669   0.00000  Uiso   1.00
N735   N     0.75250   0.41718   0.61727   0.00000  Uiso   1.00
H736   H     0.78234   0.40276   0.61581   0.00000  Uiso   1.00
C737   C     0.71860   0.38361   0.62137   0.00000  Uiso   1.00
H738   H     0.73086   0.35072   0.63531   0.00000  Uiso   1.00
H739   H     0.70633   0.37551   0.58719   0.00000  Uiso   1.00
H740   H     0.69236   0.39615   0.64328   0.00000  Uiso   1.00
N741   N     0.74749   0.41718   0.38273   0.00000  Uiso   1.00
H742   H     0.71765   0.40275   0.38414   0.00000  Uiso   1.00
C743   C     0.78140   0.38362   0.37863   0.00000  Uiso   1.00
H744   H     0.76914   0.35072   0.36471   0.00000  Uiso   1.00
H745   H     0.79367   0.37554   0.41281   0.00000  Uiso   1.00
H746   H     0.80762   0.39616   0.35672   0.00000  Uiso   1.00
N747   N     0.74749   0.08281   0.61726   0.00000  Uiso   1.00
H748   H     0.71763   0.09721   0.61579   0.00000  Uiso   1.00
C749   C     0.78136   0.11642   0.62137   0.00000  Uiso   1.00
H750   H     0.76907   0.14931   0.63526   0.00000  Uiso   1.00
H751   H     0.79365   0.12448   0.58720   0.00000  Uiso   1.00
H752   H     0.80759   0.10391   0.64331   0.00000  Uiso   1.00
Cl753  Cl    0.88800   0.17733   0.40611   0.00000  Uiso   1.00
Cl754  Cl    0.61924   0.31905   0.58913   0.00000  Uiso   1.00
Cl755  Cl    0.61204   0.32262   0.40613   0.00000  Uiso   1.00
Cl756  Cl    0.88072   0.18100   0.58910   0.00000  Uiso   1.00
Cl757  Cl    0.61200   0.17733   0.59389   0.00000  Uiso   1.00
Cl758  Cl    0.88076   0.31905   0.41087   0.00000  Uiso   1.00
Cl759  Cl    0.88796   0.32262   0.59387   0.00000  Uiso   1.00
Cl760  Cl    0.61928   0.18101   0.41090   0.00000  Uiso   1.00
Cl761  Cl    0.63793   0.42741   0.40615   0.00000  Uiso   1.00
Cl762  Cl    0.86918   0.06912   0.58917   0.00000  Uiso   1.00
Cl763  Cl    0.86210   0.07254   0.40616   0.00000  Uiso   1.00
Cl764  Cl    0.63079   0.43093   0.58914   0.00000  Uiso   1.00
Cl765  Cl    0.86207   0.42742   0.59385   0.00000  Uiso   1.00
Cl766  Cl    0.63082   0.06913   0.41083   0.00000  Uiso   1.00
Cl767  Cl    0.63790   0.07254   0.59384   0.00000  Uiso   1.00
Cl768  Cl    0.86921   0.43092   0.41085   0.00000  Uiso   1.00
C769   C     0.06337   0.69395   0.50018   0.00000  Uiso   1.00
C770   C     0.43663   0.80605   0.50018   0.00000  Uiso   1.00
C771   C     0.43663   0.69395   0.49982   0.00000  Uiso   1.00
C772   C     0.06337   0.80605   0.49982   0.00000  Uiso   1.00
C773   C     0.31337   0.94395   0.50018   0.00000  Uiso   1.00
C774   C     0.18663   0.55605   0.50018   0.00000  Uiso   1.00
C775   C     0.18663   0.94395   0.49982   0.00000  Uiso   1.00
C776   C     0.31337   0.55605   0.49982   0.00000  Uiso   1.00
C777   C     0.49984   0.79094   0.35761   0.00000  Uiso   1.00
C778   C     0.49983   0.70906   0.64239   0.00000  Uiso   1.00
C779   C     0.00017   0.70906   0.35761   0.00000  Uiso   1.00
C780   C     0.00017   0.79094   0.64239   0.00000  Uiso   1.00
C781   C     0.24985   0.54094   0.35761   0.00000  Uiso   1.00
C782   C     0.24984   0.95906   0.64239   0.00000  Uiso   1.00
C783   C     0.25015   0.95906   0.35761   0.00000  Uiso   1.00
C784   C     0.25016   0.54094   0.64239   0.00000  Uiso   1.00
C785   C     0.38562   0.64585   0.45749   0.00000  Uiso   1.00
C786   C     0.11562   0.85351   0.53990   0.00000  Uiso   1.00
C787   C     0.11440   0.85413   0.45750   0.00000  Uiso   1.00
C788   C     0.38436   0.64652   0.53989   0.00000  Uiso   1.00
C789   C     0.11438   0.64585   0.54251   0.00000  Uiso   1.00
C790   C     0.38438   0.85350   0.46010   0.00000  Uiso   1.00
C791   C     0.38560   0.85413   0.54250   0.00000  Uiso   1.00
C792   C     0.11564   0.64652   0.46011   0.00000  Uiso   1.00
C793   C     0.13559   0.89589   0.45750   0.00000  Uiso   1.00
C794   C     0.36559   0.60354   0.53991   0.00000  Uiso   1.00
C795   C     0.36443   0.60409   0.45751   0.00000  Uiso   1.00
C796   C     0.13439   0.89648   0.53990   0.00000  Uiso   1.00
C797   C     0.36441   0.89589   0.54250   0.00000  Uiso   1.00
C798   C     0.13441   0.60354   0.46009   0.00000  Uiso   1.00
C799   C     0.13558   0.60409   0.54249   0.00000  Uiso   1.00
C800   C     0.36561   0.89648   0.46010   0.00000  Uiso   1.00
C801   C     0.10052   0.83556   0.49898   0.00000  Uiso   1.00
C802   C     0.39948   0.66444   0.49897   0.00000  Uiso   1.00
C803   C     0.39948   0.83556   0.50102   0.00000  Uiso   1.00
C804   C     0.10052   0.66444   0.50103   0.00000  Uiso   1.00
C805   C     0.35052   0.58555   0.49899   0.00000  Uiso   1.00
C806   C     0.14948   0.91444   0.49899   0.00000  Uiso   1.00
C807   C     0.14948   0.58556   0.50101   0.00000  Uiso   1.00
C808   C     0.35052   0.91444   0.50101   0.00000  Uiso   1.00
N809   N    -0.00000   0.75000   0.61907   0.00000  Uiso   1.00
N810   N    -0.00000   0.75000   0.38093   0.00000  Uiso   1.00
N811   N     0.25000   0.50000   0.61907   0.00000  Uiso   1.00
N812   N     0.25000   0.50000   0.38093   0.00000  Uiso   1.00
O813   O     0.04580   0.70419   0.53821   0.00000  Uiso   1.00
O814   O     0.45419   0.79581   0.46179   0.00000  Uiso   1.00
O815   O     0.45419   0.79581   0.53821   0.00000  Uiso   1.00
O816   O     0.04580   0.70419   0.46179   0.00000  Uiso   1.00
O817   O     0.45419   0.70419   0.46179   0.00000  Uiso   1.00
O818   O     0.04580   0.79581   0.53821   0.00000  Uiso   1.00
O819   O     0.04580   0.79581   0.46179   0.00000  Uiso   1.00
O820   O     0.45419   0.70419   0.53821   0.00000  Uiso   1.00
O821   O     0.29580   0.95419   0.53821   0.00000  Uiso   1.00
O822   O     0.20419   0.54581   0.46179   0.00000  Uiso   1.00
O823   O     0.20419   0.54581   0.53821   0.00000  Uiso   1.00
O824   O     0.29580   0.95419   0.46179   0.00000  Uiso   1.00
O825   O     0.20419   0.95419   0.46179   0.00000  Uiso   1.00
O826   O     0.29580   0.54581   0.53821   0.00000  Uiso   1.00
O827   O     0.29580   0.54581   0.46179   0.00000  Uiso   1.00
O828   O     0.20419   0.95419   0.53821   0.00000  Uiso   1.00
Zn829  Zn   -0.00000   0.75000   0.55104   0.00000  Uiso   1.00
Zn830  Zn   -0.00000   0.75000   0.44896   0.00000  Uiso   1.00
Zn831  Zn    0.25000   0.50000   0.55104   0.00000  Uiso   1.00
Zn832  Zn    0.25000   0.50000   0.44896   0.00000  Uiso   1.00
N833   N     0.00245   0.83282   0.38273   0.00000  Uiso   1.00
H834   H     0.03229   0.84726   0.38422   0.00000  Uiso   1.00
C835   C     0.46854   0.86637   0.37859   0.00000  Uiso   1.00
H836   H     0.45624   0.87447   0.41275   0.00000  Uiso   1.00
H837   H     0.44233   0.85381   0.35667   0.00000  Uiso   1.00
H838   H     0.48079   0.89926   0.36466   0.00000  Uiso   1.00
N839   N     0.00242   0.66718   0.61727   0.00000  Uiso   1.00
H840   H     0.03225   0.65271   0.61581   0.00000  Uiso   1.00
C841   C     0.46849   0.63365   0.62143   0.00000  Uiso   1.00
H842   H     0.48070   0.60077   0.63541   0.00000  Uiso   1.00
H843   H     0.45621   0.62553   0.58726   0.00000  Uiso   1.00
H844   H     0.44227   0.64627   0.64332   0.00000  Uiso   1.00
N845   N     0.49758   0.66718   0.38273   0.00000  Uiso   1.00
H846   H     0.46775   0.65271   0.38420   0.00000  Uiso   1.00
C847   C     0.03152   0.63365   0.37857   0.00000  Uiso   1.00
H848   H     0.04379   0.62552   0.41274   0.00000  Uiso   1.00
H849   H     0.05774   0.64627   0.35669   0.00000  Uiso   1.00
H850   H     0.01930   0.60077   0.36457   0.00000  Uiso   1.00
N851   N     0.49755   0.83282   0.61727   0.00000  Uiso   1.00
H852   H     0.46771   0.84725   0.61577   0.00000  Uiso   1.00
C853   C     0.03146   0.86638   0.62142   0.00000  Uiso   1.00
H854   H     0.01921   0.89926   0.63539   0.00000  Uiso   1.00
H855   H     0.04375   0.87450   0.58726   0.00000  Uiso   1.00
H856   H     0.05768   0.85381   0.64333   0.00000  Uiso   1.00
N857   N     0.25252   0.58281   0.38274   0.00000  Uiso   1.00
H858   H     0.28238   0.59721   0.38421   0.00000  Uiso   1.00
C859   C     0.21864   0.61642   0.37863   0.00000  Uiso   1.00
H860   H     0.23094   0.64931   0.36474   0.00000  Uiso   1.00
H861   H     0.20636   0.62448   0.41281   0.00000  Uiso   1.00
H862   H     0.19242   0.60391   0.35669   0.00000  Uiso   1.00
N863   N     0.25250   0.91718   0.61727   0.00000  Uiso   1.00
H864   H     0.28234   0.90276   0.61581   0.00000  Uiso   1.00
C865   C     0.21860   0.88361   0.62137   0.00000  Uiso   1.00
H866   H     0.23086   0.85072   0.63531   0.00000  Uiso   1.00
H867   H     0.20633   0.87551   0.58719   0.00000  Uiso   1.00
H868   H     0.19236   0.89615   0.64328   0.00000  Uiso   1.00
N869   N     0.24749   0.91718   0.38273   0.00000  Uiso   1.00
H870   H     0.21765   0.90275   0.38414   0.00000  Uiso   1.00
C871   C     0.28140   0.88362   0.37863   0.00000  Uiso   1.00
H872   H     0.26914   0.85072   0.36471   0.00000  Uiso   1.00
H873   H     0.29367   0.87554   0.41281   0.00000  Uiso   1.00
H874   H     0.30762   0.89616   0.35672   0.00000  Uiso   1.00
N875   N     0.24749   0.58281   0.61726   0.00000  Uiso   1.00
H876   H     0.21763   0.59721   0.61579   0.00000  Uiso   1.00
C877   C     0.28136   0.61642   0.62137   0.00000  Uiso   1.00
H878   H     0.26907   0.64931   0.63526   0.00000  Uiso   1.00
H879   H     0.29365   0.62448   0.58720   0.00000  Uiso   1.00
H880   H     0.30759   0.60391   0.64331   0.00000  Uiso   1.00
Cl881  Cl    0.38800   0.67733   0.40611   0.00000  Uiso   1.00
Cl882  Cl    0.11924   0.81905   0.58913   0.00000  Uiso   1.00
Cl883  Cl    0.11204   0.82262   0.40613   0.00000  Uiso   1.00
Cl884  Cl    0.38072   0.68100   0.58910   0.00000  Uiso   1.00
Cl885  Cl    0.11200   0.67733   0.59389   0.00000  Uiso   1.00
Cl886  Cl    0.38076   0.81905   0.41087   0.00000  Uiso   1.00
Cl887  Cl    0.38796   0.82262   0.59387   0.00000  Uiso   1.00
Cl888  Cl    0.11928   0.68101   0.41090   0.00000  Uiso   1.00
Cl889  Cl    0.13793   0.92741   0.40615   0.00000  Uiso   1.00
Cl890  Cl    0.36918   0.56912   0.58917   0.00000  Uiso   1.00
Cl891  Cl    0.36210   0.57254   0.40616   0.00000  Uiso   1.00
Cl892  Cl    0.13079   0.93093   0.58914   0.00000  Uiso   1.00
Cl893  Cl    0.36207   0.92742   0.59385   0.00000  Uiso   1.00
Cl894  Cl    0.13082   0.56913   0.41083   0.00000  Uiso   1.00
Cl895  Cl    0.13790   0.57254   0.59384   0.00000  Uiso   1.00
Cl896  Cl    0.36921   0.93092   0.41085   0.00000  Uiso   1.00
C897   C     0.56337   0.69395   0.50018   0.00000  Uiso   1.00
C898   C     0.93663   0.80605   0.50018   0.00000  Uiso   1.00
C899   C     0.93663   0.69395   0.49982   0.00000  Uiso   1.00
C900   C     0.56337   0.80605   0.49982   0.00000  Uiso   1.00
C901   C     0.81337   0.94395   0.50018   0.00000  Uiso   1.00
C902   C     0.68663   0.55605   0.50018   0.00000  Uiso   1.00
C903   C     0.68663   0.94395   0.49982   0.00000  Uiso   1.00
C904   C     0.81337   0.55605   0.49982   0.00000  Uiso   1.00
C905   C     0.99984   0.79094   0.35761   0.00000  Uiso   1.00
C906   C     0.99983   0.70906   0.64239   0.00000  Uiso   1.00
C907   C     0.50017   0.70906   0.35761   0.00000  Uiso   1.00
C908   C     0.50017   0.79094   0.64239   0.00000  Uiso   1.00
C909   C     0.74985   0.54094   0.35761   0.00000  Uiso   1.00
C910   C     0.74984   0.95906   0.64239   0.00000  Uiso   1.00
C911   C     0.75015   0.95906   0.35761   0.00000  Uiso   1.00
C912   C     0.75016   0.54094   0.64239   0.00000  Uiso   1.00
C913   C     0.88562   0.64585   0.45749   0.00000  Uiso   1.00
C914   C     0.61562   0.85351   0.53990   0.00000  Uiso   1.00
C915   C     0.61440   0.85413   0.45750   0.00000  Uiso   1.00
C916   C     0.88436   0.64652   0.53989   0.00000  Uiso   1.00
C917   C     0.61438   0.64585   0.54251   0.00000  Uiso   1.00
C918   C     0.88438   0.85350   0.46010   0.00000  Uiso   1.00
C919   C     0.88560   0.85413   0.54250   0.00000  Uiso   1.00
C920   C     0.61564   0.64652   0.46011   0.00000  Uiso   1.00
C921   C     0.63559   0.89589   0.45750   0.00000  Uiso   1.00
C922   C     0.86559   0.60354   0.53991   0.00000  Uiso   1.00
C923   C     0.86443   0.60409   0.45751   0.00000  Uiso   1.00
C924   C     0.63439   0.89648   0.53990   0.00000  Uiso   1.00
C925   C     0.86441   0.89589   0.54250   0.00000  Uiso   1.00
C926   C     0.63441   0.60354   0.46009   0.00000  Uiso   1.00
C927   C     0.63558   0.60409   0.54249   0.00000  Uiso   1.00
C928   C     0.86561   0.89648   0.46010   0.00000  Uiso   1.00
C929   C     0.60052   0.83556   0.49898   0.00000  Uiso   1.00
C930   C     0.89948   0.66444   0.49897   0.00000  Uiso   1.00
C931   C     0.89948   0.83556   0.50102   0.00000  Uiso   1.00
C932   C     0.60052   0.66444   0.50103   0.00000  Uiso   1.00
C933   C     0.85052   0.58555   0.49899   0.00000  Uiso   1.00
C934   C     0.64948   0.91444   0.49899   0.00000  Uiso   1.00
C935   C     0.64948   0.58556   0.50101   0.00000  Uiso   1.00
C936   C     0.85052   0.91444   0.50101   0.00000  Uiso   1.00
N937   N     0.50000   0.75000   0.61907   0.00000  Uiso   1.00
N938   N     0.50000   0.75000   0.38093   0.00000  Uiso   1.00
N939   N     0.75000   0.50000   0.61907   0.00000  Uiso   1.00
N940   N     0.75000   0.50000   0.38093   0.00000  Uiso   1.00
O941   O     0.54580   0.70419   0.53821   0.00000  Uiso   1.00
O942   O     0.95419   0.79581   0.46179   0.00000  Uiso   1.00
O943   O     0.95419   0.79581   0.53821   0.00000  Uiso   1.00
O944   O     0.54580   0.70419   0.46179   0.00000  Uiso   1.00
O945   O     0.95419   0.70419   0.46179   0.00000  Uiso   1.00
O946   O     0.54580   0.79581   0.53821   0.00000  Uiso   1.00
O947   O     0.54580   0.79581   0.46179   0.00000  Uiso   1.00
O948   O     0.95419   0.70419   0.53821   0.00000  Uiso   1.00
O949   O     0.79580   0.95419   0.53821   0.00000  Uiso   1.00
O950   O     0.70419   0.54581   0.46179   0.00000  Uiso   1.00
O951   O     0.70419   0.54581   0.53821   0.00000  Uiso   1.00
O952   O     0.79580   0.95419   0.46179   0.00000  Uiso   1.00
O953   O     0.70419   0.95419   0.46179   0.00000  Uiso   1.00
O954   O     0.79580   0.54581   0.53821   0.00000  Uiso   1.00
O955   O     0.79580   0.54581   0.46179   0.00000  Uiso   1.00
O956   O     0.70419   0.95419   0.53821   0.00000  Uiso   1.00
Zn957  Zn    0.50000   0.75000   0.55104   0.00000  Uiso   1.00
Zn958  Zn    0.50000   0.75000   0.44896   0.00000  Uiso   1.00
Zn959  Zn    0.75000   0.50000   0.55104   0.00000  Uiso   1.00
Zn960  Zn    0.75000   0.50000   0.44896   0.00000  Uiso   1.00
N961   N     0.50245   0.83282   0.38273   0.00000  Uiso   1.00
H962   H     0.53229   0.84726   0.38422   0.00000  Uiso   1.00
C963   C     0.96854   0.86637   0.37859   0.00000  Uiso   1.00
H964   H     0.95624   0.87447   0.41275   0.00000  Uiso   1.00
H965   H     0.94233   0.85381   0.35667   0.00000  Uiso   1.00
H966   H     0.98079   0.89926   0.36466   0.00000  Uiso   1.00
N967   N     0.50242   0.66718   0.61727   0.00000  Uiso   1.00
H968   H     0.53225   0.65271   0.61581   0.00000  Uiso   1.00
C969   C     0.96849   0.63365   0.62143   0.00000  Uiso   1.00
H970   H     0.98070   0.60077   0.63541   0.00000  Uiso   1.00
H971   H     0.95621   0.62553   0.58726   0.00000  Uiso   1.00
H972   H     0.94227   0.64627   0.64332   0.00000  Uiso   1.00
N973   N     0.99758   0.66718   0.38273   0.00000  Uiso   1.00
H974   H     0.96775   0.65271   0.38420   0.00000  Uiso   1.00
C975   C     0.53152   0.63365   0.37857   0.00000  Uiso   1.00
H976   H     0.54379   0.62552   0.41274   0.00000  Uiso   1.00
H977   H     0.55774   0.64627   0.35669   0.00000  Uiso   1.00
H978   H     0.51930   0.60077   0.36457   0.00000  Uiso   1.00
N979   N     0.99755   0.83282   0.61727   0.00000  Uiso   1.00
H980   H     0.96771   0.84725   0.61577   0.00000  Uiso   1.00
C981   C     0.53146   0.86638   0.62142   0.00000  Uiso   1.00
H982   H     0.51921   0.89926   0.63539   0.00000  Uiso   1.00
H983   H     0.54375   0.87450   0.58726   0.00000  Uiso   1.00
H984   H     0.55768   0.85381   0.64333   0.00000  Uiso   1.00
N985   N     0.75252   0.58281   0.38274   0.00000  Uiso   1.00
H986   H     0.78238   0.59721   0.38421   0.00000  Uiso   1.00
C987   C     0.71864   0.61642   0.37863   0.00000  Uiso   1.00
H988   H     0.73094   0.64931   0.36474   0.00000  Uiso   1.00
H989   H     0.70636   0.62448   0.41281   0.00000  Uiso   1.00
H990   H     0.69242   0.60391   0.35669   0.00000  Uiso   1.00
N991   N     0.75250   0.91718   0.61727   0.00000  Uiso   1.00
H992   H     0.78234   0.90276   0.61581   0.00000  Uiso   1.00
C993   C     0.71860   0.88361   0.62137   0.00000  Uiso   1.00
H994   H     0.73086   0.85072   0.63531   0.00000  Uiso   1.00
H995   H     0.70633   0.87551   0.58719   0.00000  Uiso   1.00
H996   H     0.69236   0.89615   0.64328   0.00000  Uiso   1.00
N997   N     0.74749   0.91718   0.38273   0.00000  Uiso   1.00
H998   H     0.71765   0.90275   0.38414   0.00000  Uiso   1.00
C999   C     0.78140   0.88362   0.37863   0.00000  Uiso   1.00
H1000  H     0.76914   0.85072   0.36471   0.00000  Uiso   1.00
H1001  H     0.79367   0.87554   0.41281   0.00000  Uiso   1.00
H1002  H     0.80762   0.89616   0.35672   0.00000  Uiso   1.00
N1003  N     0.74749   0.58281   0.61726   0.00000  Uiso   1.00
H1004  H     0.71763   0.59721   0.61579   0.00000  Uiso   1.00
C1005  C     0.78136   0.61642   0.62137   0.00000  Uiso   1.00
H1006  H     0.76907   0.64931   0.63526   0.00000  Uiso   1.00
H1007  H     0.79365   0.62448   0.58720   0.00000  Uiso   1.00
H1008  H     0.80759   0.60391   0.64331   0.00000  Uiso   1.00
Cl1009 Cl    0.88800   0.67733   0.40611   0.00000  Uiso   1.00
Cl1010 Cl    0.61924   0.81905   0.58913   0.00000  Uiso   1.00
Cl1011 Cl    0.61204   0.82262   0.40613   0.00000  Uiso   1.00
Cl1012 Cl    0.88072   0.68100   0.58910   0.00000  Uiso   1.00
Cl1013 Cl    0.61200   0.67733   0.59389   0.00000  Uiso   1.00
Cl1014 Cl    0.88076   0.81905   0.41087   0.00000  Uiso   1.00
Cl1015 Cl    0.88796   0.82262   0.59387   0.00000  Uiso   1.00
Cl1016 Cl    0.61928   0.68101   0.41090   0.00000  Uiso   1.00
Cl1017 Cl    0.63793   0.92741   0.40615   0.00000  Uiso   1.00
Cl1018 Cl    0.86918   0.56912   0.58917   0.00000  Uiso   1.00
Cl1019 Cl    0.86210   0.57254   0.40616   0.00000  Uiso   1.00
Cl1020 Cl    0.63079   0.93093   0.58914   0.00000  Uiso   1.00
Cl1021 Cl    0.86207   0.92742   0.59385   0.00000  Uiso   1.00
Cl1022 Cl    0.63082   0.56913   0.41083   0.00000  Uiso   1.00
Cl1023 Cl    0.63790   0.57254   0.59384   0.00000  Uiso   1.00
Cl1024 Cl    0.86921   0.93092   0.41085   0.00000  Uiso   1.00
C1025  C     0.06337   0.19395   0.83351   0.00000  Uiso   1.00
C1026  C     0.43663   0.30605   0.83351   0.00000  Uiso   1.00
C1027  C     0.43663   0.19395   0.83315   0.00000  Uiso   1.00
C1028  C     0.06337   0.30605   0.83316   0.00000  Uiso   1.00
C1029  C     0.31337   0.44395   0.83351   0.00000  Uiso   1.00
C1030  C     0.18663   0.05605   0.83351   0.00000  Uiso   1.00
C1031  C     0.18663   0.44395   0.83316   0.00000  Uiso   1.00
C1032  C     0.31337   0.05605   0.83316   0.00000  Uiso   1.00
C1033  C     0.49984   0.29094   0.69095   0.00000  Uiso   1.00
C1034  C     0.49983   0.20906   0.97572   0.00000  Uiso   1.00
C1035  C     0.00017   0.20906   0.69094   0.00000  Uiso   1.00
C1036  C     0.00017   0.29094   0.97572   0.00000  Uiso   1.00
C1037  C     0.24985   0.04094   0.69095   0.00000  Uiso   1.00
C1038  C     0.24984   0.45906   0.97572   0.00000  Uiso   1.00
C1039  C     0.25015   0.45906   0.69095   0.00000  Uiso   1.00
C1040  C     0.25016   0.04094   0.97572   0.00000  Uiso   1.00
C1041  C     0.38562   0.14585   0.79083   0.00000  Uiso   1.00
C1042  C     0.11562   0.35351   0.87323   0.00000  Uiso   1.00
C1043  C     0.11440   0.35413   0.79083   0.00000  Uiso   1.00
C1044  C     0.38436   0.14652   0.87322   0.00000  Uiso   1.00
C1045  C     0.11438   0.14585   0.87584   0.00000  Uiso   1.00
C1046  C     0.38438   0.35350   0.79344   0.00000  Uiso   1.00
C1047  C     0.38560   0.35413   0.87583   0.00000  Uiso   1.00
C1048  C     0.11564   0.14652   0.79344   0.00000  Uiso   1.00
C1049  C     0.13559   0.39589   0.79084   0.00000  Uiso   1.00
C1050  C     0.36559   0.10354   0.87324   0.00000  Uiso   1.00
C1051  C     0.36443   0.10409   0.79084   0.00000  Uiso   1.00
C1052  C     0.13439   0.39648   0.87323   0.00000  Uiso   1.00
C1053  C     0.36441   0.39589   0.87583   0.00000  Uiso   1.00
C1054  C     0.13441   0.10354   0.79343   0.00000  Uiso   1.00
C1055  C     0.13558   0.10409   0.87583   0.00000  Uiso   1.00
C1056  C     0.36561   0.39648   0.79343   0.00000  Uiso   1.00
C1057  C     0.10052   0.33556   0.83232   0.00000  Uiso   1.00
C1058  C     0.39948   0.16444   0.83231   0.00000  Uiso   1.00
C1059  C     0.39948   0.33556   0.83435   0.00000  Uiso   1.00
C1060  C     0.10052   0.16444   0.83436   0.00000  Uiso   1.00
C1061  C     0.35052   0.08555   0.83233   0.00000  Uiso   1.00
C1062  C     0.14948   0.41444   0.83232   0.00000  Uiso   1.00
C1063  C     0.14948   0.08556   0.83434   0.00000  Uiso   1.00
C1064  C     0.35052   0.41444   0.83435   0.00000  Uiso   1.00
N1065  N    -0.00000   0.25000   0.95240   0.00000  Uiso   1.00
N1066  N    -0.00000   0.25000   0.71427   0.00000  Uiso   1.00
N1067  N     0.25000  -0.00000   0.95240   0.00000  Uiso   1.00
N1068  N     0.25000  -0.00000   0.71427   0.00000  Uiso   1.00
O1069  O     0.04580   0.20419   0.87154   0.00000  Uiso   1.00
O1070  O     0.45419   0.29581   0.79513   0.00000  Uiso   1.00
O1071  O     0.45419   0.29581   0.87154   0.00000  Uiso   1.00
O1072  O     0.04580   0.20419   0.79513   0.00000  Uiso   1.00
O1073  O     0.45419   0.20419   0.79513   0.00000  Uiso   1.00
O1074  O     0.04580   0.29581   0.87154   0.00000  Uiso   1.00
O1075  O     0.04580   0.29581   0.79513   0.00000  Uiso   1.00
O1076  O     0.45419   0.20419   0.87154   0.00000  Uiso   1.00
O1077  O     0.29580   0.45419   0.87154   0.00000  Uiso   1.00
O1078  O     0.20419   0.04581   0.79513   0.00000  Uiso   1.00
O1079  O     0.20419   0.04581   0.87154   0.00000  Uiso   1.00
O1080  O     0.29580   0.45419   0.79513   0.00000  Uiso   1.00
O1081  O     0.20419   0.45419   0.79513   0.00000  Uiso   1.00
O1082  O     0.29580   0.04581   0.87154   0.00000  Uiso   1.00
O1083  O     0.29580   0.04581   0.79513   0.00000  Uiso   1.00
O1084  O     0.20419   0.45419   0.87154   0.00000  Uiso   1.00
Zn1085 Zn   -0.00000   0.25000   0.88437   0.00000  Uiso   1.00
Zn1086 Zn   -0.00000   0.25000   0.78229   0.00000  Uiso   1.00
Zn1087 Zn    0.25000  -0.00000   0.88437   0.00000  Uiso   1.00
Zn1088 Zn    0.25000  -0.00000   0.78229   0.00000  Uiso   1.00
N1089  N     0.00245   0.33282   0.71607   0.00000  Uiso   1.00
H1090  H     0.03229   0.34726   0.71755   0.00000  Uiso   1.00
C1091  C     0.46854   0.36637   0.71192   0.00000  Uiso   1.00
H1092  H     0.45624   0.37447   0.74608   0.00000  Uiso   1.00
H1093  H     0.44233   0.35381   0.69000   0.00000  Uiso   1.00
H1094  H     0.48079   0.39926   0.69799   0.00000  Uiso   1.00
N1095  N     0.00242   0.16718   0.95061   0.00000  Uiso   1.00
H1096  H     0.03225   0.15271   0.94914   0.00000  Uiso   1.00
C1097  C     0.46849   0.13365   0.95476   0.00000  Uiso   1.00
H1098  H     0.48070   0.10077   0.96875   0.00000  Uiso   1.00
H1099  H     0.45621   0.12553   0.92059   0.00000  Uiso   1.00
H1100  H     0.44227   0.14627   0.97665   0.00000  Uiso   1.00
N1101  N     0.49758   0.16718   0.71606   0.00000  Uiso   1.00
H1102  H     0.46775   0.15271   0.71753   0.00000  Uiso   1.00
C1103  C     0.03152   0.13365   0.71190   0.00000  Uiso   1.00
H1104  H     0.04379   0.12552   0.74607   0.00000  Uiso   1.00
H1105  H     0.05774   0.14627   0.69002   0.00000  Uiso   1.00
H1106  H     0.01930   0.10077   0.69790   0.00000  Uiso   1.00
N1107  N     0.49755   0.33282   0.95060   0.00000  Uiso   1.00
H1108  H     0.46771   0.34725   0.94910   0.00000  Uiso   1.00
C1109  C     0.03146   0.36638   0.95476   0.00000  Uiso   1.00
H1110  H     0.01921   0.39926   0.96872   0.00000  Uiso   1.00
H1111  H     0.04375   0.37450   0.92059   0.00000  Uiso   1.00
H1112  H     0.05768   0.35381   0.97667   0.00000  Uiso   1.00
N1113  N     0.25252   0.08281   0.71607   0.00000  Uiso   1.00
H1114  H     0.28238   0.09721   0.71754   0.00000  Uiso   1.00
C1115  C     0.21864   0.11642   0.71197   0.00000  Uiso   1.00
H1116  H     0.23094   0.14931   0.69808   0.00000  Uiso   1.00
H1117  H     0.20636   0.12448   0.74614   0.00000  Uiso   1.00
H1118  H     0.19242   0.10391   0.69003   0.00000  Uiso   1.00
N1119  N     0.25250   0.41718   0.95060   0.00000  Uiso   1.00
H1120  H     0.28234   0.40276   0.94915   0.00000  Uiso   1.00
C1121  C     0.21860   0.38361   0.95470   0.00000  Uiso   1.00
H1122  H     0.23086   0.35072   0.96865   0.00000  Uiso   1.00
H1123  H     0.20633   0.37551   0.92053   0.00000  Uiso   1.00
H1124  H     0.19236   0.39615   0.97661   0.00000  Uiso   1.00
N1125  N     0.24749   0.41718   0.71606   0.00000  Uiso   1.00
H1126  H     0.21765   0.40275   0.71747   0.00000  Uiso   1.00
C1127  C     0.28140   0.38362   0.71197   0.00000  Uiso   1.00
H1128  H     0.26914   0.35072   0.69804   0.00000  Uiso   1.00
H1129  H     0.29367   0.37554   0.74614   0.00000  Uiso   1.00
H1130  H     0.30762   0.39616   0.69005   0.00000  Uiso   1.00
N1131  N     0.24749   0.08281   0.95060   0.00000  Uiso   1.00
H1132  H     0.21763   0.09721   0.94912   0.00000  Uiso   1.00
C1133  C     0.28136   0.11642   0.95470   0.00000  Uiso   1.00
H1134  H     0.26907   0.14931   0.96860   0.00000  Uiso   1.00
H1135  H     0.29365   0.12448   0.92053   0.00000  Uiso   1.00
H1136  H     0.30759   0.10391   0.97664   0.00000  Uiso   1.00
Cl1137 Cl    0.38800   0.17733   0.73944   0.00000  Uiso   1.00
Cl1138 Cl    0.11924   0.31905   0.92246   0.00000  Uiso   1.00
Cl1139 Cl    0.11204   0.32262   0.73946   0.00000  Uiso   1.00
Cl1140 Cl    0.38072   0.18100   0.92244   0.00000  Uiso   1.00
Cl1141 Cl    0.11200   0.17733   0.92722   0.00000  Uiso   1.00
Cl1142 Cl    0.38076   0.31905   0.74420   0.00000  Uiso   1.00
Cl1143 Cl    0.38796   0.32262   0.92720   0.00000  Uiso   1.00
Cl1144 Cl    0.11928   0.18101   0.74423   0.00000  Uiso   1.00
Cl1145 Cl    0.13793   0.42741   0.73948   0.00000  Uiso   1.00
Cl1146 Cl    0.36918   0.06912   0.92250   0.00000  Uiso   1.00
Cl1147 Cl    0.36210   0.07254   0.73950   0.00000  Uiso   1.00
Cl1148 Cl    0.13079   0.43093   0.92248   0.00000  Uiso   1.00
Cl1149 Cl    0.36207   0.42742   0.92719   0.00000  Uiso   1.00
Cl1150 Cl    0.13082   0.06913   0.74416   0.00000  Uiso   1.00
Cl1151 Cl    0.13790   0.07254   0.92717   0.00000  Uiso   1.00
Cl1152 Cl    0.36921   0.43092   0.74419   0.00000  Uiso   1.00
C1153  C     0.56337   0.19395   0.83351   0.00000  Uiso   1.00
C1154  C     0.93663   0.30605   0.83351   0.00000  Uiso   1.00
C1155  C     0.93663   0.19395   0.83315   0.00000  Uiso   1.00
C1156  C     0.56337   0.30605   0.83316   0.00000  Uiso   1.00
C1157  C     0.81337   0.44395   0.83351   0.00000  Uiso   1.00
C1158  C     0.68663   0.05605   0.83351   0.00000  Uiso   1.00
C1159  C     0.68663   0.44395   0.83316   0.00000  Uiso   1.00
C1160  C     0.81337   0.05605   0.83316   0.00000  Uiso   1.00
C1161  C     0.99984   0.29094   0.69095   0.00000  Uiso   1.00
C1162  C     0.99983   0.20906   0.97572   0.00000  Uiso   1.00
C1163  C     0.50017   0.20906   0.69094   0.00000  Uiso   1.00
C1164  C     0.50017   0.29094   0.97572   0.00000  Uiso   1.00
C1165  C     0.74985   0.04094   0.69095   0.00000  Uiso   1.00
C1166  C     0.74984   0.45906   0.97572   0.00000  Uiso   1.00
C1167  C     0.75015   0.45906   0.69095   0.00000  Uiso   1.00
C1168  C     0.75016   0.04094   0.97572   0.00000  Uiso   1.00
C1169  C     0.88562   0.14585   0.79083   0.00000  Uiso   1.00
C1170  C     0.61562   0.35351   0.87323   0.00000  Uiso   1.00
C1171  C     0.61440   0.35413   0.79083   0.00000  Uiso   1.00
C1172  C     0.88436   0.14652   0.87322   0.00000  Uiso   1.00
C1173  C     0.61438   0.14585   0.87584   0.00000  Uiso   1.00
C1174  C     0.88438   0.35350   0.79344   0.00000  Uiso   1.00
C1175  C     0.88560   0.35413   0.87583   0.00000  Uiso   1.00
C1176  C     0.61564   0.14652   0.79344   0.00000  Uiso   1.00
C1177  C     0.63559   0.39589   0.79084   0.00000  Uiso   1.00
C1178  C     0.86559   0.10354   0.87324   0.00000  Uiso   1.00
C1179  C     0.86443   0.10409   0.79084   0.00000  Uiso   1.00
C1180  C     0.63439   0.39648   0.87323   0.00000  Uiso   1.00
C1181  C     0.86441   0.39589   0.87583   0.00000  Uiso   1.00
C1182  C     0.63441   0.10354   0.79343   0.00000  Uiso   1.00
C1183  C     0.63558   0.10409   0.87583   0.00000  Uiso   1.00
C1184  C     0.86561   0.39648   0.79343   0.00000  Uiso   1.00
C1185  C     0.60052   0.33556   0.83232   0.00000  Uiso   1.00
C1186  C     0.89948   0.16444   0.83231   0.00000  Uiso   1.00
C1187  C     0.89948   0.33556   0.83435   0.00000  Uiso   1.00
C1188  C     0.60052   0.16444   0.83436   0.00000  Uiso   1.00
C1189  C     0.85052   0.08555   0.83233   0.00000  Uiso   1.00
C1190  C     0.64948   0.41444   0.83232   0.00000  Uiso   1.00
C1191  C     0.64948   0.08556   0.83434   0.00000  Uiso   1.00
C1192  C     0.85052   0.41444   0.83435   0.00000  Uiso   1.00
N1193  N     0.50000   0.25000   0.95240   0.00000  Uiso   1.00
N1194  N     0.50000   0.25000   0.71427   0.00000  Uiso   1.00
N1195  N     0.75000  -0.00000   0.95240   0.00000  Uiso   1.00
N1196  N     0.75000  -0.00000   0.71427   0.00000  Uiso   1.00
O1197  O     0.54580   0.20419   0.87154   0.00000  Uiso   1.00
O1198  O     0.95419   0.29581   0.79513   0.00000  Uiso   1.00
O1199  O     0.95419   0.29581   0.87154   0.00000  Uiso   1.00
O1200  O     0.54580   0.20419   0.79513   0.00000  Uiso   1.00
O1201  O     0.95419   0.20419   0.79513   0.00000  Uiso   1.00
O1202  O     0.54580   0.29581   0.87154   0.00000  Uiso   1.00
O1203  O     0.54580   0.29581   0.79513   0.00000  Uiso   1.00
O1204  O     0.95419   0.20419   0.87154   0.00000  Uiso   1.00
O1205  O     0.79580   0.45419   0.87154   0.00000  Uiso   1.00
O1206  O     0.70419   0.04581   0.79513   0.00000  Uiso   1.00
O1207  O     0.70419   0.04581   0.87154   0.00000  Uiso   1.00
O1208  O     0.79580   0.45419   0.79513   0.00000  Uiso   1.00
O1209  O     0.70419   0.45419   0.79513   0.00000  Uiso   1.00
O1210  O     0.79580   0.04581   0.87154   0.00000  Uiso   1.00
O1211  O     0.79580   0.04581   0.79513   0.00000  Uiso   1.00
O1212  O     0.70419   0.45419   0.87154   0.00000  Uiso   1.00
Zn1213 Zn    0.50000   0.25000   0.88437   0.00000  Uiso   1.00
Zn1214 Zn    0.50000   0.25000   0.78229   0.00000  Uiso   1.00
Zn1215 Zn    0.75000  -0.00000   0.88437   0.00000  Uiso   1.00
Zn1216 Zn    0.75000  -0.00000   0.78229   0.00000  Uiso   1.00
N1217  N     0.50245   0.33282   0.71607   0.00000  Uiso   1.00
H1218  H     0.53229   0.34726   0.71755   0.00000  Uiso   1.00
C1219  C     0.96854   0.36637   0.71192   0.00000  Uiso   1.00
H1220  H     0.95624   0.37447   0.74608   0.00000  Uiso   1.00
H1221  H     0.94233   0.35381   0.69000   0.00000  Uiso   1.00
H1222  H     0.98079   0.39926   0.69799   0.00000  Uiso   1.00
N1223  N     0.50242   0.16718   0.95061   0.00000  Uiso   1.00
H1224  H     0.53225   0.15271   0.94914   0.00000  Uiso   1.00
C1225  C     0.96849   0.13365   0.95476   0.00000  Uiso   1.00
H1226  H     0.98070   0.10077   0.96875   0.00000  Uiso   1.00
H1227  H     0.95621   0.12553   0.92059   0.00000  Uiso   1.00
H1228  H     0.94227   0.14627   0.97665   0.00000  Uiso   1.00
N1229  N     0.99758   0.16718   0.71606   0.00000  Uiso   1.00
H1230  H     0.96775   0.15271   0.71753   0.00000  Uiso   1.00
C1231  C     0.53152   0.13365   0.71190   0.00000  Uiso   1.00
H1232  H     0.54379   0.12552   0.74607   0.00000  Uiso   1.00
H1233  H     0.55774   0.14627   0.69002   0.00000  Uiso   1.00
H1234  H     0.51930   0.10077   0.69790   0.00000  Uiso   1.00
N1235  N     0.99755   0.33282   0.95060   0.00000  Uiso   1.00
H1236  H     0.96771   0.34725   0.94910   0.00000  Uiso   1.00
C1237  C     0.53146   0.36638   0.95476   0.00000  Uiso   1.00
H1238  H     0.51921   0.39926   0.96872   0.00000  Uiso   1.00
H1239  H     0.54375   0.37450   0.92059   0.00000  Uiso   1.00
H1240  H     0.55768   0.35381   0.97667   0.00000  Uiso   1.00
N1241  N     0.75252   0.08281   0.71607   0.00000  Uiso   1.00
H1242  H     0.78238   0.09721   0.71754   0.00000  Uiso   1.00
C1243  C     0.71864   0.11642   0.71197   0.00000  Uiso   1.00
H1244  H     0.73094   0.14931   0.69808   0.00000  Uiso   1.00
H1245  H     0.70636   0.12448   0.74614   0.00000  Uiso   1.00
H1246  H     0.69242   0.10391   0.69003   0.00000  Uiso   1.00
N1247  N     0.75250   0.41718   0.95060   0.00000  Uiso   1.00
H1248  H     0.78234   0.40276   0.94915   0.00000  Uiso   1.00
C1249  C     0.71860   0.38361   0.95470   0.00000  Uiso   1.00
H1250  H     0.73086   0.35072   0.96865   0.00000  Uiso   1.00
H1251  H     0.70633   0.37551   0.92053   0.00000  Uiso   1.00
H1252  H     0.69236   0.39615   0.97661   0.00000  Uiso   1.00
N1253  N     0.74749   0.41718   0.71606   0.00000  Uiso   1.00
H1254  H     0.71765   0.40275   0.71747   0.00000  Uiso   1.00
C1255  C     0.78140   0.38362   0.71197   0.00000  Uiso   1.00
H1256  H     0.76914   0.35072   0.69804   0.00000  Uiso   1.00
H1257  H     0.79367   0.37554   0.74614   0.00000  Uiso   1.00
H1258  H     0.80762   0.39616   0.69005   0.00000  Uiso   1.00
N1259  N     0.74749   0.08281   0.95060   0.00000  Uiso   1.00
H1260  H     0.71763   0.09721   0.94912   0.00000  Uiso   1.00
C1261  C     0.78136   0.11642   0.95470   0.00000  Uiso   1.00
H1262  H     0.76907   0.14931   0.96860   0.00000  Uiso   1.00
H1263  H     0.79365   0.12448   0.92053   0.00000  Uiso   1.00
H1264  H     0.80759   0.10391   0.97664   0.00000  Uiso   1.00
Cl1265 Cl    0.88800   0.17733   0.73944   0.00000  Uiso   1.00
Cl1266 Cl    0.61924   0.31905   0.92246   0.00000  Uiso   1.00
Cl1267 Cl    0.61204   0.32262   0.73946   0.00000  Uiso   1.00
Cl1268 Cl    0.88072   0.18100   0.92244   0.00000  Uiso   1.00
Cl1269 Cl    0.61200   0.17733   0.92722   0.00000  Uiso   1.00
Cl1270 Cl    0.88076   0.31905   0.74420   0.00000  Uiso   1.00
Cl1271 Cl    0.88796   0.32262   0.92720   0.00000  Uiso   1.00
Cl1272 Cl    0.61928   0.18101   0.74423   0.00000  Uiso   1.00
Cl1273 Cl    0.63793   0.42741   0.73948   0.00000  Uiso   1.00
Cl1274 Cl    0.86918   0.06912   0.92250   0.00000  Uiso   1.00
Cl1275 Cl    0.86210   0.07254   0.73950   0.00000  Uiso   1.00
Cl1276 Cl    0.63079   0.43093   0.92248   0.00000  Uiso   1.00
Cl1277 Cl    0.86207   0.42742   0.92719   0.00000  Uiso   1.00
Cl1278 Cl    0.63082   0.06913   0.74416   0.00000  Uiso   1.00
Cl1279 Cl    0.63790   0.07254   0.92717   0.00000  Uiso   1.00
Cl1280 Cl    0.86921   0.43092   0.74419   0.00000  Uiso   1.00
C1281  C     0.06337   0.69395   0.83351   0.00000  Uiso   1.00
C1282  C     0.43663   0.80605   0.83351   0.00000  Uiso   1.00
C1283  C     0.43663   0.69395   0.83315   0.00000  Uiso   1.00
C1284  C     0.06337   0.80605   0.83316   0.00000  Uiso   1.00
C1285  C     0.31337   0.94395   0.83351   0.00000  Uiso   1.00
C1286  C     0.18663   0.55605   0.83351   0.00000  Uiso   1.00
C1287  C     0.18663   0.94395   0.83316   0.00000  Uiso   1.00
C1288  C     0.31337   0.55605   0.83316   0.00000  Uiso   1.00
C1289  C     0.49984   0.79094   0.69095   0.00000  Uiso   1.00
C1290  C     0.49983   0.70906   0.97572   0.00000  Uiso   1.00
C1291  C     0.00017   0.70906   0.69094   0.00000  Uiso   1.00
C1292  C     0.00017   0.79094   0.97572   0.00000  Uiso   1.00
C1293  C     0.24985   0.54094   0.69095   0.00000  Uiso   1.00
C1294  C     0.24984   0.95906   0.97572   0.00000  Uiso   1.00
C1295  C     0.25015   0.95906   0.69095   0.00000  Uiso   1.00
C1296  C     0.25016   0.54094   0.97572   0.00000  Uiso   1.00
C1297  C     0.38562   0.64585   0.79083   0.00000  Uiso   1.00
C1298  C     0.11562   0.85351   0.87323   0.00000  Uiso   1.00
C1299  C     0.11440   0.85413   0.79083   0.00000  Uiso   1.00
C1300  C     0.38436   0.64652   0.87322   0.00000  Uiso   1.00
C1301  C     0.11438   0.64585   0.87584   0.00000  Uiso   1.00
C1302  C     0.38438   0.85350   0.79344   0.00000  Uiso   1.00
C1303  C     0.38560   0.85413   0.87583   0.00000  Uiso   1.00
C1304  C     0.11564   0.64652   0.79344   0.00000  Uiso   1.00
C1305  C     0.13559   0.89589   0.79084   0.00000  Uiso   1.00
C1306  C     0.36559   0.60354   0.87324   0.00000  Uiso   1.00
C1307  C     0.36443   0.60409   0.79084   0.00000  Uiso   1.00
C1308  C     0.13439   0.89648   0.87323   0.00000  Uiso   1.00
C1309  C     0.36441   0.89589   0.87583   0.00000  Uiso   1.00
C1310  C     0.13441   0.60354   0.79343   0.00000  Uiso   1.00
C1311  C     0.13558   0.60409   0.87583   0.00000  Uiso   1.00
C1312  C     0.36561   0.89648   0.79343   0.00000  Uiso   1.00
C1313  C     0.10052   0.83556   0.83232   0.00000  Uiso   1.00
C1314  C     0.39948   0.66444   0.83231   0.00000  Uiso   1.00
C1315  C     0.39948   0.83556   0.83435   0.00000  Uiso   1.00
C1316  C     0.10052   0.66444   0.83436   0.00000  Uiso   1.00
C1317  C     0.35052   0.58555   0.83233   0.00000  Uiso   1.00
C1318  C     0.14948   0.91444   0.83232   0.00000  Uiso   1.00
C1319  C     0.14948   0.58556   0.83434   0.00000  Uiso   1.00
C1320  C     0.35052   0.91444   0.83435   0.00000  Uiso   1.00
N1321  N    -0.00000   0.75000   0.95240   0.00000  Uiso   1.00
N1322  N    -0.00000   0.75000   0.71427   0.00000  Uiso   1.00
N1323  N     0.25000   0.50000   0.95240   0.00000  Uiso   1.00
N1324  N     0.25000   0.50000   0.71427   0.00000  Uiso   1.00
O1325  O     0.04580   0.70419   0.87154   0.00000  Uiso   1.00
O1326  O     0.45419   0.79581   0.79513   0.00000  Uiso   1.00
O1327  O     0.45419   0.79581   0.87154   0.00000  Uiso   1.00
O1328  O     0.04580   0.70419   0.79513   0.00000  Uiso   1.00
O1329  O     0.45419   0.70419   0.79513   0.00000  Uiso   1.00
O1330  O     0.04580   0.79581   0.87154   0.00000  Uiso   1.00
O1331  O     0.04580   0.79581   0.79513   0.00000  Uiso   1.00
O1332  O     0.45419   0.70419   0.87154   0.00000  Uiso   1.00
O1333  O     0.29580   0.95419   0.87154   0.00000  Uiso   1.00
O1334  O     0.20419   0.54581   0.79513   0.00000  Uiso   1.00
O1335  O     0.20419   0.54581   0.87154   0.00000  Uiso   1.00
O1336  O     0.29580   0.95419   0.79513   0.00000  Uiso   1.00
O1337  O     0.20419   0.95419   0.79513   0.00000  Uiso   1.00
O1338  O     0.29580   0.54581   0.87154   0.00000  Uiso   1.00
O1339  O     0.29580   0.54581   0.79513   0.00000  Uiso   1.00
O1340  O     0.20419   0.95419   0.87154   0.00000  Uiso   1.00
Zn1341 Zn   -0.00000   0.75000   0.88437   0.00000  Uiso   1.00
Zn1342 Zn   -0.00000   0.75000   0.78229   0.00000  Uiso   1.00
Zn1343 Zn    0.25000   0.50000   0.88437   0.00000  Uiso   1.00
Zn1344 Zn    0.25000   0.50000   0.78229   0.00000  Uiso   1.00
N1345  N     0.00245   0.83282   0.71607   0.00000  Uiso   1.00
H1346  H     0.03229   0.84726   0.71755   0.00000  Uiso   1.00
C1347  C     0.46854   0.86637   0.71192   0.00000  Uiso   1.00
H1348  H     0.45624   0.87447   0.74608   0.00000  Uiso   1.00
H1349  H     0.44233   0.85381   0.69000   0.00000  Uiso   1.00
H1350  H     0.48079   0.89926   0.69799   0.00000  Uiso   1.00
N1351  N     0.00242   0.66718   0.95061   0.00000  Uiso   1.00
H1352  H     0.03225   0.65271   0.94914   0.00000  Uiso   1.00
C1353  C     0.46849   0.63365   0.95476   0.00000  Uiso   1.00
H1354  H     0.48070   0.60077   0.96875   0.00000  Uiso   1.00
H1355  H     0.45621   0.62553   0.92059   0.00000  Uiso   1.00
H1356  H     0.44227   0.64627   0.97665   0.00000  Uiso   1.00
N1357  N     0.49758   0.66718   0.71606   0.00000  Uiso   1.00
H1358  H     0.46775   0.65271   0.71753   0.00000  Uiso   1.00
C1359  C     0.03152   0.63365   0.71190   0.00000  Uiso   1.00
H1360  H     0.04379   0.62552   0.74607   0.00000  Uiso   1.00
H1361  H     0.05774   0.64627   0.69002   0.00000  Uiso   1.00
H1362  H     0.01930   0.60077   0.69790   0.00000  Uiso   1.00
N1363  N     0.49755   0.83282   0.95060   0.00000  Uiso   1.00
H1364  H     0.46771   0.84725   0.94910   0.00000  Uiso   1.00
C1365  C     0.03146   0.86638   0.95476   0.00000  Uiso   1.00
H1366  H     0.01921   0.89926   0.96872   0.00000  Uiso   1.00
H1367  H     0.04375   0.87450   0.92059   0.00000  Uiso   1.00
H1368  H     0.05768   0.85381   0.97667   0.00000  Uiso   1.00
N1369  N     0.25252   0.58281   0.71607   0.00000  Uiso   1.00
H1370  H     0.28238   0.59721   0.71754   0.00000  Uiso   1.00
C1371  C     0.21864   0.61642   0.71197   0.00000  Uiso   1.00
H1372  H     0.23094   0.64931   0.69808   0.00000  Uiso   1.00
H1373  H     0.20636   0.62448   0.74614   0.00000  Uiso   1.00
H1374  H     0.19242   0.60391   0.69003   0.00000  Uiso   1.00
N1375  N     0.25250   0.91718   0.95060   0.00000  Uiso   1.00
H1376  H     0.28234   0.90276   0.94915   0.00000  Uiso   1.00
C1377  C     0.21860   0.88361   0.95470   0.00000  Uiso   1.00
H1378  H     0.23086   0.85072   0.96865   0.00000  Uiso   1.00
H1379  H     0.20633   0.87551   0.92053   0.00000  Uiso   1.00
H1380  H     0.19236   0.89615   0.97661   0.00000  Uiso   1.00
N1381  N     0.24749   0.91718   0.71606   0.00000  Uiso   1.00
H1382  H     0.21765   0.90275   0.71747   0.00000  Uiso   1.00
C1383  C     0.28140   0.88362   0.71197   0.00000  Uiso   1.00
H1384  H     0.26914   0.85072   0.69804   0.00000  Uiso   1.00
H1385  H     0.29367   0.87554   0.74614   0.00000  Uiso   1.00
H1386  H     0.30762   0.89616   0.69005   0.00000  Uiso   1.00
N1387  N     0.24749   0.58281   0.95060   0.00000  Uiso   1.00
H1388  H     0.21763   0.59721   0.94912   0.00000  Uiso   1.00
C1389  C     0.28136   0.61642   0.95470   0.00000  Uiso   1.00
H1390  H     0.26907   0.64931   0.96860   0.00000  Uiso   1.00
H1391  H     0.29365   0.62448   0.92053   0.00000  Uiso   1.00
H1392  H     0.30759   0.60391   0.97664   0.00000  Uiso   1.00
Cl1393 Cl    0.38800   0.67733   0.73944   0.00000  Uiso   1.00
Cl1394 Cl    0.11924   0.81905   0.92246   0.00000  Uiso   1.00
Cl1395 Cl    0.11204   0.82262   0.73946   0.00000  Uiso   1.00
Cl1396 Cl    0.38072   0.68100   0.92244   0.00000  Uiso   1.00
Cl1397 Cl    0.11200   0.67733   0.92722   0.00000  Uiso   1.00
Cl1398 Cl    0.38076   0.81905   0.74420   0.00000  Uiso   1.00
Cl1399 Cl    0.38796   0.82262   0.92720   0.00000  Uiso   1.00
Cl1400 Cl    0.11928   0.68101   0.74423   0.00000  Uiso   1.00
Cl1401 Cl    0.13793   0.92741   0.73948   0.00000  Uiso   1.00
Cl1402 Cl    0.36918   0.56912   0.92250   0.00000  Uiso   1.00
Cl1403 Cl    0.36210   0.57254   0.73950   0.00000  Uiso   1.00
Cl1404 Cl    0.13079   0.93093   0.92248   0.00000  Uiso   1.00
Cl1405 Cl    0.36207   0.92742   0.92719   0.00000  Uiso   1.00
Cl1406 Cl    0.13082   0.56913   0.74416   0.00000  Uiso   1.00
Cl1407 Cl    0.13790   0.57254   0.92717   0.00000  Uiso   1.00
Cl1408 Cl    0.36921   0.93092   0.74419   0.00000  Uiso   1.00
C1409  C     0.56337   0.69395   0.83351   0.00000  Uiso   1.00
C1410  C     0.93663   0.80605   0.83351   0.00000  Uiso   1.00
C1411  C     0.93663   0.69395   0.83315   0.00000  Uiso   1.00
C1412  C     0.56337   0.80605   0.83316   0.00000  Uiso   1.00
C1413  C     0.81337   0.94395   0.83351   0.00000  Uiso   1.00
C1414  C     0.68663   0.55605   0.83351   0.00000  Uiso   1.00
C1415  C     0.68663   0.94395   0.83316   0.00000  Uiso   1.00
C1416  C     0.81337   0.55605   0.83316   0.00000  Uiso   1.00
C1417  C     0.99984   0.79094   0.69095   0.00000  Uiso   1.00
C1418  C     0.99983   0.70906   0.97572   0.00000  Uiso   1.00
C1419  C     0.50017   0.70906   0.69094   0.00000  Uiso   1.00
C1420  C     0.50017   0.79094   0.97572   0.00000  Uiso   1.00
C1421  C     0.74985   0.54094   0.69095   0.00000  Uiso   1.00
C1422  C     0.74984   0.95906   0.97572   0.00000  Uiso   1.00
C1423  C     0.75015   0.95906   0.69095   0.00000  Uiso   1.00
C1424  C     0.75016   0.54094   0.97572   0.00000  Uiso   1.00
C1425  C     0.88562   0.64585   0.79083   0.00000  Uiso   1.00
C1426  C     0.61562   0.85351   0.87323   0.00000  Uiso   1.00
C1427  C     0.61440   0.85413   0.79083   0.00000  Uiso   1.00
C1428  C     0.88436   0.64652   0.87322   0.00000  Uiso   1.00
C1429  C     0.61438   0.64585   0.87584   0.00000  Uiso   1.00
C1430  C     0.88438   0.85350   0.79344   0.00000  Uiso   1.00
C1431  C     0.88560   0.85413   0.87583   0.00000  Uiso   1.00
C1432  C     0.61564   0.64652   0.79344   0.00000  Uiso   1.00
C1433  C     0.63559   0.89589   0.79084   0.00000  Uiso   1.00
C1434  C     0.86559   0.60354   0.87324   0.00000  Uiso   1.00
C1435  C     0.86443   0.60409   0.79084   0.00000  Uiso   1.00
C1436  C     0.63439   0.89648   0.87323   0.00000  Uiso   1.00
C1437  C     0.86441   0.89589   0.87583   0.00000  Uiso   1.00
C1438  C     0.63441   0.60354   0.79343   0.00000  Uiso   1.00
C1439  C     0.63558   0.60409   0.87583   0.00000  Uiso   1.00
C1440  C     0.86561   0.89648   0.79343   0.00000  Uiso   1.00
C1441  C     0.60052   0.83556   0.83232   0.00000  Uiso   1.00
C1442  C     0.89948   0.66444   0.83231   0.00000  Uiso   1.00
C1443  C     0.89948   0.83556   0.83435   0.00000  Uiso   1.00
C1444  C     0.60052   0.66444   0.83436   0.00000  Uiso   1.00
C1445  C     0.85052   0.58555   0.83233   0.00000  Uiso   1.00
C1446  C     0.64948   0.91444   0.83232   0.00000  Uiso   1.00
C1447  C     0.64948   0.58556   0.83434   0.00000  Uiso   1.00
C1448  C     0.85052   0.91444   0.83435   0.00000  Uiso   1.00
N1449  N     0.50000   0.75000   0.95240   0.00000  Uiso   1.00
N1450  N     0.50000   0.75000   0.71427   0.00000  Uiso   1.00
N1451  N     0.75000   0.50000   0.95240   0.00000  Uiso   1.00
N1452  N     0.75000   0.50000   0.71427   0.00000  Uiso   1.00
O1453  O     0.54580   0.70419   0.87154   0.00000  Uiso   1.00
O1454  O     0.95419   0.79581   0.79513   0.00000  Uiso   1.00
O1455  O     0.95419   0.79581   0.87154   0.00000  Uiso   1.00
O1456  O     0.54580   0.70419   0.79513   0.00000  Uiso   1.00
O1457  O     0.95419   0.70419   0.79513   0.00000  Uiso   1.00
O1458  O     0.54580   0.79581   0.87154   0.00000  Uiso   1.00
O1459  O     0.54580   0.79581   0.79513   0.00000  Uiso   1.00
O1460  O     0.95419   0.70419   0.87154   0.00000  Uiso   1.00
O1461  O     0.79580   0.95419   0.87154   0.00000  Uiso   1.00
O1462  O     0.70419   0.54581   0.79513   0.00000  Uiso   1.00
O1463  O     0.70419   0.54581   0.87154   0.00000  Uiso   1.00
O1464  O     0.79580   0.95419   0.79513   0.00000  Uiso   1.00
O1465  O     0.70419   0.95419   0.79513   0.00000  Uiso   1.00
O1466  O     0.79580   0.54581   0.87154   0.00000  Uiso   1.00
O1467  O     0.79580   0.54581   0.79513   0.00000  Uiso   1.00
O1468  O     0.70419   0.95419   0.87154   0.00000  Uiso   1.00
Zn1469 Zn    0.50000   0.75000   0.88437   0.00000  Uiso   1.00
Zn1470 Zn    0.50000   0.75000   0.78229   0.00000  Uiso   1.00
Zn1471 Zn    0.75000   0.50000   0.88437   0.00000  Uiso   1.00
Zn1472 Zn    0.75000   0.50000   0.78229   0.00000  Uiso   1.00
N1473  N     0.50245   0.83282   0.71607   0.00000  Uiso   1.00
H1474  H     0.53229   0.84726   0.71755   0.00000  Uiso   1.00
C1475  C     0.96854   0.86637   0.71192   0.00000  Uiso   1.00
H1476  H     0.95624   0.87447   0.74608   0.00000  Uiso   1.00
H1477  H     0.94233   0.85381   0.69000   0.00000  Uiso   1.00
H1478  H     0.98079   0.89926   0.69799   0.00000  Uiso   1.00
N1479  N     0.50242   0.66718   0.95061   0.00000  Uiso   1.00
H1480  H     0.53225   0.65271   0.94914   0.00000  Uiso   1.00
C1481  C     0.96849   0.63365   0.95476   0.00000  Uiso   1.00
H1482  H     0.98070   0.60077   0.96875   0.00000  Uiso   1.00
H1483  H     0.95621   0.62553   0.92059   0.00000  Uiso   1.00
H1484  H     0.94227   0.64627   0.97665   0.00000  Uiso   1.00
N1485  N     0.99758   0.66718   0.71606   0.00000  Uiso   1.00
H1486  H     0.96775   0.65271   0.71753   0.00000  Uiso   1.00
C1487  C     0.53152   0.63365   0.71190   0.00000  Uiso   1.00
H1488  H     0.54379   0.62552   0.74607   0.00000  Uiso   1.00
H1489  H     0.55774   0.64627   0.69002   0.00000  Uiso   1.00
H1490  H     0.51930   0.60077   0.69790   0.00000  Uiso   1.00
N1491  N     0.99755   0.83282   0.95060   0.00000  Uiso   1.00
H1492  H     0.96771   0.84725   0.94910   0.00000  Uiso   1.00
C1493  C     0.53146   0.86638   0.95476   0.00000  Uiso   1.00
H1494  H     0.51921   0.89926   0.96872   0.00000  Uiso   1.00
H1495  H     0.54375   0.87450   0.92059   0.00000  Uiso   1.00
H1496  H     0.55768   0.85381   0.97667   0.00000  Uiso   1.00
N1497  N     0.75252   0.58281   0.71607   0.00000  Uiso   1.00
H1498  H     0.78238   0.59721   0.71754   0.00000  Uiso   1.00
C1499  C     0.71864   0.61642   0.71197   0.00000  Uiso   1.00
H1500  H     0.73094   0.64931   0.69808   0.00000  Uiso   1.00
H1501  H     0.70636   0.62448   0.74614   0.00000  Uiso   1.00
H1502  H     0.69242   0.60391   0.69003   0.00000  Uiso   1.00
N1503  N     0.75250   0.91718   0.95060   0.00000  Uiso   1.00
H1504  H     0.78234   0.90276   0.94915   0.00000  Uiso   1.00
C1505  C     0.71860   0.88361   0.95470   0.00000  Uiso   1.00
H1506  H     0.73086   0.85072   0.96865   0.00000  Uiso   1.00
H1507  H     0.70633   0.87551   0.92053   0.00000  Uiso   1.00
H1508  H     0.69236   0.89615   0.97661   0.00000  Uiso   1.00
N1509  N     0.74749   0.91718   0.71606   0.00000  Uiso   1.00
H1510  H     0.71765   0.90275   0.71747   0.00000  Uiso   1.00
C1511  C     0.78140   0.88362   0.71197   0.00000  Uiso   1.00
H1512  H     0.76914   0.85072   0.69804   0.00000  Uiso   1.00
H1513  H     0.79367   0.87554   0.74614   0.00000  Uiso   1.00
H1514  H     0.80762   0.89616   0.69005   0.00000  Uiso   1.00
N1515  N     0.74749   0.58281   0.95060   0.00000  Uiso   1.00
H1516  H     0.71763   0.59721   0.94912   0.00000  Uiso   1.00
C1517  C     0.78136   0.61642   0.95470   0.00000  Uiso   1.00
H1518  H     0.76907   0.64931   0.96860   0.00000  Uiso   1.00
H1519  H     0.79365   0.62448   0.92053   0.00000  Uiso   1.00
H1520  H     0.80759   0.60391   0.97664   0.00000  Uiso   1.00
Cl1521 Cl    0.88800   0.67733   0.73944   0.00000  Uiso   1.00
Cl1522 Cl    0.61924   0.81905   0.92246   0.00000  Uiso   1.00
Cl1523 Cl    0.61204   0.82262   0.73946   0.00000  Uiso   1.00
Cl1524 Cl    0.88072   0.68100   0.92244   0.00000  Uiso   1.00
Cl1525 Cl    0.61200   0.67733   0.92722   0.00000  Uiso   1.00
Cl1526 Cl    0.88076   0.81905   0.74420   0.00000  Uiso   1.00
Cl1527 Cl    0.88796   0.82262   0.92720   0.00000  Uiso   1.00
Cl1528 Cl    0.61928   0.68101   0.74423   0.00000  Uiso   1.00
Cl1529 Cl    0.63793   0.92741   0.73948   0.00000  Uiso   1.00
Cl1530 Cl    0.86918   0.56912   0.92250   0.00000  Uiso   1.00
Cl1531 Cl    0.86210   0.57254   0.73950   0.00000  Uiso   1.00
Cl1532 Cl    0.63079   0.93093   0.92248   0.00000  Uiso   1.00
Cl1533 Cl    0.86207   0.92742   0.92719   0.00000  Uiso   1.00
Cl1534 Cl    0.63082   0.56913   0.74416   0.00000  Uiso   1.00
Cl1535 Cl    0.63790   0.57254   0.92717   0.00000  Uiso   1.00
Cl1536 Cl    0.86921   0.93092   0.74419   0.00000  Uiso   1.00
loop_
_geom_bond_atom_site_label_1
_geom_bond_atom_site_label_2
_geom_bond_distance
_geom_bond_site_symmetry_2
_ccdc_geom_bond_type
C1     O48     1.296   .     A
C1     O45     1.286   .     A
C1     C36     1.446   .     S
C2     C35     1.446   .     S
C2     O46     1.296   .     A
C2     O47     1.286   .     A
C3     O49     1.286   .     A
C3     C34     1.446   .     S
C3     O52     1.296   .     A
C4     O51     1.286   .     A
C4     O50     1.296   .     A
C4     C33     1.446   .     S
C5     O56     1.296   .     A
C5     O53     1.286   .     A
C5     C40     1.446   .     S
C6     O55     1.286   .     A
C6     O54     1.295   .     A
C6     C39     1.446   .     S
C7     O60     1.296   .     A
C7     C38     1.446   .     S
C7     O57     1.286   .     A
C8     O59     1.286   .     A
C8     O58     1.295   .     A
C8     C37     1.446   .     S
C9     N170    1.372   .     A
C9     C1164   1.435   1_554 S
C9     N193    1.425   .     S
C10    N169    1.372   .     A
C10    C651    1.435   .     S
C10    N199    1.425   .     S
C11    C1162   1.435   1_454 S
C11    N42     1.372   .     S
C11    N205    1.425   1_455 S
C12    C649    1.435   1_455 S
C12    N41     1.372   .     S
C12    N211    1.425   1_455 S
C13    N89     1.425   .     S
C13    N44     1.372   .     A
C13    C1040   1.435   1_554 S
C14    N95     1.425   .     S
C14    C527    1.435   .     S
C14    N299    1.372   .     S
C15    N101    1.425   .     S
C15    C1038   1.435   1_554 S
C15    N300    1.372   .     S
C16    N107    1.425   .     S
C16    N43     1.372   .     A
C16    C525    1.435   .     S
C17    Cl113   1.773   .     S
C17    C27     1.381   .     A
C17    C34     1.408   .     A
C18    Cl114   1.768   .     S
C18    C28     1.378   .     A
C18    C33     1.399   .     A
C19    C33     1.408   .     A
C19    Cl115   1.773   .     S
C19    C25     1.381   .     A
C20    C34     1.399   .     A
C20    Cl116   1.768   .     S
C20    C26     1.378   .     A
C21    C36     1.408   .     A
C21    C31     1.381   .     A
C21    Cl117   1.773   .     S
C22    C35     1.399   .     A
C22    C32     1.378   .     A
C22    Cl118   1.768   .     S
C23    C29     1.381   .     A
C23    Cl119   1.773   .     S
C23    C35     1.408   .     A
C24    C36     1.399   .     A
C24    C30     1.378   .     A
C24    Cl120   1.768   .     S
C25    C38     1.408   .     A
C25    Cl121   1.773   .     S
C26    C37     1.399   .     A
C26    Cl122   1.768   .     S
C27    Cl123   1.773   .     S
C27    C37     1.408   .     A
C28    Cl124   1.768   .     S
C28    C38     1.399   .     A
C29    Cl125   1.773   .     S
C29    C40     1.408   .     A
C30    Cl126   1.768   .     S
C30    C39     1.399   .     A
C31    Cl127   1.773   .     S
C31    C39     1.408   .     A
C32    Cl128   1.768   .     S
C32    C40     1.399   .     A
N41    Zn61    2.010   .     S
N41    C138    1.372   1_455 A
N42    Zn62    2.010   .     S
N42    C137    1.372   1_455 A
N43    Zn63    2.010   .     S
N43    C270    1.372   1_545 S
N44    Zn64    2.010   .     S
N44    C271    1.372   1_545 S
O45    Zn61    1.993   .     S
O46    Zn190   1.993   .     S
O47    Zn189   1.993   .     S
O48    Zn62    1.993   .     S
O49    Zn190   1.993   .     S
O50    Zn61    1.993   .     S
O51    Zn62    1.993   .     S
O52    Zn189   1.993   .     S
O53    Zn319   1.993   .     S
O54    Zn64    1.993   .     S
O55    Zn63    1.993   .     S
O56    Zn320   1.993   .     S
O57    Zn320   1.993   .     S
O58    Zn63    1.993   .     S
O59    Zn64    1.993   .     S
O60    Zn319   1.993   .     S
Zn61   O180    1.993   1_455 S
Zn61   O175    1.993   1_455 S
Zn62   O174    1.993   1_455 S
Zn62   O177    1.993   1_455 S
Zn63   O316    1.993   1_545 S
Zn63   O309    1.993   1_545 S
Zn64   O313    1.993   1_545 S
Zn64   O312    1.993   1_545 S
N65    H66     1.027   .     S
N65    C137    1.425   1_455 S
N65    C195    1.447   1_455 S
C67    H68     1.106   .     S
C67    H69     1.109   .     S
C67    H70     1.107   .     S
C67    N193    1.447   .     S
N71    H72     1.027   .     S
N71    C138    1.425   1_455 S
N71    C201    1.447   1_455 S
C73    H74     1.107   .     S
C73    H75     1.106   .     S
C73    H76     1.109   .     S
C73    N199    1.447   .     S
N77    H78     1.027   .     S
N77    C139    1.425   .     S
N77    C207    1.447   .     S
C79    H82     1.107   .     S
C79    H81     1.109   .     S
C79    H80     1.106   .     S
C79    N205    1.447   1_455 S
N83    H84     1.027   .     S
N83    C140    1.425   .     S
N83    C213    1.447   .     S
C85    H86     1.107   .     S
C85    H87     1.106   .     S
C85    H88     1.109   .     S
C85    N211    1.447   1_455 S
N89    C91     1.447   .     S
N89    H90     1.027   .     S
C91    H92     1.107   .     S
C91    H93     1.106   .     S
C91    H94     1.109   .     S
N95    H96     1.027   .     S
N95    C97     1.447   .     S
C97    H98     1.107   .     S
C97    H99     1.106   .     S
C97    H100    1.109   .     S
N101   H102    1.027   .     S
N101   C103    1.447   .     S
C103   H105    1.106   .     S
C103   H106    1.109   .     S
C103   H104    1.107   .     S
N107   C109    1.447   .     S
N107   H108    1.027   .     S
C109   H111    1.106   .     S
C109   H112    1.109   .     S
C109   H110    1.107   .     S
C129   O176    1.296   .     A
C129   O173    1.286   .     A
C129   C164    1.446   .     S
C130   C163    1.446   .     S
C130   O174    1.296   .     A
C130   O175    1.286   .     A
C131   O177    1.286   .     A
C131   C162    1.446   .     S
C131   O180    1.296   .     A
C132   O179    1.286   .     A
C132   O178    1.296   .     A
C132   C161    1.446   .     S
C133   O184    1.296   .     A
C133   O181    1.286   .     A
C133   C168    1.446   .     S
C134   O183    1.286   .     A
C134   O182    1.295   .     A
C134   C167    1.446   .     S
C135   O188    1.296   .     A
C135   C166    1.446   .     S
C135   O185    1.286   .     A
C136   O187    1.286   .     A
C136   O186    1.295   .     A
C136   C165    1.446   .     S
C137   N42     1.372   1_655 A
C137   C1036   1.435   1_654 S
C137   N65     1.425   1_655 S
C138   N41     1.372   1_655 A
C138   C523    1.435   1_655 S
C138   N71     1.425   1_655 S
C139   C1034   1.435   1_554 S
C139   N170    1.372   .     S
C140   C521    1.435   .     S
C140   N169    1.372   .     S
C141   N217    1.425   .     S
C141   N172    1.372   .     A
C141   C1168   1.435   1_554 S
C142   N223    1.425   .     S
C142   C655    1.435   .     S
C142   N427    1.372   .     S
C143   N229    1.425   .     S
C143   C1166   1.435   1_554 S
C143   N428    1.372   .     S
C144   N235    1.425   .     S
C144   N171    1.372   .     A
C144   C653    1.435   .     S
C145   Cl241   1.773   .     S
C145   C155    1.381   .     A
C145   C162    1.408   .     A
C146   Cl242   1.768   .     S
C146   C156    1.378   .     A
C146   C161    1.399   .     A
C147   C161    1.408   .     A
C147   Cl243   1.773   .     S
C147   C153    1.381   .     A
C148   C162    1.399   .     A
C148   Cl244   1.768   .     S
C148   C154    1.378   .     A
C149   C164    1.408   .     A
C149   C159    1.381   .     A
C149   Cl245   1.773   .     S
C150   C163    1.399   .     A
C150   C160    1.378   .     A
C150   Cl246   1.768   .     S
C151   C157    1.381   .     A
C151   Cl247   1.773   .     S
C151   C163    1.408   .     A
C152   C164    1.399   .     A
C152   C158    1.378   .     A
C152   Cl248   1.768   .     S
C153   C166    1.408   .     A
C153   Cl249   1.773   .     S
C154   C165    1.399   .     A
C154   Cl250   1.768   .     S
C155   Cl251   1.773   .     S
C155   C165    1.408   .     A
C156   Cl252   1.768   .     S
C156   C166    1.399   .     A
C157   Cl253   1.773   .     S
C157   C168    1.408   .     A
C158   Cl254   1.768   .     S
C158   C167    1.399   .     A
C159   Cl255   1.773   .     S
C159   C167    1.408   .     A
C160   Cl256   1.768   .     S
C160   C168    1.399   .     A
N169   Zn189   2.010   .     S
N170   Zn190   2.010   .     S
N171   Zn191   2.010   .     S
N171   C398    1.372   1_545 S
N172   Zn192   2.010   .     S
N172   C399    1.372   1_545 S
O173   Zn189   1.993   .     S
O174   Zn62    1.993   1_655 S
O175   Zn61    1.993   1_655 S
O176   Zn190   1.993   .     S
O177   Zn62    1.993   1_655 S
O178   Zn189   1.993   .     S
O179   Zn190   1.993   .     S
O180   Zn61    1.993   1_655 S
O181   Zn447   1.993   .     S
O182   Zn192   1.993   .     S
O183   Zn191   1.993   .     S
O184   Zn448   1.993   .     S
O185   Zn448   1.993   .     S
O186   Zn191   1.993   .     S
O187   Zn192   1.993   .     S
O188   Zn447   1.993   .     S
Zn191  O444    1.993   1_545 S
Zn191  O437    1.993   1_545 S
Zn192  O441    1.993   1_545 S
Zn192  O440    1.993   1_545 S
N193   H194    1.027   .     S
C195   H196    1.106   .     S
C195   H197    1.109   .     S
C195   H198    1.107   .     S
C195   N65     1.447   1_655 S
N199   H200    1.027   .     S
C201   H202    1.107   .     S
C201   H203    1.106   .     S
C201   H204    1.109   .     S
C201   N71     1.447   1_655 S
N205   H206    1.027   .     S
N205   C11     1.425   1_655 S
N205   C79     1.447   1_655 S
C207   H210    1.107   .     S
C207   H209    1.109   .     S
C207   H208    1.106   .     S
N211   H212    1.027   .     S
N211   C12     1.425   1_655 S
N211   C85     1.447   1_655 S
C213   H214    1.107   .     S
C213   H215    1.106   .     S
C213   H216    1.109   .     S
N217   C219    1.447   .     S
N217   H218    1.027   .     S
C219   H220    1.107   .     S
C219   H221    1.106   .     S
C219   H222    1.109   .     S
N223   H224    1.027   .     S
N223   C225    1.447   .     S
C225   H226    1.107   .     S
C225   H227    1.106   .     S
C225   H228    1.109   .     S
N229   H230    1.027   .     S
N229   C231    1.447   .     S
C231   H233    1.106   .     S
C231   H234    1.109   .     S
C231   H232    1.107   .     S
N235   C237    1.447   .     S
N235   H236    1.027   .     S
C237   H239    1.106   .     S
C237   H240    1.109   .     S
C237   H238    1.107   .     S
C257   O304    1.296   .     A
C257   O301    1.286   .     A
C257   C292    1.446   .     S
C258   C291    1.446   .     S
C258   O302    1.296   .     A
C258   O303    1.286   .     A
C259   O305    1.286   .     A
C259   C290    1.446   .     S
C259   O308    1.296   .     A
C260   O307    1.286   .     A
C260   O306    1.296   .     A
C260   C289    1.446   .     S
C261   O312    1.296   .     A
C261   O309    1.286   .     A
C261   C296    1.446   .     S
C262   O311    1.286   .     A
C262   O310    1.295   .     A
C262   C295    1.446   .     S
C263   O316    1.296   .     A
C263   C294    1.446   .     S
C263   O313    1.286   .     A
C264   O315    1.286   .     A
C264   O314    1.295   .     A
C264   C293    1.446   .     S
C265   N426    1.372   .     A
C265   C1420   1.435   1_554 S
C265   N449    1.425   .     S
C266   N425    1.372   .     A
C266   C907    1.435   .     S
C266   N455    1.425   .     S
C267   C1418   1.435   1_454 S
C267   N298    1.372   .     S
C267   N461    1.425   1_455 S
C268   C905    1.435   1_455 S
C268   N297    1.372   .     S
C268   N467    1.425   1_455 S
C269   N345    1.425   .     S
C269   N300    1.372   .     A
C269   C1296   1.435   1_554 S
C270   N351    1.425   .     S
C270   C783    1.435   .     S
C270   N43     1.372   1_565 S
C271   N357    1.425   .     S
C271   C1294   1.435   1_554 S
C271   N44     1.372   1_565 S
C272   N363    1.425   .     S
C272   N299    1.372   .     A
C272   C781    1.435   .     S
C273   Cl369   1.773   .     S
C273   C283    1.381   .     A
C273   C290    1.408   .     A
C274   Cl370   1.768   .     S
C274   C284    1.378   .     A
C274   C289    1.399   .     A
C275   C289    1.408   .     A
C275   Cl371   1.773   .     S
C275   C281    1.381   .     A
C276   C290    1.399   .     A
C276   Cl372   1.768   .     S
C276   C282    1.378   .     A
C277   C292    1.408   .     A
C277   C287    1.381   .     A
C277   Cl373   1.773   .     S
C278   C291    1.399   .     A
C278   C288    1.378   .     A
C278   Cl374   1.768   .     S
C279   C285    1.381   .     A
C279   Cl375   1.773   .     S
C279   C291    1.408   .     A
C280   C292    1.399   .     A
C280   C286    1.378   .     A
C280   Cl376   1.768   .     S
C281   C294    1.408   .     A
C281   Cl377   1.773   .     S
C282   C293    1.399   .     A
C282   Cl378   1.768   .     S
C283   Cl379   1.773   .     S
C283   C293    1.408   .     A
C284   Cl380   1.768   .     S
C284   C294    1.399   .     A
C285   Cl381   1.773   .     S
C285   C296    1.408   .     A
C286   Cl382   1.768   .     S
C286   C295    1.399   .     A
C287   Cl383   1.773   .     S
C287   C295    1.408   .     A
C288   Cl384   1.768   .     S
C288   C296    1.399   .     A
N297   Zn317   2.010   .     S
N297   C394    1.372   1_455 A
N298   Zn318   2.010   .     S
N298   C393    1.372   1_455 A
N299   Zn319   2.010   .     S
N300   Zn320   2.010   .     S
O301   Zn317   1.993   .     S
O302   Zn446   1.993   .     S
O303   Zn445   1.993   .     S
O304   Zn318   1.993   .     S
O305   Zn446   1.993   .     S
O306   Zn317   1.993   .     S
O307   Zn318   1.993   .     S
O308   Zn445   1.993   .     S
O309   Zn63    1.993   1_565 S
O310   Zn320   1.993   .     S
O311   Zn319   1.993   .     S
O312   Zn64    1.993   1_565 S
O313   Zn64    1.993   1_565 S
O314   Zn319   1.993   .     S
O315   Zn320   1.993   .     S
O316   Zn63    1.993   1_565 S
Zn317  O436    1.993   1_455 S
Zn317  O431    1.993   1_455 S
Zn318  O430    1.993   1_455 S
Zn318  O433    1.993   1_455 S
N321   H322    1.027   .     S
N321   C393    1.425   1_455 S
N321   C451    1.447   1_455 S
C323   H324    1.106   .     S
C323   H325    1.109   .     S
C323   H326    1.107   .     S
C323   N449    1.447   .     S
N327   H328    1.027   .     S
N327   C394    1.425   1_455 S
N327   C457    1.447   1_455 S
C329   H330    1.107   .     S
C329   H331    1.106   .     S
C329   H332    1.109   .     S
C329   N455    1.447   .     S
N333   H334    1.027   .     S
N333   C395    1.425   .     S
N333   C463    1.447   .     S
C335   H338    1.107   .     S
C335   H337    1.109   .     S
C335   H336    1.106   .     S
C335   N461    1.447   1_455 S
N339   H340    1.027   .     S
N339   C396    1.425   .     S
N339   C469    1.447   .     S
C341   H342    1.107   .     S
C341   H343    1.106   .     S
C341   H344    1.109   .     S
C341   N467    1.447   1_455 S
N345   C347    1.447   .     S
N345   H346    1.027   .     S
C347   H348    1.107   .     S
C347   H349    1.106   .     S
C347   H350    1.109   .     S
N351   H352    1.027   .     S
N351   C353    1.447   .     S
C353   H354    1.107   .     S
C353   H355    1.106   .     S
C353   H356    1.109   .     S
N357   H358    1.027   .     S
N357   C359    1.447   .     S
C359   H361    1.106   .     S
C359   H362    1.109   .     S
C359   H360    1.107   .     S
N363   C365    1.447   .     S
N363   H364    1.027   .     S
C365   H367    1.106   .     S
C365   H368    1.109   .     S
C365   H366    1.107   .     S
C385   O432    1.296   .     A
C385   O429    1.286   .     A
C385   C420    1.446   .     S
C386   C419    1.446   .     S
C386   O430    1.296   .     A
C386   O431    1.286   .     A
C387   O433    1.286   .     A
C387   C418    1.446   .     S
C387   O436    1.296   .     A
C388   O435    1.286   .     A
C388   O434    1.296   .     A
C388   C417    1.446   .     S
C389   O440    1.296   .     A
C389   O437    1.286   .     A
C389   C424    1.446   .     S
C390   O439    1.286   .     A
C390   O438    1.295   .     A
C390   C423    1.446   .     S
C391   O444    1.296   .     A
C391   C422    1.446   .     S
C391   O441    1.286   .     A
C392   O443    1.286   .     A
C392   O442    1.295   .     A
C392   C421    1.446   .     S
C393   N298    1.372   1_655 A
C393   C1292   1.435   1_654 S
C393   N321    1.425   1_655 S
C394   N297    1.372   1_655 A
C394   C779    1.435   1_655 S
C394   N327    1.425   1_655 S
C395   C1290   1.435   1_554 S
C395   N426    1.372   .     S
C396   C777    1.435   .     S
C396   N425    1.372   .     S
C397   N473    1.425   .     S
C397   N428    1.372   .     A
C397   C1424   1.435   1_554 S
C398   N479    1.425   .     S
C398   C911    1.435   .     S
C398   N171    1.372   1_565 S
C399   N485    1.425   .     S
C399   C1422   1.435   1_554 S
C399   N172    1.372   1_565 S
C400   N491    1.425   .     S
C400   N427    1.372   .     A
C400   C909    1.435   .     S
C401   Cl497   1.773   .     S
C401   C411    1.381   .     A
C401   C418    1.408   .     A
C402   Cl498   1.768   .     S
C402   C412    1.378   .     A
C402   C417    1.399   .     A
C403   C417    1.408   .     A
C403   Cl499   1.773   .     S
C403   C409    1.381   .     A
C404   C418    1.399   .     A
C404   Cl500   1.768   .     S
C404   C410    1.378   .     A
C405   C420    1.408   .     A
C405   C415    1.381   .     A
C405   Cl501   1.773   .     S
C406   C419    1.399   .     A
C406   C416    1.378   .     A
C406   Cl502   1.768   .     S
C407   C413    1.381   .     A
C407   Cl503   1.773   .     S
C407   C419    1.408   .     A
C408   C420    1.399   .     A
C408   C414    1.378   .     A
C408   Cl504   1.768   .     S
C409   C422    1.408   .     A
C409   Cl505   1.773   .     S
C410   C421    1.399   .     A
C410   Cl506   1.768   .     S
C411   Cl507   1.773   .     S
C411   C421    1.408   .     A
C412   Cl508   1.768   .     S
C412   C422    1.399   .     A
C413   Cl509   1.773   .     S
C413   C424    1.408   .     A
C414   Cl510   1.768   .     S
C414   C423    1.399   .     A
C415   Cl511   1.773   .     S
C415   C423    1.408   .     A
C416   Cl512   1.768   .     S
C416   C424    1.399   .     A
N425   Zn445   2.010   .     S
N426   Zn446   2.010   .     S
N427   Zn447   2.010   .     S
N428   Zn448   2.010   .     S
O429   Zn445   1.993   .     S
O430   Zn318   1.993   1_655 S
O431   Zn317   1.993   1_655 S
O432   Zn446   1.993   .     S
O433   Zn318   1.993   1_655 S
O434   Zn445   1.993   .     S
O435   Zn446   1.993   .     S
O436   Zn317   1.993   1_655 S
O437   Zn191   1.993   1_565 S
O438   Zn448   1.993   .     S
O439   Zn447   1.993   .     S
O440   Zn192   1.993   1_565 S
O441   Zn192   1.993   1_565 S
O442   Zn447   1.993   .     S
O443   Zn448   1.993   .     S
O444   Zn191   1.993   1_565 S
N449   H450    1.027   .     S
C451   H452    1.106   .     S
C451   H453    1.109   .     S
C451   H454    1.107   .     S
C451   N321    1.447   1_655 S
N455   H456    1.027   .     S
C457   H458    1.107   .     S
C457   H459    1.106   .     S
C457   H460    1.109   .     S
C457   N327    1.447   1_655 S
N461   H462    1.027   .     S
N461   C267    1.425   1_655 S
N461   C335    1.447   1_655 S
C463   H466    1.107   .     S
C463   H465    1.109   .     S
C463   H464    1.106   .     S
N467   H468    1.027   .     S
N467   C268    1.425   1_655 S
N467   C341    1.447   1_655 S
C469   H470    1.107   .     S
C469   H471    1.106   .     S
C469   H472    1.109   .     S
N473   C475    1.447   .     S
N473   H474    1.027   .     S
C475   H476    1.107   .     S
C475   H477    1.106   .     S
C475   H478    1.109   .     S
N479   H480    1.027   .     S
N479   C481    1.447   .     S
C481   H482    1.107   .     S
C481   H483    1.106   .     S
C481   H484    1.109   .     S
N485   H486    1.027   .     S
N485   C487    1.447   .     S
C487   H489    1.106   .     S
C487   H490    1.109   .     S
C487   H488    1.107   .     S
N491   C493    1.447   .     S
N491   H492    1.027   .     S
C493   H495    1.106   .     S
C493   H496    1.109   .     S
C493   H494    1.107   .     S
C513   O560    1.296   .     A
C513   O557    1.286   .     A
C513   C548    1.446   .     S
C514   C547    1.446   .     S
C514   O558    1.296   .     A
C514   O559    1.286   .     A
C515   O561    1.286   .     A
C515   C546    1.446   .     S
C515   O564    1.296   .     A
C516   O563    1.286   .     A
C516   O562    1.296   .     A
C516   C545    1.446   .     S
C517   O568    1.296   .     A
C517   O565    1.286   .     A
C517   C552    1.446   .     S
C518   O567    1.286   .     A
C518   O566    1.295   .     A
C518   C551    1.446   .     S
C519   O572    1.296   .     A
C519   C550    1.446   .     S
C519   O569    1.286   .     A
C520   O571    1.286   .     A
C520   O570    1.295   .     A
C520   C549    1.446   .     S
C521   N682    1.372   .     A
C521   N705    1.425   .     S
C522   N681    1.372   .     A
C522   C1163   1.435   .     S
C522   N711    1.425   .     S
C523   C138    1.435   1_455 S
C523   N554    1.372   .     S
C523   N717    1.425   1_455 S
C524   C1161   1.435   1_455 S
C524   N553    1.372   .     S
C524   N723    1.425   1_455 S
C525   N601    1.425   .     S
C525   N556    1.372   .     A
C526   N607    1.425   .     S
C526   C1039   1.435   .     S
C526   N811    1.372   .     S
C527   N613    1.425   .     S
C527   N812    1.372   .     S
C528   N619    1.425   .     S
C528   N555    1.372   .     A
C528   C1037   1.435   .     S
C529   Cl625   1.773   .     S
C529   C539    1.381   .     A
C529   C546    1.408   .     A
C530   Cl626   1.768   .     S
C530   C540    1.378   .     A
C530   C545    1.399   .     A
C531   C545    1.408   .     A
C531   Cl627   1.773   .     S
C531   C537    1.381   .     A
C532   C546    1.399   .     A
C532   Cl628   1.768   .     S
C532   C538    1.378   .     A
C533   C548    1.408   .     A
C533   C543    1.381   .     A
C533   Cl629   1.773   .     S
C534   C547    1.399   .     A
C534   C544    1.378   .     A
C534   Cl630   1.768   .     S
C535   C541    1.381   .     A
C535   Cl631   1.773   .     S
C535   C547    1.408   .     A
C536   C548    1.399   .     A
C536   C542    1.378   .     A
C536   Cl632   1.768   .     S
C537   C550    1.408   .     A
C537   Cl633   1.773   .     S
C538   C549    1.399   .     A
C538   Cl634   1.768   .     S
C539   Cl635   1.773   .     S
C539   C549    1.408   .     A
C540   Cl636   1.768   .     S
C540   C550    1.399   .     A
C541   Cl637   1.773   .     S
C541   C552    1.408   .     A
C542   Cl638   1.768   .     S
C542   C551    1.399   .     A
C543   Cl639   1.773   .     S
C543   C551    1.408   .     A
C544   Cl640   1.768   .     S
C544   C552    1.399   .     A
N553   Zn573   2.010   .     S
N553   C650    1.372   1_455 A
N554   Zn574   2.010   .     S
N554   C649    1.372   1_455 A
N555   Zn575   2.010   .     S
N555   C782    1.372   1_545 S
N556   Zn576   2.010   .     S
N556   C783    1.372   1_545 S
O557   Zn573   1.993   .     S
O558   Zn702   1.993   .     S
O559   Zn701   1.993   .     S
O560   Zn574   1.993   .     S
O561   Zn702   1.993   .     S
O562   Zn573   1.993   .     S
O563   Zn574   1.993   .     S
O564   Zn701   1.993   .     S
O565   Zn831   1.993   .     S
O566   Zn576   1.993   .     S
O567   Zn575   1.993   .     S
O568   Zn832   1.993   .     S
O569   Zn832   1.993   .     S
O570   Zn575   1.993   .     S
O571   Zn576   1.993   .     S
O572   Zn831   1.993   .     S
Zn573  O692    1.993   1_455 S
Zn573  O687    1.993   1_455 S
Zn574  O686    1.993   1_455 S
Zn574  O689    1.993   1_455 S
Zn575  O828    1.993   1_545 S
Zn575  O821    1.993   1_545 S
Zn576  O825    1.993   1_545 S
Zn576  O824    1.993   1_545 S
N577   H578    1.027   .     S
N577   C649    1.425   1_455 S
N577   C707    1.447   1_455 S
C579   H580    1.106   .     S
C579   H581    1.109   .     S
C579   H582    1.107   .     S
C579   N705    1.447   .     S
N583   H584    1.027   .     S
N583   C650    1.425   1_455 S
N583   C713    1.447   1_455 S
C585   H586    1.107   .     S
C585   H587    1.106   .     S
C585   H588    1.109   .     S
C585   N711    1.447   .     S
N589   H590    1.027   .     S
N589   C651    1.425   .     S
N589   C719    1.447   .     S
C591   H594    1.107   .     S
C591   H593    1.109   .     S
C591   H592    1.106   .     S
C591   N717    1.447   1_455 S
N595   H596    1.027   .     S
N595   C652    1.425   .     S
N595   C725    1.447   .     S
C597   H598    1.107   .     S
C597   H599    1.106   .     S
C597   H600    1.109   .     S
C597   N723    1.447   1_455 S
N601   C603    1.447   .     S
N601   H602    1.027   .     S
C603   H604    1.107   .     S
C603   H605    1.106   .     S
C603   H606    1.109   .     S
N607   H608    1.027   .     S
N607   C609    1.447   .     S
C609   H610    1.107   .     S
C609   H611    1.106   .     S
C609   H612    1.109   .     S
N613   H614    1.027   .     S
N613   C615    1.447   .     S
C615   H617    1.106   .     S
C615   H618    1.109   .     S
C615   H616    1.107   .     S
N619   C621    1.447   .     S
N619   H620    1.027   .     S
C621   H623    1.106   .     S
C621   H624    1.109   .     S
C621   H622    1.107   .     S
C641   O688    1.296   .     A
C641   O685    1.286   .     A
C641   C676    1.446   .     S
C642   C675    1.446   .     S
C642   O686    1.296   .     A
C642   O687    1.286   .     A
C643   O689    1.286   .     A
C643   C674    1.446   .     S
C643   O692    1.296   .     A
C644   O691    1.286   .     A
C644   O690    1.296   .     A
C644   C673    1.446   .     S
C645   O696    1.296   .     A
C645   O693    1.286   .     A
C645   C680    1.446   .     S
C646   O695    1.286   .     A
C646   O694    1.295   .     A
C646   C679    1.446   .     S
C647   O700    1.296   .     A
C647   C678    1.446   .     S
C647   O697    1.286   .     A
C648   O699    1.286   .     A
C648   O698    1.295   .     A
C648   C677    1.446   .     S
C649   N554    1.372   1_655 A
C649   C12     1.435   1_655 S
C649   N577    1.425   1_655 S
C650   N553    1.372   1_655 A
C650   C1035   1.435   1_655 S
C650   N583    1.425   1_655 S
C651   N682    1.372   .     S
C652   C1033   1.435   .     S
C652   N681    1.372   .     S
C653   N729    1.425   .     S
C653   N684    1.372   .     A
C654   N735    1.425   .     S
C654   C1167   1.435   .     S
C654   N939    1.372   .     S
C655   N741    1.425   .     S
C655   N940    1.372   .     S
C656   N747    1.425   .     S
C656   N683    1.372   .     A
C656   C1165   1.435   .     S
C657   Cl753   1.773   .     S
C657   C667    1.381   .     A
C657   C674    1.408   .     A
C658   Cl754   1.768   .     S
C658   C668    1.378   .     A
C658   C673    1.399   .     A
C659   C673    1.408   .     A
C659   Cl755   1.773   .     S
C659   C665    1.381   .     A
C660   C674    1.399   .     A
C660   Cl756   1.768   .     S
C660   C666    1.378   .     A
C661   C676    1.408   .     A
C661   C671    1.381   .     A
C661   Cl757   1.773   .     S
C662   C675    1.399   .     A
C662   C672    1.378   .     A
C662   Cl758   1.768   .     S
C663   C669    1.381   .     A
C663   Cl759   1.773   .     S
C663   C675    1.408   .     A
C664   C676    1.399   .     A
C664   C670    1.378   .     A
C664   Cl760   1.768   .     S
C665   C678    1.408   .     A
C665   Cl761   1.773   .     S
C666   C677    1.399   .     A
C666   Cl762   1.768   .     S
C667   Cl763   1.773   .     S
C667   C677    1.408   .     A
C668   Cl764   1.768   .     S
C668   C678    1.399   .     A
C669   Cl765   1.773   .     S
C669   C680    1.408   .     A
C670   Cl766   1.768   .     S
C670   C679    1.399   .     A
C671   Cl767   1.773   .     S
C671   C679    1.408   .     A
C672   Cl768   1.768   .     S
C672   C680    1.399   .     A
N681   Zn701   2.010   .     S
N682   Zn702   2.010   .     S
N683   Zn703   2.010   .     S
N683   C910    1.372   1_545 S
N684   Zn704   2.010   .     S
N684   C911    1.372   1_545 S
O685   Zn701   1.993   .     S
O686   Zn574   1.993   1_655 S
O687   Zn573   1.993   1_655 S
O688   Zn702   1.993   .     S
O689   Zn574   1.993   1_655 S
O690   Zn701   1.993   .     S
O691   Zn702   1.993   .     S
O692   Zn573   1.993   1_655 S
O693   Zn959   1.993   .     S
O694   Zn704   1.993   .     S
O695   Zn703   1.993   .     S
O696   Zn960   1.993   .     S
O697   Zn960   1.993   .     S
O698   Zn703   1.993   .     S
O699   Zn704   1.993   .     S
O700   Zn959   1.993   .     S
Zn703  O956    1.993   1_545 S
Zn703  O949    1.993   1_545 S
Zn704  O953    1.993   1_545 S
Zn704  O952    1.993   1_545 S
N705   H706    1.027   .     S
C707   H708    1.106   .     S
C707   H709    1.109   .     S
C707   H710    1.107   .     S
C707   N577    1.447   1_655 S
N711   H712    1.027   .     S
C713   H714    1.107   .     S
C713   H715    1.106   .     S
C713   H716    1.109   .     S
C713   N583    1.447   1_655 S
N717   H718    1.027   .     S
N717   C523    1.425   1_655 S
N717   C591    1.447   1_655 S
C719   H722    1.107   .     S
C719   H721    1.109   .     S
C719   H720    1.106   .     S
N723   H724    1.027   .     S
N723   C524    1.425   1_655 S
N723   C597    1.447   1_655 S
C725   H726    1.107   .     S
C725   H727    1.106   .     S
C725   H728    1.109   .     S
N729   C731    1.447   .     S
N729   H730    1.027   .     S
C731   H732    1.107   .     S
C731   H733    1.106   .     S
C731   H734    1.109   .     S
N735   H736    1.027   .     S
N735   C737    1.447   .     S
C737   H738    1.107   .     S
C737   H739    1.106   .     S
C737   H740    1.109   .     S
N741   H742    1.027   .     S
N741   C743    1.447   .     S
C743   H745    1.106   .     S
C743   H746    1.109   .     S
C743   H744    1.107   .     S
N747   C749    1.447   .     S
N747   H748    1.027   .     S
C749   H751    1.106   .     S
C749   H752    1.109   .     S
C749   H750    1.107   .     S
C769   O816    1.296   .     A
C769   O813    1.286   .     A
C769   C804    1.446   .     S
C770   C803    1.446   .     S
C770   O814    1.296   .     A
C770   O815    1.286   .     A
C771   O817    1.286   .     A
C771   C802    1.446   .     S
C771   O820    1.296   .     A
C772   O819    1.286   .     A
C772   O818    1.296   .     A
C772   C801    1.446   .     S
C773   O824    1.296   .     A
C773   O821    1.286   .     A
C773   C808    1.446   .     S
C774   O823    1.286   .     A
C774   O822    1.295   .     A
C774   C807    1.446   .     S
C775   O828    1.296   .     A
C775   C806    1.446   .     S
C775   O825    1.286   .     A
C776   O827    1.286   .     A
C776   O826    1.295   .     A
C776   C805    1.446   .     S
C777   N938    1.372   .     A
C777   N961    1.425   .     S
C778   N937    1.372   .     A
C778   C1419   1.435   .     S
C778   N967    1.425   .     S
C779   C394    1.435   1_455 S
C779   N810    1.372   .     S
C779   N973    1.425   1_455 S
C780   C1417   1.435   1_455 S
C780   N809    1.372   .     S
C780   N979    1.425   1_455 S
C781   N857    1.425   .     S
C781   N812    1.372   .     A
C782   N863    1.425   .     S
C782   C1295   1.435   .     S
C782   N555    1.372   1_565 S
C783   N869    1.425   .     S
C783   N556    1.372   1_565 S
C784   N875    1.425   .     S
C784   N811    1.372   .     A
C784   C1293   1.435   .     S
C785   Cl881   1.773   .     S
C785   C795    1.381   .     A
C785   C802    1.408   .     A
C786   Cl882   1.768   .     S
C786   C796    1.378   .     A
C786   C801    1.399   .     A
C787   C801    1.408   .     A
C787   Cl883   1.773   .     S
C787   C793    1.381   .     A
C788   C802    1.399   .     A
C788   Cl884   1.768   .     S
C788   C794    1.378   .     A
C789   C804    1.408   .     A
C789   C799    1.381   .     A
C789   Cl885   1.773   .     S
C790   C803    1.399   .     A
C790   C800    1.378   .     A
C790   Cl886   1.768   .     S
C791   C797    1.381   .     A
C791   Cl887   1.773   .     S
C791   C803    1.408   .     A
C792   C804    1.399   .     A
C792   C798    1.378   .     A
C792   Cl888   1.768   .     S
C793   C806    1.408   .     A
C793   Cl889   1.773   .     S
C794   C805    1.399   .     A
C794   Cl890   1.768   .     S
C795   Cl891   1.773   .     S
C795   C805    1.408   .     A
C796   Cl892   1.768   .     S
C796   C806    1.399   .     A
C797   Cl893   1.773   .     S
C797   C808    1.408   .     A
C798   Cl894   1.768   .     S
C798   C807    1.399   .     A
C799   Cl895   1.773   .     S
C799   C807    1.408   .     A
C800   Cl896   1.768   .     S
C800   C808    1.399   .     A
N809   Zn829   2.010   .     S
N809   C906    1.372   1_455 A
N810   Zn830   2.010   .     S
N810   C905    1.372   1_455 A
N811   Zn831   2.010   .     S
N812   Zn832   2.010   .     S
O813   Zn829   1.993   .     S
O814   Zn958   1.993   .     S
O815   Zn957   1.993   .     S
O816   Zn830   1.993   .     S
O817   Zn958   1.993   .     S
O818   Zn829   1.993   .     S
O819   Zn830   1.993   .     S
O820   Zn957   1.993   .     S
O821   Zn575   1.993   1_565 S
O822   Zn832   1.993   .     S
O823   Zn831   1.993   .     S
O824   Zn576   1.993   1_565 S
O825   Zn576   1.993   1_565 S
O826   Zn831   1.993   .     S
O827   Zn832   1.993   .     S
O828   Zn575   1.993   1_565 S
Zn829  O948    1.993   1_455 S
Zn829  O943    1.993   1_455 S
Zn830  O942    1.993   1_455 S
Zn830  O945    1.993   1_455 S
N833   H834    1.027   .     S
N833   C905    1.425   1_455 S
N833   C963    1.447   1_455 S
C835   H836    1.106   .     S
C835   H837    1.109   .     S
C835   H838    1.107   .     S
C835   N961    1.447   .     S
N839   H840    1.027   .     S
N839   C906    1.425   1_455 S
N839   C969    1.447   1_455 S
C841   H842    1.107   .     S
C841   H843    1.106   .     S
C841   H844    1.109   .     S
C841   N967    1.447   .     S
N845   H846    1.027   .     S
N845   C907    1.425   .     S
N845   C975    1.447   .     S
C847   H850    1.107   .     S
C847   H849    1.109   .     S
C847   H848    1.106   .     S
C847   N973    1.447   1_455 S
N851   H852    1.027   .     S
N851   C908    1.425   .     S
N851   C981    1.447   .     S
C853   H854    1.107   .     S
C853   H855    1.106   .     S
C853   H856    1.109   .     S
C853   N979    1.447   1_455 S
N857   C859    1.447   .     S
N857   H858    1.027   .     S
C859   H860    1.107   .     S
C859   H861    1.106   .     S
C859   H862    1.109   .     S
N863   H864    1.027   .     S
N863   C865    1.447   .     S
C865   H866    1.107   .     S
C865   H867    1.106   .     S
C865   H868    1.109   .     S
N869   H870    1.027   .     S
N869   C871    1.447   .     S
C871   H873    1.106   .     S
C871   H874    1.109   .     S
C871   H872    1.107   .     S
N875   C877    1.447   .     S
N875   H876    1.027   .     S
C877   H879    1.106   .     S
C877   H880    1.109   .     S
C877   H878    1.107   .     S
C897   O944    1.296   .     A
C897   O941    1.286   .     A
C897   C932    1.446   .     S
C898   C931    1.446   .     S
C898   O942    1.296   .     A
C898   O943    1.286   .     A
C899   O945    1.286   .     A
C899   C930    1.446   .     S
C899   O948    1.296   .     A
C900   O947    1.286   .     A
C900   O946    1.296   .     A
C900   C929    1.446   .     S
C901   O952    1.296   .     A
C901   O949    1.286   .     A
C901   C936    1.446   .     S
C902   O951    1.286   .     A
C902   O950    1.295   .     A
C902   C935    1.446   .     S
C903   O956    1.296   .     A
C903   C934    1.446   .     S
C903   O953    1.286   .     A
C904   O955    1.286   .     A
C904   O954    1.295   .     A
C904   C933    1.446   .     S
C905   N810    1.372   1_655 A
C905   C268    1.435   1_655 S
C905   N833    1.425   1_655 S
C906   N809    1.372   1_655 A
C906   C1291   1.435   1_655 S
C906   N839    1.425   1_655 S
C907   N938    1.372   .     S
C908   C1289   1.435   .     S
C908   N937    1.372   .     S
C909   N985    1.425   .     S
C909   N940    1.372   .     A
C910   N991    1.425   .     S
C910   C1423   1.435   .     S
C910   N683    1.372   1_565 S
C911   N997    1.425   .     S
C911   N684    1.372   1_565 S
C912   N1003   1.425   .     S
C912   N939    1.372   .     A
C912   C1421   1.435   .     S
C913   Cl1009  1.773   .     S
C913   C923    1.381   .     A
C913   C930    1.408   .     A
C914   Cl1010  1.768   .     S
C914   C924    1.378   .     A
C914   C929    1.399   .     A
C915   C929    1.408   .     A
C915   Cl1011  1.773   .     S
C915   C921    1.381   .     A
C916   C930    1.399   .     A
C916   Cl1012  1.768   .     S
C916   C922    1.378   .     A
C917   C932    1.408   .     A
C917   C927    1.381   .     A
C917   Cl1013  1.773   .     S
C918   C931    1.399   .     A
C918   C928    1.378   .     A
C918   Cl1014  1.768   .     S
C919   C925    1.381   .     A
C919   Cl1015  1.773   .     S
C919   C931    1.408   .     A
C920   C932    1.399   .     A
C920   C926    1.378   .     A
C920   Cl1016  1.768   .     S
C921   C934    1.408   .     A
C921   Cl1017  1.773   .     S
C922   C933    1.399   .     A
C922   Cl1018  1.768   .     S
C923   Cl1019  1.773   .     S
C923   C933    1.408   .     A
C924   Cl1020  1.768   .     S
C924   C934    1.399   .     A
C925   Cl1021  1.773   .     S
C925   C936    1.408   .     A
C926   Cl1022  1.768   .     S
C926   C935    1.399   .     A
C927   Cl1023  1.773   .     S
C927   C935    1.408   .     A
C928   Cl1024  1.768   .     S
C928   C936    1.399   .     A
N937   Zn957   2.010   .     S
N938   Zn958   2.010   .     S
N939   Zn959   2.010   .     S
N940   Zn960   2.010   .     S
O941   Zn957   1.993   .     S
O942   Zn830   1.993   1_655 S
O943   Zn829   1.993   1_655 S
O944   Zn958   1.993   .     S
O945   Zn830   1.993   1_655 S
O946   Zn957   1.993   .     S
O947   Zn958   1.993   .     S
O948   Zn829   1.993   1_655 S
O949   Zn703   1.993   1_565 S
O950   Zn960   1.993   .     S
O951   Zn959   1.993   .     S
O952   Zn704   1.993   1_565 S
O953   Zn704   1.993   1_565 S
O954   Zn959   1.993   .     S
O955   Zn960   1.993   .     S
O956   Zn703   1.993   1_565 S
N961   H962    1.027   .     S
C963   H964    1.106   .     S
C963   H965    1.109   .     S
C963   H966    1.107   .     S
C963   N833    1.447   1_655 S
N967   H968    1.027   .     S
C969   H970    1.107   .     S
C969   H971    1.106   .     S
C969   H972    1.109   .     S
C969   N839    1.447   1_655 S
N973   H974    1.027   .     S
N973   C779    1.425   1_655 S
N973   C847    1.447   1_655 S
C975   H978    1.107   .     S
C975   H977    1.109   .     S
C975   H976    1.106   .     S
N979   H980    1.027   .     S
N979   C780    1.425   1_655 S
N979   C853    1.447   1_655 S
C981   H982    1.107   .     S
C981   H983    1.106   .     S
C981   H984    1.109   .     S
N985   C987    1.447   .     S
N985   H986    1.027   .     S
C987   H988    1.107   .     S
C987   H989    1.106   .     S
C987   H990    1.109   .     S
N991   H992    1.027   .     S
N991   C993    1.447   .     S
C993   H994    1.107   .     S
C993   H995    1.106   .     S
C993   H996    1.109   .     S
N997   H998    1.027   .     S
N997   C999    1.447   .     S
C999   H1001   1.106   .     S
C999   H1002   1.109   .     S
C999   H1000   1.107   .     S
N1003  C1005   1.447   .     S
N1003  H1004   1.027   .     S
C1005  H1007   1.106   .     S
C1005  H1008   1.109   .     S
C1005  H1006   1.107   .     S
C1025  O1072   1.296   .     A
C1025  O1069   1.286   .     A
C1025  C1060   1.446   .     S
C1026  C1059   1.446   .     S
C1026  O1070   1.296   .     A
C1026  O1071   1.286   .     A
C1027  O1073   1.286   .     A
C1027  C1058   1.446   .     S
C1027  O1076   1.296   .     A
C1028  O1075   1.286   .     A
C1028  O1074   1.296   .     A
C1028  C1057   1.446   .     S
C1029  O1080   1.296   .     A
C1029  O1077   1.286   .     A
C1029  C1064   1.446   .     S
C1030  O1079   1.286   .     A
C1030  O1078   1.295   .     A
C1030  C1063   1.446   .     S
C1031  O1084   1.296   .     A
C1031  C1062   1.446   .     S
C1031  O1081   1.286   .     A
C1032  O1083   1.286   .     A
C1032  O1082   1.295   .     A
C1032  C1061   1.446   .     S
C1033  N1194   1.372   .     A
C1033  N1217   1.425   .     S
C1034  N1193   1.372   .     A
C1034  C139    1.435   1_556 S
C1034  N1223   1.425   .     S
C1035  C650    1.435   1_455 S
C1035  N1066   1.372   .     S
C1035  N1229   1.425   1_455 S
C1036  C137    1.435   1_456 S
C1036  N1065   1.372   .     S
C1036  N1235   1.425   1_455 S
C1037  N1113   1.425   .     S
C1037  N1068   1.372   .     A
C1038  N1119   1.425   .     S
C1038  C15     1.435   1_556 S
C1038  N1323   1.372   .     S
C1039  N1125   1.425   .     S
C1039  N1324   1.372   .     S
C1040  N1131   1.425   .     S
C1040  N1067   1.372   .     A
C1040  C13     1.435   1_556 S
C1041  Cl1137  1.773   .     S
C1041  C1051   1.381   .     A
C1041  C1058   1.408   .     A
C1042  Cl1138  1.768   .     S
C1042  C1052   1.378   .     A
C1042  C1057   1.399   .     A
C1043  C1057   1.408   .     A
C1043  Cl1139  1.773   .     S
C1043  C1049   1.381   .     A
C1044  C1058   1.399   .     A
C1044  Cl1140  1.768   .     S
C1044  C1050   1.378   .     A
C1045  C1060   1.408   .     A
C1045  C1055   1.381   .     A
C1045  Cl1141  1.773   .     S
C1046  C1059   1.399   .     A
C1046  C1056   1.378   .     A
C1046  Cl1142  1.768   .     S
C1047  C1053   1.381   .     A
C1047  Cl1143  1.773   .     S
C1047  C1059   1.408   .     A
C1048  C1060   1.399   .     A
C1048  C1054   1.378   .     A
C1048  Cl1144  1.768   .     S
C1049  C1062   1.408   .     A
C1049  Cl1145  1.773   .     S
C1050  C1061   1.399   .     A
C1050  Cl1146  1.768   .     S
C1051  Cl1147  1.773   .     S
C1051  C1061   1.408   .     A
C1052  Cl1148  1.768   .     S
C1052  C1062   1.399   .     A
C1053  Cl1149  1.773   .     S
C1053  C1064   1.408   .     A
C1054  Cl1150  1.768   .     S
C1054  C1063   1.399   .     A
C1055  Cl1151  1.773   .     S
C1055  C1063   1.408   .     A
C1056  Cl1152  1.768   .     S
C1056  C1064   1.399   .     A
N1065  Zn1085  2.010   .     S
N1065  C1162   1.372   1_455 A
N1066  Zn1086  2.010   .     S
N1066  C1161   1.372   1_455 A
N1067  Zn1087  2.010   .     S
N1067  C1294   1.372   1_545 S
N1068  Zn1088  2.010   .     S
N1068  C1295   1.372   1_545 S
O1069  Zn1085  1.993   .     S
O1070  Zn1214  1.993   .     S
O1071  Zn1213  1.993   .     S
O1072  Zn1086  1.993   .     S
O1073  Zn1214  1.993   .     S
O1074  Zn1085  1.993   .     S
O1075  Zn1086  1.993   .     S
O1076  Zn1213  1.993   .     S
O1077  Zn1343  1.993   .     S
O1078  Zn1088  1.993   .     S
O1079  Zn1087  1.993   .     S
O1080  Zn1344  1.993   .     S
O1081  Zn1344  1.993   .     S
O1082  Zn1087  1.993   .     S
O1083  Zn1088  1.993   .     S
O1084  Zn1343  1.993   .     S
Zn1085 O1204   1.993   1_455 S
Zn1085 O1199   1.993   1_455 S
Zn1086 O1198   1.993   1_455 S
Zn1086 O1201   1.993   1_455 S
Zn1087 O1340   1.993   1_545 S
Zn1087 O1333   1.993   1_545 S
Zn1088 O1337   1.993   1_545 S
Zn1088 O1336   1.993   1_545 S
N1089  H1090   1.027   .     S
N1089  C1161   1.425   1_455 S
N1089  C1219   1.447   1_455 S
C1091  H1092   1.106   .     S
C1091  H1093   1.109   .     S
C1091  H1094   1.107   .     S
C1091  N1217   1.447   .     S
N1095  H1096   1.027   .     S
N1095  C1162   1.425   1_455 S
N1095  C1225   1.447   1_455 S
C1097  H1098   1.107   .     S
C1097  H1099   1.106   .     S
C1097  H1100   1.109   .     S
C1097  N1223   1.447   .     S
N1101  H1102   1.027   .     S
N1101  C1163   1.425   .     S
N1101  C1231   1.447   .     S
C1103  H1106   1.107   .     S
C1103  H1105   1.109   .     S
C1103  H1104   1.106   .     S
C1103  N1229   1.447   1_455 S
N1107  H1108   1.027   .     S
N1107  C1164   1.425   .     S
N1107  C1237   1.447   .     S
C1109  H1110   1.107   .     S
C1109  H1111   1.106   .     S
C1109  H1112   1.109   .     S
C1109  N1235   1.447   1_455 S
N1113  C1115   1.447   .     S
N1113  H1114   1.027   .     S
C1115  H1116   1.107   .     S
C1115  H1117   1.106   .     S
C1115  H1118   1.109   .     S
N1119  H1120   1.027   .     S
N1119  C1121   1.447   .     S
C1121  H1122   1.107   .     S
C1121  H1123   1.106   .     S
C1121  H1124   1.109   .     S
N1125  H1126   1.027   .     S
N1125  C1127   1.447   .     S
C1127  H1129   1.106   .     S
C1127  H1130   1.109   .     S
C1127  H1128   1.107   .     S
N1131  C1133   1.447   .     S
N1131  H1132   1.027   .     S
C1133  H1135   1.106   .     S
C1133  H1136   1.109   .     S
C1133  H1134   1.107   .     S
C1153  O1200   1.296   .     A
C1153  O1197   1.286   .     A
C1153  C1188   1.446   .     S
C1154  C1187   1.446   .     S
C1154  O1198   1.296   .     A
C1154  O1199   1.286   .     A
C1155  O1201   1.286   .     A
C1155  C1186   1.446   .     S
C1155  O1204   1.296   .     A
C1156  O1203   1.286   .     A
C1156  O1202   1.296   .     A
C1156  C1185   1.446   .     S
C1157  O1208   1.296   .     A
C1157  O1205   1.286   .     A
C1157  C1192   1.446   .     S
C1158  O1207   1.286   .     A
C1158  O1206   1.295   .     A
C1158  C1191   1.446   .     S
C1159  O1212   1.296   .     A
C1159  C1190   1.446   .     S
C1159  O1209   1.286   .     A
C1160  O1211   1.286   .     A
C1160  O1210   1.295   .     A
C1160  C1189   1.446   .     S
C1161  N1066   1.372   1_655 A
C1161  C524    1.435   1_655 S
C1161  N1089   1.425   1_655 S
C1162  N1065   1.372   1_655 A
C1162  C11     1.435   1_656 S
C1162  N1095   1.425   1_655 S
C1163  N1194   1.372   .     S
C1164  C9      1.435   1_556 S
C1164  N1193   1.372   .     S
C1165  N1241   1.425   .     S
C1165  N1196   1.372   .     A
C1166  N1247   1.425   .     S
C1166  C143    1.435   1_556 S
C1166  N1451   1.372   .     S
C1167  N1253   1.425   .     S
C1167  N1452   1.372   .     S
C1168  N1259   1.425   .     S
C1168  N1195   1.372   .     A
C1168  C141    1.435   1_556 S
C1169  Cl1265  1.773   .     S
C1169  C1179   1.381   .     A
C1169  C1186   1.408   .     A
C1170  Cl1266  1.768   .     S
C1170  C1180   1.378   .     A
C1170  C1185   1.399   .     A
C1171  C1185   1.408   .     A
C1171  Cl1267  1.773   .     S
C1171  C1177   1.381   .     A
C1172  C1186   1.399   .     A
C1172  Cl1268  1.768   .     S
C1172  C1178   1.378   .     A
C1173  C1188   1.408   .     A
C1173  C1183   1.381   .     A
C1173  Cl1269  1.773   .     S
C1174  C1187   1.399   .     A
C1174  C1184   1.378   .     A
C1174  Cl1270  1.768   .     S
C1175  C1181   1.381   .     A
C1175  Cl1271  1.773   .     S
C1175  C1187   1.408   .     A
C1176  C1188   1.399   .     A
C1176  C1182   1.378   .     A
C1176  Cl1272  1.768   .     S
C1177  C1190   1.408   .     A
C1177  Cl1273  1.773   .     S
C1178  C1189   1.399   .     A
C1178  Cl1274  1.768   .     S
C1179  Cl1275  1.773   .     S
C1179  C1189   1.408   .     A
C1180  Cl1276  1.768   .     S
C1180  C1190   1.399   .     A
C1181  Cl1277  1.773   .     S
C1181  C1192   1.408   .     A
C1182  Cl1278  1.768   .     S
C1182  C1191   1.399   .     A
C1183  Cl1279  1.773   .     S
C1183  C1191   1.408   .     A
C1184  Cl1280  1.768   .     S
C1184  C1192   1.399   .     A
N1193  Zn1213  2.010   .     S
N1194  Zn1214  2.010   .     S
N1195  Zn1215  2.010   .     S
N1195  C1422   1.372   1_545 S
N1196  Zn1216  2.010   .     S
N1196  C1423   1.372   1_545 S
O1197  Zn1213  1.993   .     S
O1198  Zn1086  1.993   1_655 S
O1199  Zn1085  1.993   1_655 S
O1200  Zn1214  1.993   .     S
O1201  Zn1086  1.993   1_655 S
O1202  Zn1213  1.993   .     S
O1203  Zn1214  1.993   .     S
O1204  Zn1085  1.993   1_655 S
O1205  Zn1471  1.993   .     S
O1206  Zn1216  1.993   .     S
O1207  Zn1215  1.993   .     S
O1208  Zn1472  1.993   .     S
O1209  Zn1472  1.993   .     S
O1210  Zn1215  1.993   .     S
O1211  Zn1216  1.993   .     S
O1212  Zn1471  1.993   .     S
Zn1215 O1468   1.993   1_545 S
Zn1215 O1461   1.993   1_545 S
Zn1216 O1465   1.993   1_545 S
Zn1216 O1464   1.993   1_545 S
N1217  H1218   1.027   .     S
C1219  H1220   1.106   .     S
C1219  H1221   1.109   .     S
C1219  H1222   1.107   .     S
C1219  N1089   1.447   1_655 S
N1223  H1224   1.027   .     S
C1225  H1226   1.107   .     S
C1225  H1227   1.106   .     S
C1225  H1228   1.109   .     S
C1225  N1095   1.447   1_655 S
N1229  H1230   1.027   .     S
N1229  C1035   1.425   1_655 S
N1229  C1103   1.447   1_655 S
C1231  H1234   1.107   .     S
C1231  H1233   1.109   .     S
C1231  H1232   1.106   .     S
N1235  H1236   1.027   .     S
N1235  C1036   1.425   1_655 S
N1235  C1109   1.447   1_655 S
C1237  H1238   1.107   .     S
C1237  H1239   1.106   .     S
C1237  H1240   1.109   .     S
N1241  C1243   1.447   .     S
N1241  H1242   1.027   .     S
C1243  H1244   1.107   .     S
C1243  H1245   1.106   .     S
C1243  H1246   1.109   .     S
N1247  H1248   1.027   .     S
N1247  C1249   1.447   .     S
C1249  H1250   1.107   .     S
C1249  H1251   1.106   .     S
C1249  H1252   1.109   .     S
N1253  H1254   1.027   .     S
N1253  C1255   1.447   .     S
C1255  H1257   1.106   .     S
C1255  H1258   1.109   .     S
C1255  H1256   1.107   .     S
N1259  C1261   1.447   .     S
N1259  H1260   1.027   .     S
C1261  H1263   1.106   .     S
C1261  H1264   1.109   .     S
C1261  H1262   1.107   .     S
C1281  O1328   1.296   .     A
C1281  O1325   1.286   .     A
C1281  C1316   1.446   .     S
C1282  C1315   1.446   .     S
C1282  O1326   1.296   .     A
C1282  O1327   1.286   .     A
C1283  O1329   1.286   .     A
C1283  C1314   1.446   .     S
C1283  O1332   1.296   .     A
C1284  O1331   1.286   .     A
C1284  O1330   1.296   .     A
C1284  C1313   1.446   .     S
C1285  O1336   1.296   .     A
C1285  O1333   1.286   .     A
C1285  C1320   1.446   .     S
C1286  O1335   1.286   .     A
C1286  O1334   1.295   .     A
C1286  C1319   1.446   .     S
C1287  O1340   1.296   .     A
C1287  C1318   1.446   .     S
C1287  O1337   1.286   .     A
C1288  O1339   1.286   .     A
C1288  O1338   1.295   .     A
C1288  C1317   1.446   .     S
C1289  N1450   1.372   .     A
C1289  N1473   1.425   .     S
C1290  N1449   1.372   .     A
C1290  C395    1.435   1_556 S
C1290  N1479   1.425   .     S
C1291  C906    1.435   1_455 S
C1291  N1322   1.372   .     S
C1291  N1485   1.425   1_455 S
C1292  C393    1.435   1_456 S
C1292  N1321   1.372   .     S
C1292  N1491   1.425   1_455 S
C1293  N1369   1.425   .     S
C1293  N1324   1.372   .     A
C1294  N1375   1.425   .     S
C1294  C271    1.435   1_556 S
C1294  N1067   1.372   1_565 S
C1295  N1381   1.425   .     S
C1295  N1068   1.372   1_565 S
C1296  N1387   1.425   .     S
C1296  N1323   1.372   .     A
C1296  C269    1.435   1_556 S
C1297  Cl1393  1.773   .     S
C1297  C1307   1.381   .     A
C1297  C1314   1.408   .     A
C1298  Cl1394  1.768   .     S
C1298  C1308   1.378   .     A
C1298  C1313   1.399   .     A
C1299  C1313   1.408   .     A
C1299  Cl1395  1.773   .     S
C1299  C1305   1.381   .     A
C1300  C1314   1.399   .     A
C1300  Cl1396  1.768   .     S
C1300  C1306   1.378   .     A
C1301  C1316   1.408   .     A
C1301  C1311   1.381   .     A
C1301  Cl1397  1.773   .     S
C1302  C1315   1.399   .     A
C1302  C1312   1.378   .     A
C1302  Cl1398  1.768   .     S
C1303  C1309   1.381   .     A
C1303  Cl1399  1.773   .     S
C1303  C1315   1.408   .     A
C1304  C1316   1.399   .     A
C1304  C1310   1.378   .     A
C1304  Cl1400  1.768   .     S
C1305  C1318   1.408   .     A
C1305  Cl1401  1.773   .     S
C1306  C1317   1.399   .     A
C1306  Cl1402  1.768   .     S
C1307  Cl1403  1.773   .     S
C1307  C1317   1.408   .     A
C1308  Cl1404  1.768   .     S
C1308  C1318   1.399   .     A
C1309  Cl1405  1.773   .     S
C1309  C1320   1.408   .     A
C1310  Cl1406  1.768   .     S
C1310  C1319   1.399   .     A
C1311  Cl1407  1.773   .     S
C1311  C1319   1.408   .     A
C1312  Cl1408  1.768   .     S
C1312  C1320   1.399   .     A
N1321  Zn1341  2.010   .     S
N1321  C1418   1.372   1_455 A
N1322  Zn1342  2.010   .     S
N1322  C1417   1.372   1_455 A
N1323  Zn1343  2.010   .     S
N1324  Zn1344  2.010   .     S
O1325  Zn1341  1.993   .     S
O1326  Zn1470  1.993   .     S
O1327  Zn1469  1.993   .     S
O1328  Zn1342  1.993   .     S
O1329  Zn1470  1.993   .     S
O1330  Zn1341  1.993   .     S
O1331  Zn1342  1.993   .     S
O1332  Zn1469  1.993   .     S
O1333  Zn1087  1.993   1_565 S
O1334  Zn1344  1.993   .     S
O1335  Zn1343  1.993   .     S
O1336  Zn1088  1.993   1_565 S
O1337  Zn1088  1.993   1_565 S
O1338  Zn1343  1.993   .     S
O1339  Zn1344  1.993   .     S
O1340  Zn1087  1.993   1_565 S
Zn1341 O1460   1.993   1_455 S
Zn1341 O1455   1.993   1_455 S
Zn1342 O1454   1.993   1_455 S
Zn1342 O1457   1.993   1_455 S
N1345  H1346   1.027   .     S
N1345  C1417   1.425   1_455 S
N1345  C1475   1.447   1_455 S
C1347  H1348   1.106   .     S
C1347  H1349   1.109   .     S
C1347  H1350   1.107   .     S
C1347  N1473   1.447   .     S
N1351  H1352   1.027   .     S
N1351  C1418   1.425   1_455 S
N1351  C1481   1.447   1_455 S
C1353  H1354   1.107   .     S
C1353  H1355   1.106   .     S
C1353  H1356   1.109   .     S
C1353  N1479   1.447   .     S
N1357  H1358   1.027   .     S
N1357  C1419   1.425   .     S
N1357  C1487   1.447   .     S
C1359  H1362   1.107   .     S
C1359  H1361   1.109   .     S
C1359  H1360   1.106   .     S
C1359  N1485   1.447   1_455 S
N1363  H1364   1.027   .     S
N1363  C1420   1.425   .     S
N1363  C1493   1.447   .     S
C1365  H1366   1.107   .     S
C1365  H1367   1.106   .     S
C1365  H1368   1.109   .     S
C1365  N1491   1.447   1_455 S
N1369  C1371   1.447   .     S
N1369  H1370   1.027   .     S
C1371  H1372   1.107   .     S
C1371  H1373   1.106   .     S
C1371  H1374   1.109   .     S
N1375  H1376   1.027   .     S
N1375  C1377   1.447   .     S
C1377  H1378   1.107   .     S
C1377  H1379   1.106   .     S
C1377  H1380   1.109   .     S
N1381  H1382   1.027   .     S
N1381  C1383   1.447   .     S
C1383  H1385   1.106   .     S
C1383  H1386   1.109   .     S
C1383  H1384   1.107   .     S
N1387  C1389   1.447   .     S
N1387  H1388   1.027   .     S
C1389  H1391   1.106   .     S
C1389  H1392   1.109   .     S
C1389  H1390   1.107   .     S
C1409  O1456   1.296   .     A
C1409  O1453   1.286   .     A
C1409  C1444   1.446   .     S
C1410  C1443   1.446   .     S
C1410  O1454   1.296   .     A
C1410  O1455   1.286   .     A
C1411  O1457   1.286   .     A
C1411  C1442   1.446   .     S
C1411  O1460   1.296   .     A
C1412  O1459   1.286   .     A
C1412  O1458   1.296   .     A
C1412  C1441   1.446   .     S
C1413  O1464   1.296   .     A
C1413  O1461   1.286   .     A
C1413  C1448   1.446   .     S
C1414  O1463   1.286   .     A
C1414  O1462   1.295   .     A
C1414  C1447   1.446   .     S
C1415  O1468   1.296   .     A
C1415  C1446   1.446   .     S
C1415  O1465   1.286   .     A
C1416  O1467   1.286   .     A
C1416  O1466   1.295   .     A
C1416  C1445   1.446   .     S
C1417  N1322   1.372   1_655 A
C1417  C780    1.435   1_655 S
C1417  N1345   1.425   1_655 S
C1418  N1321   1.372   1_655 A
C1418  C267    1.435   1_656 S
C1418  N1351   1.425   1_655 S
C1419  N1450   1.372   .     S
C1420  C265    1.435   1_556 S
C1420  N1449   1.372   .     S
C1421  N1497   1.425   .     S
C1421  N1452   1.372   .     A
C1422  N1503   1.425   .     S
C1422  C399    1.435   1_556 S
C1422  N1195   1.372   1_565 S
C1423  N1509   1.425   .     S
C1423  N1196   1.372   1_565 S
C1424  N1515   1.425   .     S
C1424  N1451   1.372   .     A
C1424  C397    1.435   1_556 S
C1425  Cl1521  1.773   .     S
C1425  C1435   1.381   .     A
C1425  C1442   1.408   .     A
C1426  Cl1522  1.768   .     S
C1426  C1436   1.378   .     A
C1426  C1441   1.399   .     A
C1427  C1441   1.408   .     A
C1427  Cl1523  1.773   .     S
C1427  C1433   1.381   .     A
C1428  C1442   1.399   .     A
C1428  Cl1524  1.768   .     S
C1428  C1434   1.378   .     A
C1429  C1444   1.408   .     A
C1429  C1439   1.381   .     A
C1429  Cl1525  1.773   .     S
C1430  C1443   1.399   .     A
C1430  C1440   1.378   .     A
C1430  Cl1526  1.768   .     S
C1431  C1437   1.381   .     A
C1431  Cl1527  1.773   .     S
C1431  C1443   1.408   .     A
C1432  C1444   1.399   .     A
C1432  C1438   1.378   .     A
C1432  Cl1528  1.768   .     S
C1433  C1446   1.408   .     A
C1433  Cl1529  1.773   .     S
C1434  C1445   1.399   .     A
C1434  Cl1530  1.768   .     S
C1435  Cl1531  1.773   .     S
C1435  C1445   1.408   .     A
C1436  Cl1532  1.768   .     S
C1436  C1446   1.399   .     A
C1437  Cl1533  1.773   .     S
C1437  C1448   1.408   .     A
C1438  Cl1534  1.768   .     S
C1438  C1447   1.399   .     A
C1439  Cl1535  1.773   .     S
C1439  C1447   1.408   .     A
C1440  Cl1536  1.768   .     S
C1440  C1448   1.399   .     A
N1449  Zn1469  2.010   .     S
N1450  Zn1470  2.010   .     S
N1451  Zn1471  2.010   .     S
N1452  Zn1472  2.010   .     S
O1453  Zn1469  1.993   .     S
O1454  Zn1342  1.993   1_655 S
O1455  Zn1341  1.993   1_655 S
O1456  Zn1470  1.993   .     S
O1457  Zn1342  1.993   1_655 S
O1458  Zn1469  1.993   .     S
O1459  Zn1470  1.993   .     S
O1460  Zn1341  1.993   1_655 S
O1461  Zn1215  1.993   1_565 S
O1462  Zn1472  1.993   .     S
O1463  Zn1471  1.993   .     S
O1464  Zn1216  1.993   1_565 S
O1465  Zn1216  1.993   1_565 S
O1466  Zn1471  1.993   .     S
O1467  Zn1472  1.993   .     S
O1468  Zn1215  1.993   1_565 S
N1473  H1474   1.027   .     S
C1475  H1476   1.106   .     S
C1475  H1477   1.109   .     S
C1475  H1478   1.107   .     S
C1475  N1345   1.447   1_655 S
N1479  H1480   1.027   .     S
C1481  H1482   1.107   .     S
C1481  H1483   1.106   .     S
C1481  H1484   1.109   .     S
C1481  N1351   1.447   1_655 S
N1485  H1486   1.027   .     S
N1485  C1291   1.425   1_655 S
N1485  C1359   1.447   1_655 S
C1487  H1490   1.107   .     S
C1487  H1489   1.109   .     S
C1487  H1488   1.106   .     S
N1491  H1492   1.027   .     S
N1491  C1292   1.425   1_655 S
N1491  C1365   1.447   1_655 S
C1493  H1494   1.107   .     S
C1493  H1495   1.106   .     S
C1493  H1496   1.109   .     S
N1497  C1499   1.447   .     S
N1497  H1498   1.027   .     S
C1499  H1500   1.107   .     S
C1499  H1501   1.106   .     S
C1499  H1502   1.109   .     S
N1503  H1504   1.027   .     S
N1503  C1505   1.447   .     S
C1505  H1506   1.107   .     S
C1505  H1507   1.106   .     S
C1505  H1508   1.109   .     S
N1509  H1510   1.027   .     S
N1509  C1511   1.447   .     S
C1511  H1513   1.106   .     S
C1511  H1514   1.109   .     S
C1511  H1512   1.107   .     S
N1515  C1517   1.447   .     S
N1515  H1516   1.027   .     S
C1517  H1519   1.106   .     S
C1517  H1520   1.109   .     S
C1517  H1518   1.107   .     S
