data_str_m3_o1_o16_pcu_sym.19
_audit_creation_date              2020-01-03
_audit_creation_method            'Materials Studio'
_symmetry_space_group_name_H-M    'P1'
_symmetry_Int_Tables_number       1
_symmetry_cell_setting            triclinic
loop_
_symmetry_equiv_pos_as_xyz
  x,y,z
_cell_length_a                    29.6233
_cell_length_b                    31.8851
_cell_length_c                    26.0381
_cell_angle_alpha                 89.9987
_cell_angle_beta                  71.5302
_cell_angle_gamma                 90.0427
loop_
_atom_site_label
_atom_site_type_symbol
_atom_site_fract_x
_atom_site_fract_y
_atom_site_fract_z
_atom_site_U_iso_or_equiv
_atom_site_adp_type
_atom_site_occupancy
C1     C     0.16685   0.24656   0.24947   0.00000  Uiso   1.00
C2     C     0.12957   0.13546   0.40268   0.00000  Uiso   1.00
C3     C     0.17853   0.31210   0.28882   0.00000  Uiso   1.00
C4     C     0.14207   0.15507   0.34827   0.00000  Uiso   1.00
C5     C     0.17846   0.02173   0.28852   0.00000  Uiso   1.00
C6     C     0.16751   0.04268   0.24713   0.00000  Uiso   1.00
C7     C     0.15758   0.02159   0.20470   0.00000  Uiso   1.00
C8     C     0.15731   0.31148   0.20510   0.00000  Uiso   1.00
C9     C     0.16741   0.29069   0.24769   0.00000  Uiso   1.00
C10    C     0.31873   0.14083   0.21618   0.00000  Uiso   1.00
C11    C     0.03327   0.14084   0.21614   0.00000  Uiso   1.00
C12    C     0.15078   0.13273   0.48543   0.00000  Uiso   1.00
C13    C     0.01457   0.19257   0.28381   0.00000  Uiso   1.00
C14    C     0.30002   0.19261   0.28375   0.00000  Uiso   1.00
C15    C     0.16698   0.08677   0.24881   0.00000  Uiso   1.00
C16    C     0.19280   0.16698   0.14768   0.00000  Uiso   1.00
C17    C     0.26822   0.16344   0.00018   0.00000  Uiso   1.00
C18    C     0.20844   0.16325   0.08865   0.00000  Uiso   1.00
C19    C     0.08323   0.12202   0.43078   0.00000  Uiso   1.00
C20    C     0.06991   0.11609   0.48677   0.00000  Uiso   1.00
C21    C     0.10242   0.12413   0.01445   0.00000  Uiso   1.00
C22    C     0.16470   0.13126   0.42860   0.00000  Uiso   1.00
C23    C     0.18601   0.14309   0.00988   0.00000  Uiso   1.00
C24    C     0.23424   0.14853   0.47722   0.00000  Uiso   1.00
C25    C     0.24750   0.13800   0.42239   0.00000  Uiso   1.00
C26    C     0.21333   0.12606   0.39962   0.00000  Uiso   1.00
C27    C     0.17428   0.15042   0.06523   0.00000  Uiso   1.00
C28    C     0.25562   0.17081   0.05569   0.00000  Uiso   1.00
Cl29   Cl    0.29990   0.19065   0.08133   0.00000  Uiso   1.00
Cl30   Cl    0.14816   0.04922   0.15002   0.00000  Uiso   1.00
Cl31   Cl    0.14655   0.28341   0.15144   0.00000  Uiso   1.00
Cl32   Cl    0.04497   0.10506   0.39556   0.00000  Uiso   1.00
F33    F     0.06511   0.11493   0.18202   0.00000  Uiso   1.00
F34    F     0.02769   0.21841   0.31791   0.00000  Uiso   1.00
F35    F     0.26805   0.21861   0.31769   0.00000  Uiso   1.00
F36    F     0.29322   0.13988   0.38997   0.00000  Uiso   1.00
F37    F     0.31347   0.17188   0.46870   0.00000  Uiso   1.00
F38    F     0.02527   0.10302   0.01470   0.00000  Uiso   1.00
F39    F     0.22799   0.10795   0.34984   0.00000  Uiso   1.00
F40    F     0.18818   0.29134   0.32972   0.00000  Uiso   1.00
H41    H     0.18617   0.03870   0.32086   0.00000  Uiso   1.00
H42    H     0.30814   0.12018   0.18907   0.00000  Uiso   1.00
H43    H     0.13818   0.14650   0.09102   0.00000  Uiso   1.00
H44    H     0.08936   0.12081   0.05786   0.00000  Uiso   1.00
N45    N     0.04760   0.16668   0.25002   0.00000  Uiso   1.00
N46    N     0.28573   0.16665   0.25001   0.00000  Uiso   1.00
O47    O     0.12846   0.22775   0.25001   0.00000  Uiso   1.00
O48    O     0.20490   0.22774   0.25001   0.00000  Uiso   1.00
O49    O     0.10947   0.16666   0.32681   0.00000  Uiso   1.00
O50    O     0.18591   0.16665   0.32681   0.00000  Uiso   1.00
O51    O     0.12843   0.10559   0.25000   0.00000  Uiso   1.00
O52    O     0.20488   0.10558   0.25000   0.00000  Uiso   1.00
O53    O     0.14742   0.16668   0.17319   0.00000  Uiso   1.00
O54    O     0.22387   0.16667   0.17319   0.00000  Uiso   1.00
Zn55   Zn    0.11562   0.16667   0.25000   0.00000  Uiso   1.00
Zn56   Zn    0.21771   0.16666   0.25000   0.00000  Uiso   1.00
C57    C     0.50018   0.24656   0.24947   0.00000  Uiso   1.00
C58    C     0.46291   0.13546   0.40268   0.00000  Uiso   1.00
C59    C     0.51186   0.31210   0.28882   0.00000  Uiso   1.00
C60    C     0.47541   0.15507   0.34827   0.00000  Uiso   1.00
C61    C     0.51180   0.02173   0.28852   0.00000  Uiso   1.00
C62    C     0.50084   0.04268   0.24713   0.00000  Uiso   1.00
C63    C     0.49091   0.02159   0.20470   0.00000  Uiso   1.00
C64    C     0.49064   0.31148   0.20510   0.00000  Uiso   1.00
C65    C     0.50074   0.29069   0.24769   0.00000  Uiso   1.00
C66    C     0.65206   0.14083   0.21618   0.00000  Uiso   1.00
C67    C     0.36660   0.14084   0.21614   0.00000  Uiso   1.00
C68    C     0.48411   0.13273   0.48543   0.00000  Uiso   1.00
C69    C     0.34790   0.19257   0.28381   0.00000  Uiso   1.00
C70    C     0.63335   0.19261   0.28375   0.00000  Uiso   1.00
C71    C     0.50031   0.08677   0.24881   0.00000  Uiso   1.00
C72    C     0.52614   0.16698   0.14768   0.00000  Uiso   1.00
C73    C     0.60155   0.16344   0.00018   0.00000  Uiso   1.00
C74    C     0.54177   0.16325   0.08865   0.00000  Uiso   1.00
C75    C     0.41656   0.12202   0.43078   0.00000  Uiso   1.00
C76    C     0.40324   0.11609   0.48677   0.00000  Uiso   1.00
C77    C     0.43576   0.12413   0.01445   0.00000  Uiso   1.00
C78    C     0.49803   0.13126   0.42860   0.00000  Uiso   1.00
C79    C     0.51935   0.14309   0.00988   0.00000  Uiso   1.00
C80    C     0.56757   0.14853   0.47722   0.00000  Uiso   1.00
C81    C     0.58083   0.13800   0.42239   0.00000  Uiso   1.00
C82    C     0.54667   0.12606   0.39962   0.00000  Uiso   1.00
C83    C     0.50761   0.15042   0.06523   0.00000  Uiso   1.00
C84    C     0.58896   0.17081   0.05569   0.00000  Uiso   1.00
Cl85   Cl    0.63323   0.19065   0.08133   0.00000  Uiso   1.00
Cl86   Cl    0.48150   0.04922   0.15002   0.00000  Uiso   1.00
Cl87   Cl    0.47988   0.28341   0.15144   0.00000  Uiso   1.00
Cl88   Cl    0.37830   0.10506   0.39556   0.00000  Uiso   1.00
F89    F     0.39844   0.11493   0.18202   0.00000  Uiso   1.00
F90    F     0.36103   0.21841   0.31791   0.00000  Uiso   1.00
F91    F     0.60138   0.21861   0.31769   0.00000  Uiso   1.00
F92    F     0.62656   0.13988   0.38997   0.00000  Uiso   1.00
F93    F     0.64680   0.17188   0.46870   0.00000  Uiso   1.00
F94    F     0.35860   0.10302   0.01470   0.00000  Uiso   1.00
F95    F     0.56132   0.10795   0.34984   0.00000  Uiso   1.00
F96    F     0.52151   0.29134   0.32972   0.00000  Uiso   1.00
H97    H     0.51951   0.03870   0.32086   0.00000  Uiso   1.00
H98    H     0.64147   0.12018   0.18907   0.00000  Uiso   1.00
H99    H     0.47151   0.14650   0.09102   0.00000  Uiso   1.00
H100   H     0.42270   0.12081   0.05786   0.00000  Uiso   1.00
N101   N     0.38093   0.16668   0.25002   0.00000  Uiso   1.00
N102   N     0.61906   0.16665   0.25001   0.00000  Uiso   1.00
O103   O     0.46179   0.22775   0.25001   0.00000  Uiso   1.00
O104   O     0.53823   0.22774   0.25001   0.00000  Uiso   1.00
O105   O     0.44280   0.16666   0.32681   0.00000  Uiso   1.00
O106   O     0.51924   0.16665   0.32681   0.00000  Uiso   1.00
O107   O     0.46177   0.10559   0.25000   0.00000  Uiso   1.00
O108   O     0.53821   0.10558   0.25000   0.00000  Uiso   1.00
O109   O     0.48076   0.16668   0.17319   0.00000  Uiso   1.00
O110   O     0.55720   0.16667   0.17319   0.00000  Uiso   1.00
Zn111  Zn    0.44896   0.16667   0.25000   0.00000  Uiso   1.00
Zn112  Zn    0.55104   0.16666   0.25000   0.00000  Uiso   1.00
C113   C     0.83351   0.24656   0.24947   0.00000  Uiso   1.00
C114   C     0.79624   0.13546   0.40268   0.00000  Uiso   1.00
C115   C     0.84519   0.31210   0.28882   0.00000  Uiso   1.00
C116   C     0.80874   0.15507   0.34827   0.00000  Uiso   1.00
C117   C     0.84513   0.02173   0.28852   0.00000  Uiso   1.00
C118   C     0.83417   0.04268   0.24713   0.00000  Uiso   1.00
C119   C     0.82424   0.02159   0.20470   0.00000  Uiso   1.00
C120   C     0.82398   0.31148   0.20510   0.00000  Uiso   1.00
C121   C     0.83408   0.29069   0.24769   0.00000  Uiso   1.00
C122   C     0.98540   0.14083   0.21618   0.00000  Uiso   1.00
C123   C     0.69993   0.14084   0.21614   0.00000  Uiso   1.00
C124   C     0.81745   0.13273   0.48543   0.00000  Uiso   1.00
C125   C     0.68124   0.19257   0.28381   0.00000  Uiso   1.00
C126   C     0.96669   0.19261   0.28375   0.00000  Uiso   1.00
C127   C     0.83364   0.08677   0.24881   0.00000  Uiso   1.00
C128   C     0.85947   0.16698   0.14768   0.00000  Uiso   1.00
C129   C     0.93489   0.16344   0.00018   0.00000  Uiso   1.00
C130   C     0.87511   0.16325   0.08865   0.00000  Uiso   1.00
C131   C     0.74989   0.12202   0.43078   0.00000  Uiso   1.00
C132   C     0.73658   0.11609   0.48677   0.00000  Uiso   1.00
C133   C     0.76909   0.12413   0.01445   0.00000  Uiso   1.00
C134   C     0.83137   0.13126   0.42860   0.00000  Uiso   1.00
C135   C     0.85268   0.14309   0.00988   0.00000  Uiso   1.00
C136   C     0.90090   0.14853   0.47722   0.00000  Uiso   1.00
C137   C     0.91416   0.13800   0.42239   0.00000  Uiso   1.00
C138   C     0.88000   0.12606   0.39962   0.00000  Uiso   1.00
C139   C     0.84094   0.15042   0.06523   0.00000  Uiso   1.00
C140   C     0.92229   0.17081   0.05569   0.00000  Uiso   1.00
Cl141  Cl    0.96656   0.19065   0.08133   0.00000  Uiso   1.00
Cl142  Cl    0.81483   0.04922   0.15002   0.00000  Uiso   1.00
Cl143  Cl    0.81321   0.28341   0.15144   0.00000  Uiso   1.00
Cl144  Cl    0.71164   0.10506   0.39556   0.00000  Uiso   1.00
F145   F     0.73177   0.11493   0.18202   0.00000  Uiso   1.00
F146   F     0.69436   0.21841   0.31791   0.00000  Uiso   1.00
F147   F     0.93471   0.21861   0.31769   0.00000  Uiso   1.00
F148   F     0.95989   0.13988   0.38997   0.00000  Uiso   1.00
F149   F     0.98014   0.17188   0.46870   0.00000  Uiso   1.00
F150   F     0.69193   0.10302   0.01470   0.00000  Uiso   1.00
F151   F     0.89465   0.10795   0.34984   0.00000  Uiso   1.00
F152   F     0.85484   0.29134   0.32972   0.00000  Uiso   1.00
H153   H     0.85284   0.03870   0.32086   0.00000  Uiso   1.00
H154   H     0.97480   0.12018   0.18907   0.00000  Uiso   1.00
H155   H     0.80484   0.14650   0.09102   0.00000  Uiso   1.00
H156   H     0.75603   0.12081   0.05786   0.00000  Uiso   1.00
N157   N     0.71426   0.16668   0.25002   0.00000  Uiso   1.00
N158   N     0.95239   0.16665   0.25001   0.00000  Uiso   1.00
O159   O     0.79512   0.22775   0.25001   0.00000  Uiso   1.00
O160   O     0.87157   0.22774   0.25001   0.00000  Uiso   1.00
O161   O     0.77613   0.16666   0.32681   0.00000  Uiso   1.00
O162   O     0.85258   0.16665   0.32681   0.00000  Uiso   1.00
O163   O     0.79510   0.10559   0.25000   0.00000  Uiso   1.00
O164   O     0.87154   0.10558   0.25000   0.00000  Uiso   1.00
O165   O     0.81409   0.16668   0.17319   0.00000  Uiso   1.00
O166   O     0.89053   0.16667   0.17319   0.00000  Uiso   1.00
Zn167  Zn    0.78229   0.16667   0.25000   0.00000  Uiso   1.00
Zn168  Zn    0.88438   0.16666   0.25000   0.00000  Uiso   1.00
C169   C     0.16685   0.57989   0.24947   0.00000  Uiso   1.00
C170   C     0.12957   0.46879   0.40268   0.00000  Uiso   1.00
C171   C     0.17853   0.64543   0.28882   0.00000  Uiso   1.00
C172   C     0.14207   0.48840   0.34827   0.00000  Uiso   1.00
C173   C     0.17846   0.35506   0.28852   0.00000  Uiso   1.00
C174   C     0.16751   0.37602   0.24713   0.00000  Uiso   1.00
C175   C     0.15758   0.35492   0.20470   0.00000  Uiso   1.00
C176   C     0.15731   0.64481   0.20510   0.00000  Uiso   1.00
C177   C     0.16741   0.62402   0.24769   0.00000  Uiso   1.00
C178   C     0.31873   0.47417   0.21618   0.00000  Uiso   1.00
C179   C     0.03327   0.47417   0.21614   0.00000  Uiso   1.00
C180   C     0.15078   0.46606   0.48543   0.00000  Uiso   1.00
C181   C     0.01457   0.52590   0.28381   0.00000  Uiso   1.00
C182   C     0.30002   0.52594   0.28375   0.00000  Uiso   1.00
C183   C     0.16698   0.42011   0.24881   0.00000  Uiso   1.00
C184   C     0.19280   0.50031   0.14768   0.00000  Uiso   1.00
C185   C     0.26822   0.49678   0.00018   0.00000  Uiso   1.00
C186   C     0.20844   0.49658   0.08865   0.00000  Uiso   1.00
C187   C     0.08323   0.45536   0.43078   0.00000  Uiso   1.00
C188   C     0.06991   0.44943   0.48677   0.00000  Uiso   1.00
C189   C     0.10242   0.45747   0.01445   0.00000  Uiso   1.00
C190   C     0.16470   0.46459   0.42860   0.00000  Uiso   1.00
C191   C     0.18601   0.47642   0.00988   0.00000  Uiso   1.00
C192   C     0.23424   0.48186   0.47722   0.00000  Uiso   1.00
C193   C     0.24750   0.47134   0.42239   0.00000  Uiso   1.00
C194   C     0.21333   0.45939   0.39962   0.00000  Uiso   1.00
C195   C     0.17428   0.48375   0.06523   0.00000  Uiso   1.00
C196   C     0.25562   0.50414   0.05569   0.00000  Uiso   1.00
Cl197  Cl    0.29990   0.52398   0.08133   0.00000  Uiso   1.00
Cl198  Cl    0.14816   0.38255   0.15002   0.00000  Uiso   1.00
Cl199  Cl    0.14655   0.61674   0.15144   0.00000  Uiso   1.00
Cl200  Cl    0.04497   0.43839   0.39556   0.00000  Uiso   1.00
F201   F     0.06511   0.44826   0.18202   0.00000  Uiso   1.00
F202   F     0.02769   0.55175   0.31791   0.00000  Uiso   1.00
F203   F     0.26805   0.55194   0.31769   0.00000  Uiso   1.00
F204   F     0.29322   0.47321   0.38997   0.00000  Uiso   1.00
F205   F     0.31347   0.50521   0.46870   0.00000  Uiso   1.00
F206   F     0.02527   0.43636   0.01470   0.00000  Uiso   1.00
F207   F     0.22799   0.44129   0.34984   0.00000  Uiso   1.00
F208   F     0.18818   0.62467   0.32972   0.00000  Uiso   1.00
H209   H     0.18617   0.37203   0.32086   0.00000  Uiso   1.00
H210   H     0.30814   0.45352   0.18907   0.00000  Uiso   1.00
H211   H     0.13818   0.47983   0.09102   0.00000  Uiso   1.00
H212   H     0.08936   0.45414   0.05786   0.00000  Uiso   1.00
N213   N     0.04760   0.50001   0.25002   0.00000  Uiso   1.00
N214   N     0.28573   0.49998   0.25001   0.00000  Uiso   1.00
O215   O     0.12846   0.56108   0.25001   0.00000  Uiso   1.00
O216   O     0.20490   0.56107   0.25001   0.00000  Uiso   1.00
O217   O     0.10947   0.50000   0.32681   0.00000  Uiso   1.00
O218   O     0.18591   0.49999   0.32681   0.00000  Uiso   1.00
O219   O     0.12843   0.43893   0.25000   0.00000  Uiso   1.00
O220   O     0.20488   0.43892   0.25000   0.00000  Uiso   1.00
O221   O     0.14742   0.50001   0.17319   0.00000  Uiso   1.00
O222   O     0.22387   0.50000   0.17319   0.00000  Uiso   1.00
Zn223  Zn    0.11562   0.50001   0.25000   0.00000  Uiso   1.00
Zn224  Zn    0.21771   0.49999   0.25000   0.00000  Uiso   1.00
C225   C     0.50018   0.57989   0.24947   0.00000  Uiso   1.00
C226   C     0.46291   0.46879   0.40268   0.00000  Uiso   1.00
C227   C     0.51186   0.64543   0.28882   0.00000  Uiso   1.00
C228   C     0.47541   0.48840   0.34827   0.00000  Uiso   1.00
C229   C     0.51180   0.35506   0.28852   0.00000  Uiso   1.00
C230   C     0.50084   0.37602   0.24713   0.00000  Uiso   1.00
C231   C     0.49091   0.35492   0.20470   0.00000  Uiso   1.00
C232   C     0.49064   0.64481   0.20510   0.00000  Uiso   1.00
C233   C     0.50074   0.62402   0.24769   0.00000  Uiso   1.00
C234   C     0.65206   0.47417   0.21618   0.00000  Uiso   1.00
C235   C     0.36660   0.47417   0.21614   0.00000  Uiso   1.00
C236   C     0.48411   0.46606   0.48543   0.00000  Uiso   1.00
C237   C     0.34790   0.52590   0.28381   0.00000  Uiso   1.00
C238   C     0.63335   0.52594   0.28375   0.00000  Uiso   1.00
C239   C     0.50031   0.42011   0.24881   0.00000  Uiso   1.00
C240   C     0.52614   0.50031   0.14768   0.00000  Uiso   1.00
C241   C     0.60155   0.49678   0.00018   0.00000  Uiso   1.00
C242   C     0.54177   0.49658   0.08865   0.00000  Uiso   1.00
C243   C     0.41656   0.45536   0.43078   0.00000  Uiso   1.00
C244   C     0.40324   0.44943   0.48677   0.00000  Uiso   1.00
C245   C     0.43576   0.45747   0.01445   0.00000  Uiso   1.00
C246   C     0.49803   0.46459   0.42860   0.00000  Uiso   1.00
C247   C     0.51935   0.47642   0.00988   0.00000  Uiso   1.00
C248   C     0.56757   0.48186   0.47722   0.00000  Uiso   1.00
C249   C     0.58083   0.47134   0.42239   0.00000  Uiso   1.00
C250   C     0.54667   0.45939   0.39962   0.00000  Uiso   1.00
C251   C     0.50761   0.48375   0.06523   0.00000  Uiso   1.00
C252   C     0.58896   0.50414   0.05569   0.00000  Uiso   1.00
Cl253  Cl    0.63323   0.52398   0.08133   0.00000  Uiso   1.00
Cl254  Cl    0.48150   0.38255   0.15002   0.00000  Uiso   1.00
Cl255  Cl    0.47988   0.61674   0.15144   0.00000  Uiso   1.00
Cl256  Cl    0.37830   0.43839   0.39556   0.00000  Uiso   1.00
F257   F     0.39844   0.44826   0.18202   0.00000  Uiso   1.00
F258   F     0.36103   0.55175   0.31791   0.00000  Uiso   1.00
F259   F     0.60138   0.55194   0.31769   0.00000  Uiso   1.00
F260   F     0.62656   0.47321   0.38997   0.00000  Uiso   1.00
F261   F     0.64680   0.50521   0.46870   0.00000  Uiso   1.00
F262   F     0.35860   0.43636   0.01470   0.00000  Uiso   1.00
F263   F     0.56132   0.44129   0.34984   0.00000  Uiso   1.00
F264   F     0.52151   0.62467   0.32972   0.00000  Uiso   1.00
H265   H     0.51951   0.37203   0.32086   0.00000  Uiso   1.00
H266   H     0.64147   0.45352   0.18907   0.00000  Uiso   1.00
H267   H     0.47151   0.47983   0.09102   0.00000  Uiso   1.00
H268   H     0.42270   0.45414   0.05786   0.00000  Uiso   1.00
N269   N     0.38093   0.50001   0.25002   0.00000  Uiso   1.00
N270   N     0.61906   0.49998   0.25001   0.00000  Uiso   1.00
O271   O     0.46179   0.56108   0.25001   0.00000  Uiso   1.00
O272   O     0.53823   0.56107   0.25001   0.00000  Uiso   1.00
O273   O     0.44280   0.50000   0.32681   0.00000  Uiso   1.00
O274   O     0.51924   0.49999   0.32681   0.00000  Uiso   1.00
O275   O     0.46177   0.43893   0.25000   0.00000  Uiso   1.00
O276   O     0.53821   0.43892   0.25000   0.00000  Uiso   1.00
O277   O     0.48076   0.50001   0.17319   0.00000  Uiso   1.00
O278   O     0.55720   0.50000   0.17319   0.00000  Uiso   1.00
Zn279  Zn    0.44896   0.50001   0.25000   0.00000  Uiso   1.00
Zn280  Zn    0.55104   0.49999   0.25000   0.00000  Uiso   1.00
C281   C     0.83351   0.57989   0.24947   0.00000  Uiso   1.00
C282   C     0.79624   0.46879   0.40268   0.00000  Uiso   1.00
C283   C     0.84519   0.64543   0.28882   0.00000  Uiso   1.00
C284   C     0.80874   0.48840   0.34827   0.00000  Uiso   1.00
C285   C     0.84513   0.35506   0.28852   0.00000  Uiso   1.00
C286   C     0.83417   0.37602   0.24713   0.00000  Uiso   1.00
C287   C     0.82424   0.35492   0.20470   0.00000  Uiso   1.00
C288   C     0.82398   0.64481   0.20510   0.00000  Uiso   1.00
C289   C     0.83408   0.62402   0.24769   0.00000  Uiso   1.00
C290   C     0.98540   0.47417   0.21618   0.00000  Uiso   1.00
C291   C     0.69993   0.47417   0.21614   0.00000  Uiso   1.00
C292   C     0.81745   0.46606   0.48543   0.00000  Uiso   1.00
C293   C     0.68124   0.52590   0.28381   0.00000  Uiso   1.00
C294   C     0.96669   0.52594   0.28375   0.00000  Uiso   1.00
C295   C     0.83364   0.42011   0.24881   0.00000  Uiso   1.00
C296   C     0.85947   0.50031   0.14768   0.00000  Uiso   1.00
C297   C     0.93489   0.49678   0.00018   0.00000  Uiso   1.00
C298   C     0.87511   0.49658   0.08865   0.00000  Uiso   1.00
C299   C     0.74989   0.45536   0.43078   0.00000  Uiso   1.00
C300   C     0.73658   0.44943   0.48677   0.00000  Uiso   1.00
C301   C     0.76909   0.45747   0.01445   0.00000  Uiso   1.00
C302   C     0.83137   0.46459   0.42860   0.00000  Uiso   1.00
C303   C     0.85268   0.47642   0.00988   0.00000  Uiso   1.00
C304   C     0.90090   0.48186   0.47722   0.00000  Uiso   1.00
C305   C     0.91416   0.47134   0.42239   0.00000  Uiso   1.00
C306   C     0.88000   0.45939   0.39962   0.00000  Uiso   1.00
C307   C     0.84094   0.48375   0.06523   0.00000  Uiso   1.00
C308   C     0.92229   0.50414   0.05569   0.00000  Uiso   1.00
Cl309  Cl    0.96656   0.52398   0.08133   0.00000  Uiso   1.00
Cl310  Cl    0.81483   0.38255   0.15002   0.00000  Uiso   1.00
Cl311  Cl    0.81321   0.61674   0.15144   0.00000  Uiso   1.00
Cl312  Cl    0.71164   0.43839   0.39556   0.00000  Uiso   1.00
F313   F     0.73177   0.44826   0.18202   0.00000  Uiso   1.00
F314   F     0.69436   0.55175   0.31791   0.00000  Uiso   1.00
F315   F     0.93471   0.55194   0.31769   0.00000  Uiso   1.00
F316   F     0.95989   0.47321   0.38997   0.00000  Uiso   1.00
F317   F     0.98014   0.50521   0.46870   0.00000  Uiso   1.00
F318   F     0.69193   0.43636   0.01470   0.00000  Uiso   1.00
F319   F     0.89465   0.44129   0.34984   0.00000  Uiso   1.00
F320   F     0.85484   0.62467   0.32972   0.00000  Uiso   1.00
H321   H     0.85284   0.37203   0.32086   0.00000  Uiso   1.00
H322   H     0.97480   0.45352   0.18907   0.00000  Uiso   1.00
H323   H     0.80484   0.47983   0.09102   0.00000  Uiso   1.00
H324   H     0.75603   0.45414   0.05786   0.00000  Uiso   1.00
N325   N     0.71426   0.50001   0.25002   0.00000  Uiso   1.00
N326   N     0.95239   0.49998   0.25001   0.00000  Uiso   1.00
O327   O     0.79512   0.56108   0.25001   0.00000  Uiso   1.00
O328   O     0.87157   0.56107   0.25001   0.00000  Uiso   1.00
O329   O     0.77613   0.50000   0.32681   0.00000  Uiso   1.00
O330   O     0.85258   0.49999   0.32681   0.00000  Uiso   1.00
O331   O     0.79510   0.43893   0.25000   0.00000  Uiso   1.00
O332   O     0.87154   0.43892   0.25000   0.00000  Uiso   1.00
O333   O     0.81409   0.50001   0.17319   0.00000  Uiso   1.00
O334   O     0.89053   0.50000   0.17319   0.00000  Uiso   1.00
Zn335  Zn    0.78229   0.50001   0.25000   0.00000  Uiso   1.00
Zn336  Zn    0.88438   0.49999   0.25000   0.00000  Uiso   1.00
C337   C     0.16685   0.91323   0.24947   0.00000  Uiso   1.00
C338   C     0.12957   0.80212   0.40268   0.00000  Uiso   1.00
C339   C     0.17853   0.97877   0.28882   0.00000  Uiso   1.00
C340   C     0.14207   0.82173   0.34827   0.00000  Uiso   1.00
C341   C     0.17846   0.68839   0.28852   0.00000  Uiso   1.00
C342   C     0.16751   0.70935   0.24713   0.00000  Uiso   1.00
C343   C     0.15758   0.68825   0.20470   0.00000  Uiso   1.00
C344   C     0.15731   0.97814   0.20510   0.00000  Uiso   1.00
C345   C     0.16741   0.95736   0.24769   0.00000  Uiso   1.00
C346   C     0.31873   0.80750   0.21618   0.00000  Uiso   1.00
C347   C     0.03327   0.80751   0.21614   0.00000  Uiso   1.00
C348   C     0.15078   0.79940   0.48543   0.00000  Uiso   1.00
C349   C     0.01457   0.85923   0.28381   0.00000  Uiso   1.00
C350   C     0.30002   0.85928   0.28375   0.00000  Uiso   1.00
C351   C     0.16698   0.75344   0.24881   0.00000  Uiso   1.00
C352   C     0.19280   0.83364   0.14768   0.00000  Uiso   1.00
C353   C     0.26822   0.83011   0.00018   0.00000  Uiso   1.00
C354   C     0.20844   0.82992   0.08865   0.00000  Uiso   1.00
C355   C     0.08323   0.78869   0.43078   0.00000  Uiso   1.00
C356   C     0.06991   0.78276   0.48677   0.00000  Uiso   1.00
C357   C     0.10242   0.79080   0.01445   0.00000  Uiso   1.00
C358   C     0.16470   0.79793   0.42860   0.00000  Uiso   1.00
C359   C     0.18601   0.80976   0.00988   0.00000  Uiso   1.00
C360   C     0.23424   0.81520   0.47722   0.00000  Uiso   1.00
C361   C     0.24750   0.80467   0.42239   0.00000  Uiso   1.00
C362   C     0.21333   0.79273   0.39962   0.00000  Uiso   1.00
C363   C     0.17428   0.81709   0.06523   0.00000  Uiso   1.00
C364   C     0.25562   0.83747   0.05569   0.00000  Uiso   1.00
Cl365  Cl    0.29990   0.85732   0.08133   0.00000  Uiso   1.00
Cl366  Cl    0.14816   0.71588   0.15002   0.00000  Uiso   1.00
Cl367  Cl    0.14655   0.95007   0.15144   0.00000  Uiso   1.00
Cl368  Cl    0.04497   0.77173   0.39556   0.00000  Uiso   1.00
F369   F     0.06511   0.78159   0.18202   0.00000  Uiso   1.00
F370   F     0.02769   0.88508   0.31791   0.00000  Uiso   1.00
F371   F     0.26805   0.88528   0.31769   0.00000  Uiso   1.00
F372   F     0.29322   0.80655   0.38997   0.00000  Uiso   1.00
F373   F     0.31347   0.83854   0.46870   0.00000  Uiso   1.00
F374   F     0.02527   0.76969   0.01470   0.00000  Uiso   1.00
F375   F     0.22799   0.77462   0.34984   0.00000  Uiso   1.00
F376   F     0.18818   0.95801   0.32972   0.00000  Uiso   1.00
H377   H     0.18617   0.70537   0.32086   0.00000  Uiso   1.00
H378   H     0.30814   0.78685   0.18907   0.00000  Uiso   1.00
H379   H     0.13818   0.81317   0.09102   0.00000  Uiso   1.00
H380   H     0.08936   0.78748   0.05786   0.00000  Uiso   1.00
N381   N     0.04760   0.83334   0.25002   0.00000  Uiso   1.00
N382   N     0.28573   0.83331   0.25001   0.00000  Uiso   1.00
O383   O     0.12846   0.89442   0.25001   0.00000  Uiso   1.00
O384   O     0.20490   0.89441   0.25001   0.00000  Uiso   1.00
O385   O     0.10947   0.83333   0.32681   0.00000  Uiso   1.00
O386   O     0.18591   0.83332   0.32681   0.00000  Uiso   1.00
O387   O     0.12843   0.77226   0.25000   0.00000  Uiso   1.00
O388   O     0.20488   0.77225   0.25000   0.00000  Uiso   1.00
O389   O     0.14742   0.83335   0.17319   0.00000  Uiso   1.00
O390   O     0.22387   0.83334   0.17319   0.00000  Uiso   1.00
Zn391  Zn    0.11562   0.83334   0.25000   0.00000  Uiso   1.00
Zn392  Zn    0.21771   0.83333   0.25000   0.00000  Uiso   1.00
C393   C     0.50018   0.91323   0.24947   0.00000  Uiso   1.00
C394   C     0.46291   0.80212   0.40268   0.00000  Uiso   1.00
C395   C     0.51186   0.97877   0.28882   0.00000  Uiso   1.00
C396   C     0.47541   0.82173   0.34827   0.00000  Uiso   1.00
C397   C     0.51180   0.68839   0.28852   0.00000  Uiso   1.00
C398   C     0.50084   0.70935   0.24713   0.00000  Uiso   1.00
C399   C     0.49091   0.68825   0.20470   0.00000  Uiso   1.00
C400   C     0.49064   0.97814   0.20510   0.00000  Uiso   1.00
C401   C     0.50074   0.95736   0.24769   0.00000  Uiso   1.00
C402   C     0.65206   0.80750   0.21618   0.00000  Uiso   1.00
C403   C     0.36660   0.80751   0.21614   0.00000  Uiso   1.00
C404   C     0.48411   0.79940   0.48543   0.00000  Uiso   1.00
C405   C     0.34790   0.85923   0.28381   0.00000  Uiso   1.00
C406   C     0.63335   0.85928   0.28375   0.00000  Uiso   1.00
C407   C     0.50031   0.75344   0.24881   0.00000  Uiso   1.00
C408   C     0.52614   0.83364   0.14768   0.00000  Uiso   1.00
C409   C     0.60155   0.83011   0.00018   0.00000  Uiso   1.00
C410   C     0.54177   0.82992   0.08865   0.00000  Uiso   1.00
C411   C     0.41656   0.78869   0.43078   0.00000  Uiso   1.00
C412   C     0.40324   0.78276   0.48677   0.00000  Uiso   1.00
C413   C     0.43576   0.79080   0.01445   0.00000  Uiso   1.00
C414   C     0.49803   0.79793   0.42860   0.00000  Uiso   1.00
C415   C     0.51935   0.80976   0.00988   0.00000  Uiso   1.00
C416   C     0.56757   0.81520   0.47722   0.00000  Uiso   1.00
C417   C     0.58083   0.80467   0.42239   0.00000  Uiso   1.00
C418   C     0.54667   0.79273   0.39962   0.00000  Uiso   1.00
C419   C     0.50761   0.81709   0.06523   0.00000  Uiso   1.00
C420   C     0.58896   0.83747   0.05569   0.00000  Uiso   1.00
Cl421  Cl    0.63323   0.85732   0.08133   0.00000  Uiso   1.00
Cl422  Cl    0.48150   0.71588   0.15002   0.00000  Uiso   1.00
Cl423  Cl    0.47988   0.95007   0.15144   0.00000  Uiso   1.00
Cl424  Cl    0.37830   0.77173   0.39556   0.00000  Uiso   1.00
F425   F     0.39844   0.78159   0.18202   0.00000  Uiso   1.00
F426   F     0.36103   0.88508   0.31791   0.00000  Uiso   1.00
F427   F     0.60138   0.88528   0.31769   0.00000  Uiso   1.00
F428   F     0.62656   0.80655   0.38997   0.00000  Uiso   1.00
F429   F     0.64680   0.83854   0.46870   0.00000  Uiso   1.00
F430   F     0.35860   0.76969   0.01470   0.00000  Uiso   1.00
F431   F     0.56132   0.77462   0.34984   0.00000  Uiso   1.00
F432   F     0.52151   0.95801   0.32972   0.00000  Uiso   1.00
H433   H     0.51951   0.70537   0.32086   0.00000  Uiso   1.00
H434   H     0.64147   0.78685   0.18907   0.00000  Uiso   1.00
H435   H     0.47151   0.81317   0.09102   0.00000  Uiso   1.00
H436   H     0.42270   0.78748   0.05786   0.00000  Uiso   1.00
N437   N     0.38093   0.83334   0.25002   0.00000  Uiso   1.00
N438   N     0.61906   0.83331   0.25001   0.00000  Uiso   1.00
O439   O     0.46179   0.89442   0.25001   0.00000  Uiso   1.00
O440   O     0.53823   0.89441   0.25001   0.00000  Uiso   1.00
O441   O     0.44280   0.83333   0.32681   0.00000  Uiso   1.00
O442   O     0.51924   0.83332   0.32681   0.00000  Uiso   1.00
O443   O     0.46177   0.77226   0.25000   0.00000  Uiso   1.00
O444   O     0.53821   0.77225   0.25000   0.00000  Uiso   1.00
O445   O     0.48076   0.83335   0.17319   0.00000  Uiso   1.00
O446   O     0.55720   0.83334   0.17319   0.00000  Uiso   1.00
Zn447  Zn    0.44896   0.83334   0.25000   0.00000  Uiso   1.00
Zn448  Zn    0.55104   0.83333   0.25000   0.00000  Uiso   1.00
C449   C     0.83351   0.91323   0.24947   0.00000  Uiso   1.00
C450   C     0.79624   0.80212   0.40268   0.00000  Uiso   1.00
C451   C     0.84519   0.97877   0.28882   0.00000  Uiso   1.00
C452   C     0.80874   0.82173   0.34827   0.00000  Uiso   1.00
C453   C     0.84513   0.68839   0.28852   0.00000  Uiso   1.00
C454   C     0.83417   0.70935   0.24713   0.00000  Uiso   1.00
C455   C     0.82424   0.68825   0.20470   0.00000  Uiso   1.00
C456   C     0.82398   0.97814   0.20510   0.00000  Uiso   1.00
C457   C     0.83408   0.95736   0.24769   0.00000  Uiso   1.00
C458   C     0.98540   0.80750   0.21618   0.00000  Uiso   1.00
C459   C     0.69993   0.80751   0.21614   0.00000  Uiso   1.00
C460   C     0.81745   0.79940   0.48543   0.00000  Uiso   1.00
C461   C     0.68124   0.85923   0.28381   0.00000  Uiso   1.00
C462   C     0.96669   0.85928   0.28375   0.00000  Uiso   1.00
C463   C     0.83364   0.75344   0.24881   0.00000  Uiso   1.00
C464   C     0.85947   0.83364   0.14768   0.00000  Uiso   1.00
C465   C     0.93489   0.83011   0.00018   0.00000  Uiso   1.00
C466   C     0.87511   0.82992   0.08865   0.00000  Uiso   1.00
C467   C     0.74989   0.78869   0.43078   0.00000  Uiso   1.00
C468   C     0.73658   0.78276   0.48677   0.00000  Uiso   1.00
C469   C     0.76909   0.79080   0.01445   0.00000  Uiso   1.00
C470   C     0.83137   0.79793   0.42860   0.00000  Uiso   1.00
C471   C     0.85268   0.80976   0.00988   0.00000  Uiso   1.00
C472   C     0.90090   0.81520   0.47722   0.00000  Uiso   1.00
C473   C     0.91416   0.80467   0.42239   0.00000  Uiso   1.00
C474   C     0.88000   0.79273   0.39962   0.00000  Uiso   1.00
C475   C     0.84094   0.81709   0.06523   0.00000  Uiso   1.00
C476   C     0.92229   0.83747   0.05569   0.00000  Uiso   1.00
Cl477  Cl    0.96656   0.85732   0.08133   0.00000  Uiso   1.00
Cl478  Cl    0.81483   0.71588   0.15002   0.00000  Uiso   1.00
Cl479  Cl    0.81321   0.95007   0.15144   0.00000  Uiso   1.00
Cl480  Cl    0.71164   0.77173   0.39556   0.00000  Uiso   1.00
F481   F     0.73177   0.78159   0.18202   0.00000  Uiso   1.00
F482   F     0.69436   0.88508   0.31791   0.00000  Uiso   1.00
F483   F     0.93471   0.88528   0.31769   0.00000  Uiso   1.00
F484   F     0.95989   0.80655   0.38997   0.00000  Uiso   1.00
F485   F     0.98014   0.83854   0.46870   0.00000  Uiso   1.00
F486   F     0.69193   0.76969   0.01470   0.00000  Uiso   1.00
F487   F     0.89465   0.77462   0.34984   0.00000  Uiso   1.00
F488   F     0.85484   0.95801   0.32972   0.00000  Uiso   1.00
H489   H     0.85284   0.70537   0.32086   0.00000  Uiso   1.00
H490   H     0.97480   0.78685   0.18907   0.00000  Uiso   1.00
H491   H     0.80484   0.81317   0.09102   0.00000  Uiso   1.00
H492   H     0.75603   0.78748   0.05786   0.00000  Uiso   1.00
N493   N     0.71426   0.83334   0.25002   0.00000  Uiso   1.00
N494   N     0.95239   0.83331   0.25001   0.00000  Uiso   1.00
O495   O     0.79512   0.89442   0.25001   0.00000  Uiso   1.00
O496   O     0.87157   0.89441   0.25001   0.00000  Uiso   1.00
O497   O     0.77613   0.83333   0.32681   0.00000  Uiso   1.00
O498   O     0.85258   0.83332   0.32681   0.00000  Uiso   1.00
O499   O     0.79510   0.77226   0.25000   0.00000  Uiso   1.00
O500   O     0.87154   0.77225   0.25000   0.00000  Uiso   1.00
O501   O     0.81409   0.83335   0.17319   0.00000  Uiso   1.00
O502   O     0.89053   0.83334   0.17319   0.00000  Uiso   1.00
Zn503  Zn    0.78229   0.83334   0.25000   0.00000  Uiso   1.00
Zn504  Zn    0.88438   0.83333   0.25000   0.00000  Uiso   1.00
C505   C     0.16685   0.24656   0.74947   0.00000  Uiso   1.00
C506   C     0.12957   0.13546   0.90268   0.00000  Uiso   1.00
C507   C     0.17853   0.31210   0.78882   0.00000  Uiso   1.00
C508   C     0.14207   0.15507   0.84827   0.00000  Uiso   1.00
C509   C     0.17846   0.02173   0.78852   0.00000  Uiso   1.00
C510   C     0.16751   0.04268   0.74713   0.00000  Uiso   1.00
C511   C     0.15758   0.02159   0.70470   0.00000  Uiso   1.00
C512   C     0.15731   0.31148   0.70510   0.00000  Uiso   1.00
C513   C     0.16741   0.29069   0.74769   0.00000  Uiso   1.00
C514   C     0.31873   0.14083   0.71618   0.00000  Uiso   1.00
C515   C     0.03327   0.14084   0.71614   0.00000  Uiso   1.00
C516   C     0.15078   0.13273   0.98543   0.00000  Uiso   1.00
C517   C     0.01457   0.19257   0.78381   0.00000  Uiso   1.00
C518   C     0.30002   0.19261   0.78375   0.00000  Uiso   1.00
C519   C     0.16698   0.08677   0.74881   0.00000  Uiso   1.00
C520   C     0.19280   0.16698   0.64768   0.00000  Uiso   1.00
C521   C     0.26822   0.16344   0.50018   0.00000  Uiso   1.00
C522   C     0.20844   0.16325   0.58865   0.00000  Uiso   1.00
C523   C     0.08323   0.12202   0.93078   0.00000  Uiso   1.00
C524   C     0.06991   0.11609   0.98677   0.00000  Uiso   1.00
C525   C     0.10242   0.12413   0.51445   0.00000  Uiso   1.00
C526   C     0.16470   0.13126   0.92860   0.00000  Uiso   1.00
C527   C     0.18601   0.14309   0.50988   0.00000  Uiso   1.00
C528   C     0.23424   0.14853   0.97722   0.00000  Uiso   1.00
C529   C     0.24750   0.13800   0.92239   0.00000  Uiso   1.00
C530   C     0.21333   0.12606   0.89962   0.00000  Uiso   1.00
C531   C     0.17428   0.15042   0.56523   0.00000  Uiso   1.00
C532   C     0.25562   0.17081   0.55569   0.00000  Uiso   1.00
Cl533  Cl    0.29990   0.19065   0.58133   0.00000  Uiso   1.00
Cl534  Cl    0.14816   0.04922   0.65002   0.00000  Uiso   1.00
Cl535  Cl    0.14655   0.28341   0.65144   0.00000  Uiso   1.00
Cl536  Cl    0.04497   0.10506   0.89556   0.00000  Uiso   1.00
F537   F     0.06511   0.11493   0.68202   0.00000  Uiso   1.00
F538   F     0.02769   0.21841   0.81791   0.00000  Uiso   1.00
F539   F     0.26805   0.21861   0.81769   0.00000  Uiso   1.00
F540   F     0.29322   0.13988   0.88997   0.00000  Uiso   1.00
F541   F     0.31347   0.17188   0.96870   0.00000  Uiso   1.00
F542   F     0.02527   0.10302   0.51470   0.00000  Uiso   1.00
F543   F     0.22799   0.10795   0.84984   0.00000  Uiso   1.00
F544   F     0.18818   0.29134   0.82972   0.00000  Uiso   1.00
H545   H     0.18617   0.03870   0.82086   0.00000  Uiso   1.00
H546   H     0.30814   0.12018   0.68907   0.00000  Uiso   1.00
H547   H     0.13818   0.14650   0.59102   0.00000  Uiso   1.00
H548   H     0.08936   0.12081   0.55786   0.00000  Uiso   1.00
N549   N     0.04760   0.16668   0.75002   0.00000  Uiso   1.00
N550   N     0.28573   0.16665   0.75001   0.00000  Uiso   1.00
O551   O     0.12846   0.22775   0.75001   0.00000  Uiso   1.00
O552   O     0.20490   0.22774   0.75001   0.00000  Uiso   1.00
O553   O     0.10947   0.16666   0.82681   0.00000  Uiso   1.00
O554   O     0.18591   0.16665   0.82681   0.00000  Uiso   1.00
O555   O     0.12843   0.10559   0.75000   0.00000  Uiso   1.00
O556   O     0.20488   0.10558   0.75000   0.00000  Uiso   1.00
O557   O     0.14742   0.16668   0.67319   0.00000  Uiso   1.00
O558   O     0.22387   0.16667   0.67319   0.00000  Uiso   1.00
Zn559  Zn    0.11562   0.16667   0.75000   0.00000  Uiso   1.00
Zn560  Zn    0.21771   0.16666   0.75000   0.00000  Uiso   1.00
C561   C     0.50018   0.24656   0.74947   0.00000  Uiso   1.00
C562   C     0.46291   0.13546   0.90268   0.00000  Uiso   1.00
C563   C     0.51186   0.31210   0.78882   0.00000  Uiso   1.00
C564   C     0.47541   0.15507   0.84827   0.00000  Uiso   1.00
C565   C     0.51180   0.02173   0.78852   0.00000  Uiso   1.00
C566   C     0.50084   0.04268   0.74713   0.00000  Uiso   1.00
C567   C     0.49091   0.02159   0.70470   0.00000  Uiso   1.00
C568   C     0.49064   0.31148   0.70510   0.00000  Uiso   1.00
C569   C     0.50074   0.29069   0.74769   0.00000  Uiso   1.00
C570   C     0.65206   0.14083   0.71618   0.00000  Uiso   1.00
C571   C     0.36660   0.14084   0.71614   0.00000  Uiso   1.00
C572   C     0.48411   0.13273   0.98543   0.00000  Uiso   1.00
C573   C     0.34790   0.19257   0.78381   0.00000  Uiso   1.00
C574   C     0.63335   0.19261   0.78375   0.00000  Uiso   1.00
C575   C     0.50031   0.08677   0.74881   0.00000  Uiso   1.00
C576   C     0.52614   0.16698   0.64768   0.00000  Uiso   1.00
C577   C     0.60155   0.16344   0.50018   0.00000  Uiso   1.00
C578   C     0.54177   0.16325   0.58865   0.00000  Uiso   1.00
C579   C     0.41656   0.12202   0.93078   0.00000  Uiso   1.00
C580   C     0.40324   0.11609   0.98677   0.00000  Uiso   1.00
C581   C     0.43576   0.12413   0.51445   0.00000  Uiso   1.00
C582   C     0.49803   0.13126   0.92860   0.00000  Uiso   1.00
C583   C     0.51935   0.14309   0.50988   0.00000  Uiso   1.00
C584   C     0.56757   0.14853   0.97722   0.00000  Uiso   1.00
C585   C     0.58083   0.13800   0.92239   0.00000  Uiso   1.00
C586   C     0.54667   0.12606   0.89962   0.00000  Uiso   1.00
C587   C     0.50761   0.15042   0.56523   0.00000  Uiso   1.00
C588   C     0.58896   0.17081   0.55569   0.00000  Uiso   1.00
Cl589  Cl    0.63323   0.19065   0.58133   0.00000  Uiso   1.00
Cl590  Cl    0.48150   0.04922   0.65002   0.00000  Uiso   1.00
Cl591  Cl    0.47988   0.28341   0.65144   0.00000  Uiso   1.00
Cl592  Cl    0.37830   0.10506   0.89556   0.00000  Uiso   1.00
F593   F     0.39844   0.11493   0.68202   0.00000  Uiso   1.00
F594   F     0.36103   0.21841   0.81791   0.00000  Uiso   1.00
F595   F     0.60138   0.21861   0.81769   0.00000  Uiso   1.00
F596   F     0.62656   0.13988   0.88997   0.00000  Uiso   1.00
F597   F     0.64680   0.17188   0.96870   0.00000  Uiso   1.00
F598   F     0.35860   0.10302   0.51470   0.00000  Uiso   1.00
F599   F     0.56132   0.10795   0.84984   0.00000  Uiso   1.00
F600   F     0.52151   0.29134   0.82972   0.00000  Uiso   1.00
H601   H     0.51951   0.03870   0.82086   0.00000  Uiso   1.00
H602   H     0.64147   0.12018   0.68907   0.00000  Uiso   1.00
H603   H     0.47151   0.14650   0.59102   0.00000  Uiso   1.00
H604   H     0.42270   0.12081   0.55786   0.00000  Uiso   1.00
N605   N     0.38093   0.16668   0.75002   0.00000  Uiso   1.00
N606   N     0.61906   0.16665   0.75001   0.00000  Uiso   1.00
O607   O     0.46179   0.22775   0.75001   0.00000  Uiso   1.00
O608   O     0.53823   0.22774   0.75001   0.00000  Uiso   1.00
O609   O     0.44280   0.16666   0.82681   0.00000  Uiso   1.00
O610   O     0.51924   0.16665   0.82681   0.00000  Uiso   1.00
O611   O     0.46177   0.10559   0.75000   0.00000  Uiso   1.00
O612   O     0.53821   0.10558   0.75000   0.00000  Uiso   1.00
O613   O     0.48076   0.16668   0.67319   0.00000  Uiso   1.00
O614   O     0.55720   0.16667   0.67319   0.00000  Uiso   1.00
Zn615  Zn    0.44896   0.16667   0.75000   0.00000  Uiso   1.00
Zn616  Zn    0.55104   0.16666   0.75000   0.00000  Uiso   1.00
C617   C     0.83351   0.24656   0.74947   0.00000  Uiso   1.00
C618   C     0.79624   0.13546   0.90268   0.00000  Uiso   1.00
C619   C     0.84519   0.31210   0.78882   0.00000  Uiso   1.00
C620   C     0.80874   0.15507   0.84827   0.00000  Uiso   1.00
C621   C     0.84513   0.02173   0.78852   0.00000  Uiso   1.00
C622   C     0.83417   0.04268   0.74713   0.00000  Uiso   1.00
C623   C     0.82424   0.02159   0.70470   0.00000  Uiso   1.00
C624   C     0.82398   0.31148   0.70510   0.00000  Uiso   1.00
C625   C     0.83408   0.29069   0.74769   0.00000  Uiso   1.00
C626   C     0.98540   0.14083   0.71618   0.00000  Uiso   1.00
C627   C     0.69993   0.14084   0.71614   0.00000  Uiso   1.00
C628   C     0.81745   0.13273   0.98543   0.00000  Uiso   1.00
C629   C     0.68124   0.19257   0.78381   0.00000  Uiso   1.00
C630   C     0.96669   0.19261   0.78375   0.00000  Uiso   1.00
C631   C     0.83364   0.08677   0.74881   0.00000  Uiso   1.00
C632   C     0.85947   0.16698   0.64768   0.00000  Uiso   1.00
C633   C     0.93489   0.16344   0.50018   0.00000  Uiso   1.00
C634   C     0.87511   0.16325   0.58865   0.00000  Uiso   1.00
C635   C     0.74989   0.12202   0.93078   0.00000  Uiso   1.00
C636   C     0.73658   0.11609   0.98677   0.00000  Uiso   1.00
C637   C     0.76909   0.12413   0.51445   0.00000  Uiso   1.00
C638   C     0.83137   0.13126   0.92860   0.00000  Uiso   1.00
C639   C     0.85268   0.14309   0.50988   0.00000  Uiso   1.00
C640   C     0.90090   0.14853   0.97722   0.00000  Uiso   1.00
C641   C     0.91416   0.13800   0.92239   0.00000  Uiso   1.00
C642   C     0.88000   0.12606   0.89962   0.00000  Uiso   1.00
C643   C     0.84094   0.15042   0.56523   0.00000  Uiso   1.00
C644   C     0.92229   0.17081   0.55569   0.00000  Uiso   1.00
Cl645  Cl    0.96656   0.19065   0.58133   0.00000  Uiso   1.00
Cl646  Cl    0.81483   0.04922   0.65002   0.00000  Uiso   1.00
Cl647  Cl    0.81321   0.28341   0.65144   0.00000  Uiso   1.00
Cl648  Cl    0.71164   0.10506   0.89556   0.00000  Uiso   1.00
F649   F     0.73177   0.11493   0.68202   0.00000  Uiso   1.00
F650   F     0.69436   0.21841   0.81791   0.00000  Uiso   1.00
F651   F     0.93471   0.21861   0.81769   0.00000  Uiso   1.00
F652   F     0.95989   0.13988   0.88997   0.00000  Uiso   1.00
F653   F     0.98014   0.17188   0.96870   0.00000  Uiso   1.00
F654   F     0.69193   0.10302   0.51470   0.00000  Uiso   1.00
F655   F     0.89465   0.10795   0.84984   0.00000  Uiso   1.00
F656   F     0.85484   0.29134   0.82972   0.00000  Uiso   1.00
H657   H     0.85284   0.03870   0.82086   0.00000  Uiso   1.00
H658   H     0.97480   0.12018   0.68907   0.00000  Uiso   1.00
H659   H     0.80484   0.14650   0.59102   0.00000  Uiso   1.00
H660   H     0.75603   0.12081   0.55786   0.00000  Uiso   1.00
N661   N     0.71426   0.16668   0.75002   0.00000  Uiso   1.00
N662   N     0.95239   0.16665   0.75001   0.00000  Uiso   1.00
O663   O     0.79512   0.22775   0.75001   0.00000  Uiso   1.00
O664   O     0.87157   0.22774   0.75001   0.00000  Uiso   1.00
O665   O     0.77613   0.16666   0.82681   0.00000  Uiso   1.00
O666   O     0.85258   0.16665   0.82681   0.00000  Uiso   1.00
O667   O     0.79510   0.10559   0.75000   0.00000  Uiso   1.00
O668   O     0.87154   0.10558   0.75000   0.00000  Uiso   1.00
O669   O     0.81409   0.16668   0.67319   0.00000  Uiso   1.00
O670   O     0.89053   0.16667   0.67319   0.00000  Uiso   1.00
Zn671  Zn    0.78229   0.16667   0.75000   0.00000  Uiso   1.00
Zn672  Zn    0.88438   0.16666   0.75000   0.00000  Uiso   1.00
C673   C     0.16685   0.57989   0.74947   0.00000  Uiso   1.00
C674   C     0.12957   0.46879   0.90268   0.00000  Uiso   1.00
C675   C     0.17853   0.64543   0.78882   0.00000  Uiso   1.00
C676   C     0.14207   0.48840   0.84827   0.00000  Uiso   1.00
C677   C     0.17846   0.35506   0.78852   0.00000  Uiso   1.00
C678   C     0.16751   0.37602   0.74713   0.00000  Uiso   1.00
C679   C     0.15758   0.35492   0.70470   0.00000  Uiso   1.00
C680   C     0.15731   0.64481   0.70510   0.00000  Uiso   1.00
C681   C     0.16741   0.62402   0.74769   0.00000  Uiso   1.00
C682   C     0.31873   0.47417   0.71618   0.00000  Uiso   1.00
C683   C     0.03327   0.47417   0.71614   0.00000  Uiso   1.00
C684   C     0.15078   0.46606   0.98543   0.00000  Uiso   1.00
C685   C     0.01457   0.52590   0.78381   0.00000  Uiso   1.00
C686   C     0.30002   0.52594   0.78375   0.00000  Uiso   1.00
C687   C     0.16698   0.42011   0.74881   0.00000  Uiso   1.00
C688   C     0.19280   0.50031   0.64768   0.00000  Uiso   1.00
C689   C     0.26822   0.49678   0.50018   0.00000  Uiso   1.00
C690   C     0.20844   0.49658   0.58865   0.00000  Uiso   1.00
C691   C     0.08323   0.45536   0.93078   0.00000  Uiso   1.00
C692   C     0.06991   0.44943   0.98677   0.00000  Uiso   1.00
C693   C     0.10242   0.45747   0.51445   0.00000  Uiso   1.00
C694   C     0.16470   0.46459   0.92860   0.00000  Uiso   1.00
C695   C     0.18601   0.47642   0.50988   0.00000  Uiso   1.00
C696   C     0.23424   0.48186   0.97722   0.00000  Uiso   1.00
C697   C     0.24750   0.47134   0.92239   0.00000  Uiso   1.00
C698   C     0.21333   0.45939   0.89962   0.00000  Uiso   1.00
C699   C     0.17428   0.48375   0.56523   0.00000  Uiso   1.00
C700   C     0.25562   0.50414   0.55569   0.00000  Uiso   1.00
Cl701  Cl    0.29990   0.52398   0.58133   0.00000  Uiso   1.00
Cl702  Cl    0.14816   0.38255   0.65002   0.00000  Uiso   1.00
Cl703  Cl    0.14655   0.61674   0.65144   0.00000  Uiso   1.00
Cl704  Cl    0.04497   0.43839   0.89556   0.00000  Uiso   1.00
F705   F     0.06511   0.44826   0.68202   0.00000  Uiso   1.00
F706   F     0.02769   0.55175   0.81791   0.00000  Uiso   1.00
F707   F     0.26805   0.55194   0.81769   0.00000  Uiso   1.00
F708   F     0.29322   0.47321   0.88997   0.00000  Uiso   1.00
F709   F     0.31347   0.50521   0.96870   0.00000  Uiso   1.00
F710   F     0.02527   0.43636   0.51470   0.00000  Uiso   1.00
F711   F     0.22799   0.44129   0.84984   0.00000  Uiso   1.00
F712   F     0.18818   0.62467   0.82972   0.00000  Uiso   1.00
H713   H     0.18617   0.37203   0.82086   0.00000  Uiso   1.00
H714   H     0.30814   0.45352   0.68907   0.00000  Uiso   1.00
H715   H     0.13818   0.47983   0.59102   0.00000  Uiso   1.00
H716   H     0.08936   0.45414   0.55786   0.00000  Uiso   1.00
N717   N     0.04760   0.50001   0.75002   0.00000  Uiso   1.00
N718   N     0.28573   0.49998   0.75001   0.00000  Uiso   1.00
O719   O     0.12846   0.56108   0.75001   0.00000  Uiso   1.00
O720   O     0.20490   0.56107   0.75001   0.00000  Uiso   1.00
O721   O     0.10947   0.50000   0.82681   0.00000  Uiso   1.00
O722   O     0.18591   0.49999   0.82681   0.00000  Uiso   1.00
O723   O     0.12843   0.43893   0.75000   0.00000  Uiso   1.00
O724   O     0.20488   0.43892   0.75000   0.00000  Uiso   1.00
O725   O     0.14742   0.50001   0.67319   0.00000  Uiso   1.00
O726   O     0.22387   0.50000   0.67319   0.00000  Uiso   1.00
Zn727  Zn    0.11562   0.50001   0.75000   0.00000  Uiso   1.00
Zn728  Zn    0.21771   0.49999   0.75000   0.00000  Uiso   1.00
C729   C     0.50018   0.57989   0.74947   0.00000  Uiso   1.00
C730   C     0.46291   0.46879   0.90268   0.00000  Uiso   1.00
C731   C     0.51186   0.64543   0.78882   0.00000  Uiso   1.00
C732   C     0.47541   0.48840   0.84827   0.00000  Uiso   1.00
C733   C     0.51180   0.35506   0.78852   0.00000  Uiso   1.00
C734   C     0.50084   0.37602   0.74713   0.00000  Uiso   1.00
C735   C     0.49091   0.35492   0.70470   0.00000  Uiso   1.00
C736   C     0.49064   0.64481   0.70510   0.00000  Uiso   1.00
C737   C     0.50074   0.62402   0.74769   0.00000  Uiso   1.00
C738   C     0.65206   0.47417   0.71618   0.00000  Uiso   1.00
C739   C     0.36660   0.47417   0.71614   0.00000  Uiso   1.00
C740   C     0.48411   0.46606   0.98543   0.00000  Uiso   1.00
C741   C     0.34790   0.52590   0.78381   0.00000  Uiso   1.00
C742   C     0.63335   0.52594   0.78375   0.00000  Uiso   1.00
C743   C     0.50031   0.42011   0.74881   0.00000  Uiso   1.00
C744   C     0.52614   0.50031   0.64768   0.00000  Uiso   1.00
C745   C     0.60155   0.49678   0.50018   0.00000  Uiso   1.00
C746   C     0.54177   0.49658   0.58865   0.00000  Uiso   1.00
C747   C     0.41656   0.45536   0.93078   0.00000  Uiso   1.00
C748   C     0.40324   0.44943   0.98677   0.00000  Uiso   1.00
C749   C     0.43576   0.45747   0.51445   0.00000  Uiso   1.00
C750   C     0.49803   0.46459   0.92860   0.00000  Uiso   1.00
C751   C     0.51935   0.47642   0.50988   0.00000  Uiso   1.00
C752   C     0.56757   0.48186   0.97722   0.00000  Uiso   1.00
C753   C     0.58083   0.47134   0.92239   0.00000  Uiso   1.00
C754   C     0.54667   0.45939   0.89962   0.00000  Uiso   1.00
C755   C     0.50761   0.48375   0.56523   0.00000  Uiso   1.00
C756   C     0.58896   0.50414   0.55569   0.00000  Uiso   1.00
Cl757  Cl    0.63323   0.52398   0.58133   0.00000  Uiso   1.00
Cl758  Cl    0.48150   0.38255   0.65002   0.00000  Uiso   1.00
Cl759  Cl    0.47988   0.61674   0.65144   0.00000  Uiso   1.00
Cl760  Cl    0.37830   0.43839   0.89556   0.00000  Uiso   1.00
F761   F     0.39844   0.44826   0.68202   0.00000  Uiso   1.00
F762   F     0.36103   0.55175   0.81791   0.00000  Uiso   1.00
F763   F     0.60138   0.55194   0.81769   0.00000  Uiso   1.00
F764   F     0.62656   0.47321   0.88997   0.00000  Uiso   1.00
F765   F     0.64680   0.50521   0.96870   0.00000  Uiso   1.00
F766   F     0.35860   0.43636   0.51470   0.00000  Uiso   1.00
F767   F     0.56132   0.44129   0.84984   0.00000  Uiso   1.00
F768   F     0.52151   0.62467   0.82972   0.00000  Uiso   1.00
H769   H     0.51951   0.37203   0.82086   0.00000  Uiso   1.00
H770   H     0.64147   0.45352   0.68907   0.00000  Uiso   1.00
H771   H     0.47151   0.47983   0.59102   0.00000  Uiso   1.00
H772   H     0.42270   0.45414   0.55786   0.00000  Uiso   1.00
N773   N     0.38093   0.50001   0.75002   0.00000  Uiso   1.00
N774   N     0.61906   0.49998   0.75001   0.00000  Uiso   1.00
O775   O     0.46179   0.56108   0.75001   0.00000  Uiso   1.00
O776   O     0.53823   0.56107   0.75001   0.00000  Uiso   1.00
O777   O     0.44280   0.50000   0.82681   0.00000  Uiso   1.00
O778   O     0.51924   0.49999   0.82681   0.00000  Uiso   1.00
O779   O     0.46177   0.43893   0.75000   0.00000  Uiso   1.00
O780   O     0.53821   0.43892   0.75000   0.00000  Uiso   1.00
O781   O     0.48076   0.50001   0.67319   0.00000  Uiso   1.00
O782   O     0.55720   0.50000   0.67319   0.00000  Uiso   1.00
Zn783  Zn    0.44896   0.50001   0.75000   0.00000  Uiso   1.00
Zn784  Zn    0.55104   0.49999   0.75000   0.00000  Uiso   1.00
C785   C     0.83351   0.57989   0.74947   0.00000  Uiso   1.00
C786   C     0.79624   0.46879   0.90268   0.00000  Uiso   1.00
C787   C     0.84519   0.64543   0.78882   0.00000  Uiso   1.00
C788   C     0.80874   0.48840   0.84827   0.00000  Uiso   1.00
C789   C     0.84513   0.35506   0.78852   0.00000  Uiso   1.00
C790   C     0.83417   0.37602   0.74713   0.00000  Uiso   1.00
C791   C     0.82424   0.35492   0.70470   0.00000  Uiso   1.00
C792   C     0.82398   0.64481   0.70510   0.00000  Uiso   1.00
C793   C     0.83408   0.62402   0.74769   0.00000  Uiso   1.00
C794   C     0.98540   0.47417   0.71618   0.00000  Uiso   1.00
C795   C     0.69993   0.47417   0.71614   0.00000  Uiso   1.00
C796   C     0.81745   0.46606   0.98543   0.00000  Uiso   1.00
C797   C     0.68124   0.52590   0.78381   0.00000  Uiso   1.00
C798   C     0.96669   0.52594   0.78375   0.00000  Uiso   1.00
C799   C     0.83364   0.42011   0.74881   0.00000  Uiso   1.00
C800   C     0.85947   0.50031   0.64768   0.00000  Uiso   1.00
C801   C     0.93489   0.49678   0.50018   0.00000  Uiso   1.00
C802   C     0.87511   0.49658   0.58865   0.00000  Uiso   1.00
C803   C     0.74989   0.45536   0.93078   0.00000  Uiso   1.00
C804   C     0.73658   0.44943   0.98677   0.00000  Uiso   1.00
C805   C     0.76909   0.45747   0.51445   0.00000  Uiso   1.00
C806   C     0.83137   0.46459   0.92860   0.00000  Uiso   1.00
C807   C     0.85268   0.47642   0.50988   0.00000  Uiso   1.00
C808   C     0.90090   0.48186   0.97722   0.00000  Uiso   1.00
C809   C     0.91416   0.47134   0.92239   0.00000  Uiso   1.00
C810   C     0.88000   0.45939   0.89962   0.00000  Uiso   1.00
C811   C     0.84094   0.48375   0.56523   0.00000  Uiso   1.00
C812   C     0.92229   0.50414   0.55569   0.00000  Uiso   1.00
Cl813  Cl    0.96656   0.52398   0.58133   0.00000  Uiso   1.00
Cl814  Cl    0.81483   0.38255   0.65002   0.00000  Uiso   1.00
Cl815  Cl    0.81321   0.61674   0.65144   0.00000  Uiso   1.00
Cl816  Cl    0.71164   0.43839   0.89556   0.00000  Uiso   1.00
F817   F     0.73177   0.44826   0.68202   0.00000  Uiso   1.00
F818   F     0.69436   0.55175   0.81791   0.00000  Uiso   1.00
F819   F     0.93471   0.55194   0.81769   0.00000  Uiso   1.00
F820   F     0.95989   0.47321   0.88997   0.00000  Uiso   1.00
F821   F     0.98014   0.50521   0.96870   0.00000  Uiso   1.00
F822   F     0.69193   0.43636   0.51470   0.00000  Uiso   1.00
F823   F     0.89465   0.44129   0.84984   0.00000  Uiso   1.00
F824   F     0.85484   0.62467   0.82972   0.00000  Uiso   1.00
H825   H     0.85284   0.37203   0.82086   0.00000  Uiso   1.00
H826   H     0.97480   0.45352   0.68907   0.00000  Uiso   1.00
H827   H     0.80484   0.47983   0.59102   0.00000  Uiso   1.00
H828   H     0.75603   0.45414   0.55786   0.00000  Uiso   1.00
N829   N     0.71426   0.50001   0.75002   0.00000  Uiso   1.00
N830   N     0.95239   0.49998   0.75001   0.00000  Uiso   1.00
O831   O     0.79512   0.56108   0.75001   0.00000  Uiso   1.00
O832   O     0.87157   0.56107   0.75001   0.00000  Uiso   1.00
O833   O     0.77613   0.50000   0.82681   0.00000  Uiso   1.00
O834   O     0.85258   0.49999   0.82681   0.00000  Uiso   1.00
O835   O     0.79510   0.43893   0.75000   0.00000  Uiso   1.00
O836   O     0.87154   0.43892   0.75000   0.00000  Uiso   1.00
O837   O     0.81409   0.50001   0.67319   0.00000  Uiso   1.00
O838   O     0.89053   0.50000   0.67319   0.00000  Uiso   1.00
Zn839  Zn    0.78229   0.50001   0.75000   0.00000  Uiso   1.00
Zn840  Zn    0.88438   0.49999   0.75000   0.00000  Uiso   1.00
C841   C     0.16685   0.91323   0.74947   0.00000  Uiso   1.00
C842   C     0.12957   0.80212   0.90268   0.00000  Uiso   1.00
C843   C     0.17853   0.97877   0.78882   0.00000  Uiso   1.00
C844   C     0.14207   0.82173   0.84827   0.00000  Uiso   1.00
C845   C     0.17846   0.68839   0.78852   0.00000  Uiso   1.00
C846   C     0.16751   0.70935   0.74713   0.00000  Uiso   1.00
C847   C     0.15758   0.68825   0.70470   0.00000  Uiso   1.00
C848   C     0.15731   0.97814   0.70510   0.00000  Uiso   1.00
C849   C     0.16741   0.95736   0.74769   0.00000  Uiso   1.00
C850   C     0.31873   0.80750   0.71618   0.00000  Uiso   1.00
C851   C     0.03327   0.80751   0.71614   0.00000  Uiso   1.00
C852   C     0.15078   0.79940   0.98543   0.00000  Uiso   1.00
C853   C     0.01457   0.85923   0.78381   0.00000  Uiso   1.00
C854   C     0.30002   0.85928   0.78375   0.00000  Uiso   1.00
C855   C     0.16698   0.75344   0.74881   0.00000  Uiso   1.00
C856   C     0.19280   0.83364   0.64768   0.00000  Uiso   1.00
C857   C     0.26822   0.83011   0.50018   0.00000  Uiso   1.00
C858   C     0.20844   0.82992   0.58865   0.00000  Uiso   1.00
C859   C     0.08323   0.78869   0.93078   0.00000  Uiso   1.00
C860   C     0.06991   0.78276   0.98677   0.00000  Uiso   1.00
C861   C     0.10242   0.79080   0.51445   0.00000  Uiso   1.00
C862   C     0.16470   0.79793   0.92860   0.00000  Uiso   1.00
C863   C     0.18601   0.80976   0.50988   0.00000  Uiso   1.00
C864   C     0.23424   0.81520   0.97722   0.00000  Uiso   1.00
C865   C     0.24750   0.80467   0.92239   0.00000  Uiso   1.00
C866   C     0.21333   0.79273   0.89962   0.00000  Uiso   1.00
C867   C     0.17428   0.81709   0.56523   0.00000  Uiso   1.00
C868   C     0.25562   0.83747   0.55569   0.00000  Uiso   1.00
Cl869  Cl    0.29990   0.85732   0.58133   0.00000  Uiso   1.00
Cl870  Cl    0.14816   0.71588   0.65002   0.00000  Uiso   1.00
Cl871  Cl    0.14655   0.95007   0.65144   0.00000  Uiso   1.00
Cl872  Cl    0.04497   0.77173   0.89556   0.00000  Uiso   1.00
F873   F     0.06511   0.78159   0.68202   0.00000  Uiso   1.00
F874   F     0.02769   0.88508   0.81791   0.00000  Uiso   1.00
F875   F     0.26805   0.88528   0.81769   0.00000  Uiso   1.00
F876   F     0.29322   0.80655   0.88997   0.00000  Uiso   1.00
F877   F     0.31347   0.83854   0.96870   0.00000  Uiso   1.00
F878   F     0.02527   0.76969   0.51470   0.00000  Uiso   1.00
F879   F     0.22799   0.77462   0.84984   0.00000  Uiso   1.00
F880   F     0.18818   0.95801   0.82972   0.00000  Uiso   1.00
H881   H     0.18617   0.70537   0.82086   0.00000  Uiso   1.00
H882   H     0.30814   0.78685   0.68907   0.00000  Uiso   1.00
H883   H     0.13818   0.81317   0.59102   0.00000  Uiso   1.00
H884   H     0.08936   0.78748   0.55786   0.00000  Uiso   1.00
N885   N     0.04760   0.83334   0.75002   0.00000  Uiso   1.00
N886   N     0.28573   0.83331   0.75001   0.00000  Uiso   1.00
O887   O     0.12846   0.89442   0.75001   0.00000  Uiso   1.00
O888   O     0.20490   0.89441   0.75001   0.00000  Uiso   1.00
O889   O     0.10947   0.83333   0.82681   0.00000  Uiso   1.00
O890   O     0.18591   0.83332   0.82681   0.00000  Uiso   1.00
O891   O     0.12843   0.77226   0.75000   0.00000  Uiso   1.00
O892   O     0.20488   0.77225   0.75000   0.00000  Uiso   1.00
O893   O     0.14742   0.83335   0.67319   0.00000  Uiso   1.00
O894   O     0.22387   0.83334   0.67319   0.00000  Uiso   1.00
Zn895  Zn    0.11562   0.83334   0.75000   0.00000  Uiso   1.00
Zn896  Zn    0.21771   0.83333   0.75000   0.00000  Uiso   1.00
C897   C     0.50018   0.91323   0.74947   0.00000  Uiso   1.00
C898   C     0.46291   0.80212   0.90268   0.00000  Uiso   1.00
C899   C     0.51186   0.97877   0.78882   0.00000  Uiso   1.00
C900   C     0.47541   0.82173   0.84827   0.00000  Uiso   1.00
C901   C     0.51180   0.68839   0.78852   0.00000  Uiso   1.00
C902   C     0.50084   0.70935   0.74713   0.00000  Uiso   1.00
C903   C     0.49091   0.68825   0.70470   0.00000  Uiso   1.00
C904   C     0.49064   0.97814   0.70510   0.00000  Uiso   1.00
C905   C     0.50074   0.95736   0.74769   0.00000  Uiso   1.00
C906   C     0.65206   0.80750   0.71618   0.00000  Uiso   1.00
C907   C     0.36660   0.80751   0.71614   0.00000  Uiso   1.00
C908   C     0.48411   0.79940   0.98543   0.00000  Uiso   1.00
C909   C     0.34790   0.85923   0.78381   0.00000  Uiso   1.00
C910   C     0.63335   0.85928   0.78375   0.00000  Uiso   1.00
C911   C     0.50031   0.75344   0.74881   0.00000  Uiso   1.00
C912   C     0.52614   0.83364   0.64768   0.00000  Uiso   1.00
C913   C     0.60155   0.83011   0.50018   0.00000  Uiso   1.00
C914   C     0.54177   0.82992   0.58865   0.00000  Uiso   1.00
C915   C     0.41656   0.78869   0.93078   0.00000  Uiso   1.00
C916   C     0.40324   0.78276   0.98677   0.00000  Uiso   1.00
C917   C     0.43576   0.79080   0.51445   0.00000  Uiso   1.00
C918   C     0.49803   0.79793   0.92860   0.00000  Uiso   1.00
C919   C     0.51935   0.80976   0.50988   0.00000  Uiso   1.00
C920   C     0.56757   0.81520   0.97722   0.00000  Uiso   1.00
C921   C     0.58083   0.80467   0.92239   0.00000  Uiso   1.00
C922   C     0.54667   0.79273   0.89962   0.00000  Uiso   1.00
C923   C     0.50761   0.81709   0.56523   0.00000  Uiso   1.00
C924   C     0.58896   0.83747   0.55569   0.00000  Uiso   1.00
Cl925  Cl    0.63323   0.85732   0.58133   0.00000  Uiso   1.00
Cl926  Cl    0.48150   0.71588   0.65002   0.00000  Uiso   1.00
Cl927  Cl    0.47988   0.95007   0.65144   0.00000  Uiso   1.00
Cl928  Cl    0.37830   0.77173   0.89556   0.00000  Uiso   1.00
F929   F     0.39844   0.78159   0.68202   0.00000  Uiso   1.00
F930   F     0.36103   0.88508   0.81791   0.00000  Uiso   1.00
F931   F     0.60138   0.88528   0.81769   0.00000  Uiso   1.00
F932   F     0.62656   0.80655   0.88997   0.00000  Uiso   1.00
F933   F     0.64680   0.83854   0.96870   0.00000  Uiso   1.00
F934   F     0.35860   0.76969   0.51470   0.00000  Uiso   1.00
F935   F     0.56132   0.77462   0.84984   0.00000  Uiso   1.00
F936   F     0.52151   0.95801   0.82972   0.00000  Uiso   1.00
H937   H     0.51951   0.70537   0.82086   0.00000  Uiso   1.00
H938   H     0.64147   0.78685   0.68907   0.00000  Uiso   1.00
H939   H     0.47151   0.81317   0.59102   0.00000  Uiso   1.00
H940   H     0.42270   0.78748   0.55786   0.00000  Uiso   1.00
N941   N     0.38093   0.83334   0.75002   0.00000  Uiso   1.00
N942   N     0.61906   0.83331   0.75001   0.00000  Uiso   1.00
O943   O     0.46179   0.89442   0.75001   0.00000  Uiso   1.00
O944   O     0.53823   0.89441   0.75001   0.00000  Uiso   1.00
O945   O     0.44280   0.83333   0.82681   0.00000  Uiso   1.00
O946   O     0.51924   0.83332   0.82681   0.00000  Uiso   1.00
O947   O     0.46177   0.77226   0.75000   0.00000  Uiso   1.00
O948   O     0.53821   0.77225   0.75000   0.00000  Uiso   1.00
O949   O     0.48076   0.83335   0.67319   0.00000  Uiso   1.00
O950   O     0.55720   0.83334   0.67319   0.00000  Uiso   1.00
Zn951  Zn    0.44896   0.83334   0.75000   0.00000  Uiso   1.00
Zn952  Zn    0.55104   0.83333   0.75000   0.00000  Uiso   1.00
C953   C     0.83351   0.91323   0.74947   0.00000  Uiso   1.00
C954   C     0.79624   0.80212   0.90268   0.00000  Uiso   1.00
C955   C     0.84519   0.97877   0.78882   0.00000  Uiso   1.00
C956   C     0.80874   0.82173   0.84827   0.00000  Uiso   1.00
C957   C     0.84513   0.68839   0.78852   0.00000  Uiso   1.00
C958   C     0.83417   0.70935   0.74713   0.00000  Uiso   1.00
C959   C     0.82424   0.68825   0.70470   0.00000  Uiso   1.00
C960   C     0.82398   0.97814   0.70510   0.00000  Uiso   1.00
C961   C     0.83408   0.95736   0.74769   0.00000  Uiso   1.00
C962   C     0.98540   0.80750   0.71618   0.00000  Uiso   1.00
C963   C     0.69993   0.80751   0.71614   0.00000  Uiso   1.00
C964   C     0.81745   0.79940   0.98543   0.00000  Uiso   1.00
C965   C     0.68124   0.85923   0.78381   0.00000  Uiso   1.00
C966   C     0.96669   0.85928   0.78375   0.00000  Uiso   1.00
C967   C     0.83364   0.75344   0.74881   0.00000  Uiso   1.00
C968   C     0.85947   0.83364   0.64768   0.00000  Uiso   1.00
C969   C     0.93489   0.83011   0.50018   0.00000  Uiso   1.00
C970   C     0.87511   0.82992   0.58865   0.00000  Uiso   1.00
C971   C     0.74989   0.78869   0.93078   0.00000  Uiso   1.00
C972   C     0.73658   0.78276   0.98677   0.00000  Uiso   1.00
C973   C     0.76909   0.79080   0.51445   0.00000  Uiso   1.00
C974   C     0.83137   0.79793   0.92860   0.00000  Uiso   1.00
C975   C     0.85268   0.80976   0.50988   0.00000  Uiso   1.00
C976   C     0.90090   0.81520   0.97722   0.00000  Uiso   1.00
C977   C     0.91416   0.80467   0.92239   0.00000  Uiso   1.00
C978   C     0.88000   0.79273   0.89962   0.00000  Uiso   1.00
C979   C     0.84094   0.81709   0.56523   0.00000  Uiso   1.00
C980   C     0.92229   0.83747   0.55569   0.00000  Uiso   1.00
Cl981  Cl    0.96656   0.85732   0.58133   0.00000  Uiso   1.00
Cl982  Cl    0.81483   0.71588   0.65002   0.00000  Uiso   1.00
Cl983  Cl    0.81321   0.95007   0.65144   0.00000  Uiso   1.00
Cl984  Cl    0.71164   0.77173   0.89556   0.00000  Uiso   1.00
F985   F     0.73177   0.78159   0.68202   0.00000  Uiso   1.00
F986   F     0.69436   0.88508   0.81791   0.00000  Uiso   1.00
F987   F     0.93471   0.88528   0.81769   0.00000  Uiso   1.00
F988   F     0.95989   0.80655   0.88997   0.00000  Uiso   1.00
F989   F     0.98014   0.83854   0.96870   0.00000  Uiso   1.00
F990   F     0.69193   0.76969   0.51470   0.00000  Uiso   1.00
F991   F     0.89465   0.77462   0.84984   0.00000  Uiso   1.00
F992   F     0.85484   0.95801   0.82972   0.00000  Uiso   1.00
H993   H     0.85284   0.70537   0.82086   0.00000  Uiso   1.00
H994   H     0.97480   0.78685   0.68907   0.00000  Uiso   1.00
H995   H     0.80484   0.81317   0.59102   0.00000  Uiso   1.00
H996   H     0.75603   0.78748   0.55786   0.00000  Uiso   1.00
N997   N     0.71426   0.83334   0.75002   0.00000  Uiso   1.00
N998   N     0.95239   0.83331   0.75001   0.00000  Uiso   1.00
O999   O     0.79512   0.89442   0.75001   0.00000  Uiso   1.00
O1000  O     0.87157   0.89441   0.75001   0.00000  Uiso   1.00
O1001  O     0.77613   0.83333   0.82681   0.00000  Uiso   1.00
O1002  O     0.85258   0.83332   0.82681   0.00000  Uiso   1.00
O1003  O     0.79510   0.77226   0.75000   0.00000  Uiso   1.00
O1004  O     0.87154   0.77225   0.75000   0.00000  Uiso   1.00
O1005  O     0.81409   0.83335   0.67319   0.00000  Uiso   1.00
O1006  O     0.89053   0.83334   0.67319   0.00000  Uiso   1.00
Zn1007 Zn    0.78229   0.83334   0.75000   0.00000  Uiso   1.00
Zn1008 Zn    0.88438   0.83333   0.75000   0.00000  Uiso   1.00
loop_
_geom_bond_atom_site_label_1
_geom_bond_atom_site_label_2
_geom_bond_distance
_geom_bond_site_symmetry_2
_ccdc_geom_bond_type
C1     O48     1.281   .     A
C1     C9      1.408   .     S
C1     O47     1.281   .     A
C2     C22     1.414   .     A
C2     C4      1.484   .     S
C2     C19     1.402   .     A
C3     C9      1.394   .     A
C3     F40     1.359   .     S
C3     C173    1.370   .     S
C4     O49     1.313   .     A
C4     O50     1.294   .     A
C5     C6      1.391   .     A
C5     H41     1.084   .     S
C5     C339    1.370   1_545 S
C6     C7      1.402   .     A
C6     C15     1.407   .     S
C7     Cl30    1.770   .     S
C7     C344    1.385   1_545 S
C8     C9      1.403   .     A
C8     Cl31    1.771   .     S
C8     C175    1.385   .     S
C10    N46     1.366   .     A
C10    H42     1.082   .     S
C10    C67     1.418   .     S
C11    F33     1.353   .     S
C11    N45     1.369   .     A
C11    C122    1.418   1_455 S
C12    C22     1.406   .     A
C12    C525    1.418   .     S
C12    C527    1.423   .     S
C13    F34     1.355   .     S
C13    N45     1.367   .     A
C13    C126    1.419   1_455 S
C14    N46     1.368   .     A
C14    F35     1.355   .     S
C14    C69     1.419   .     S
C15    O51     1.282   .     A
C15    O52     1.281   .     A
C16    O54     1.294   .     A
C16    C18     1.463   .     S
C16    O53     1.297   .     A
C17    C28     1.394   .     A
C17    C528    1.406   1_554 S
C17    F541    1.358   1_554 S
C18    C28     1.410   .     A
C18    C27     1.398   .     A
C19    C20     1.397   .     A
C19    Cl32    1.754   .     S
C20    C525    1.397   .     S
C20    F542    1.357   .     S
C21    H44     1.078   .     S
C21    C516    1.418   1_554 S
C21    C524    1.397   1_554 S
C22    C26     1.408   .     A
C23    C27     1.391   .     A
C23    C516    1.423   1_554 S
C23    C528    1.423   1_554 S
C24    C25     1.396   .     A
C24    C521    1.406   .     S
C24    C527    1.423   .     S
C25    C26     1.379   .     A
C25    F36     1.351   .     S
C26    F39     1.359   .     S
C27    H43     1.075   .     S
C28    Cl29    1.766   .     S
F37    C521    1.358   .     S
F38    C524    1.357   1_554 S
N45    Zn55    2.015   .     S
N46    Zn56    2.015   .     S
O47    Zn55    1.984   .     S
O48    Zn56    1.984   .     S
O49    Zn55    1.950   .     S
O50    Zn56    1.922   .     S
O51    Zn55    1.984   .     S
O52    Zn56    1.984   .     S
O53    Zn55    1.922   .     S
O54    Zn56    1.950   .     S
C57    O104    1.281   .     A
C57    C65     1.408   .     S
C57    O103    1.281   .     A
C58    C78     1.414   .     A
C58    C60     1.484   .     S
C58    C75     1.402   .     A
C59    C65     1.394   .     A
C59    F96     1.359   .     S
C59    C229    1.370   .     S
C60    O105    1.313   .     A
C60    O106    1.294   .     A
C61    C62     1.391   .     A
C61    H97     1.084   .     S
C61    C395    1.370   1_545 S
C62    C63     1.402   .     A
C62    C71     1.407   .     S
C63    Cl86    1.770   .     S
C63    C400    1.385   1_545 S
C64    C65     1.403   .     A
C64    Cl87    1.771   .     S
C64    C231    1.385   .     S
C66    N102    1.366   .     A
C66    H98     1.082   .     S
C66    C123    1.418   .     S
C67    F89     1.353   .     S
C67    N101    1.369   .     A
C68    C78     1.406   .     A
C68    C581    1.418   .     S
C68    C583    1.423   .     S
C69    F90     1.355   .     S
C69    N101    1.367   .     A
C70    N102    1.368   .     A
C70    F91     1.355   .     S
C70    C125    1.419   .     S
C71    O107    1.282   .     A
C71    O108    1.281   .     A
C72    O110    1.294   .     A
C72    C74     1.463   .     S
C72    O109    1.297   .     A
C73    C84     1.394   .     A
C73    C584    1.406   1_554 S
C73    F597    1.358   1_554 S
C74    C84     1.410   .     A
C74    C83     1.398   .     A
C75    C76     1.397   .     A
C75    Cl88    1.754   .     S
C76    C581    1.397   .     S
C76    F598    1.357   .     S
C77    H100    1.078   .     S
C77    C572    1.418   1_554 S
C77    C580    1.397   1_554 S
C78    C82     1.408   .     A
C79    C83     1.391   .     A
C79    C572    1.423   1_554 S
C79    C584    1.423   1_554 S
C80    C81     1.396   .     A
C80    C577    1.406   .     S
C80    C583    1.423   .     S
C81    C82     1.379   .     A
C81    F92     1.351   .     S
C82    F95     1.359   .     S
C83    H99     1.075   .     S
C84    Cl85    1.766   .     S
F93    C577    1.358   .     S
F94    C580    1.357   1_554 S
N101   Zn111   2.015   .     S
N102   Zn112   2.015   .     S
O103   Zn111   1.984   .     S
O104   Zn112   1.984   .     S
O105   Zn111   1.950   .     S
O106   Zn112   1.922   .     S
O107   Zn111   1.984   .     S
O108   Zn112   1.984   .     S
O109   Zn111   1.922   .     S
O110   Zn112   1.950   .     S
C113   O160    1.281   .     A
C113   C121    1.408   .     S
C113   O159    1.281   .     A
C114   C134    1.414   .     A
C114   C116    1.484   .     S
C114   C131    1.402   .     A
C115   C121    1.394   .     A
C115   F152    1.359   .     S
C115   C285    1.370   .     S
C116   O161    1.313   .     A
C116   O162    1.294   .     A
C117   C118    1.391   .     A
C117   H153    1.084   .     S
C117   C451    1.370   1_545 S
C118   C119    1.402   .     A
C118   C127    1.407   .     S
C119   Cl142   1.770   .     S
C119   C456    1.385   1_545 S
C120   C121    1.403   .     A
C120   Cl143   1.771   .     S
C120   C287    1.385   .     S
C122   N158    1.366   .     A
C122   H154    1.082   .     S
C122   C11     1.418   1_655 S
C123   F145    1.353   .     S
C123   N157    1.369   .     A
C124   C134    1.406   .     A
C124   C637    1.418   .     S
C124   C639    1.423   .     S
C125   F146    1.355   .     S
C125   N157    1.367   .     A
C126   N158    1.368   .     A
C126   F147    1.355   .     S
C126   C13     1.419   1_655 S
C127   O163    1.282   .     A
C127   O164    1.281   .     A
C128   O166    1.294   .     A
C128   C130    1.463   .     S
C128   O165    1.297   .     A
C129   C140    1.394   .     A
C129   C640    1.406   1_554 S
C129   F653    1.358   1_554 S
C130   C140    1.410   .     A
C130   C139    1.398   .     A
C131   C132    1.397   .     A
C131   Cl144   1.754   .     S
C132   C637    1.397   .     S
C132   F654    1.357   .     S
C133   H156    1.078   .     S
C133   C628    1.418   1_554 S
C133   C636    1.397   1_554 S
C134   C138    1.408   .     A
C135   C139    1.391   .     A
C135   C628    1.423   1_554 S
C135   C640    1.423   1_554 S
C136   C137    1.396   .     A
C136   C633    1.406   .     S
C136   C639    1.423   .     S
C137   C138    1.379   .     A
C137   F148    1.351   .     S
C138   F151    1.359   .     S
C139   H155    1.075   .     S
C140   Cl141   1.766   .     S
F149   C633    1.358   .     S
F150   C636    1.357   1_554 S
N157   Zn167   2.015   .     S
N158   Zn168   2.015   .     S
O159   Zn167   1.984   .     S
O160   Zn168   1.984   .     S
O161   Zn167   1.950   .     S
O162   Zn168   1.922   .     S
O163   Zn167   1.984   .     S
O164   Zn168   1.984   .     S
O165   Zn167   1.922   .     S
O166   Zn168   1.950   .     S
C169   O216    1.281   .     A
C169   C177    1.408   .     S
C169   O215    1.281   .     A
C170   C190    1.414   .     A
C170   C172    1.484   .     S
C170   C187    1.402   .     A
C171   C177    1.394   .     A
C171   F208    1.359   .     S
C171   C341    1.370   .     S
C172   O217    1.313   .     A
C172   O218    1.294   .     A
C173   C174    1.391   .     A
C173   H209    1.084   .     S
C174   C175    1.402   .     A
C174   C183    1.407   .     S
C175   Cl198   1.770   .     S
C176   C177    1.403   .     A
C176   Cl199   1.771   .     S
C176   C343    1.385   .     S
C178   N214    1.366   .     A
C178   H210    1.082   .     S
C178   C235    1.418   .     S
C179   F201    1.353   .     S
C179   N213    1.369   .     A
C179   C290    1.418   1_455 S
C180   C190    1.406   .     A
C180   C693    1.418   .     S
C180   C695    1.423   .     S
C181   F202    1.355   .     S
C181   N213    1.367   .     A
C181   C294    1.419   1_455 S
C182   N214    1.368   .     A
C182   F203    1.355   .     S
C182   C237    1.419   .     S
C183   O219    1.282   .     A
C183   O220    1.281   .     A
C184   O222    1.294   .     A
C184   C186    1.463   .     S
C184   O221    1.297   .     A
C185   C196    1.394   .     A
C185   C696    1.406   1_554 S
C185   F709    1.358   1_554 S
C186   C196    1.410   .     A
C186   C195    1.398   .     A
C187   C188    1.397   .     A
C187   Cl200   1.754   .     S
C188   C693    1.397   .     S
C188   F710    1.357   .     S
C189   H212    1.078   .     S
C189   C684    1.418   1_554 S
C189   C692    1.397   1_554 S
C190   C194    1.408   .     A
C191   C195    1.391   .     A
C191   C684    1.423   1_554 S
C191   C696    1.423   1_554 S
C192   C193    1.396   .     A
C192   C689    1.406   .     S
C192   C695    1.423   .     S
C193   C194    1.379   .     A
C193   F204    1.351   .     S
C194   F207    1.359   .     S
C195   H211    1.075   .     S
C196   Cl197   1.766   .     S
F205   C689    1.358   .     S
F206   C692    1.357   1_554 S
N213   Zn223   2.015   .     S
N214   Zn224   2.015   .     S
O215   Zn223   1.984   .     S
O216   Zn224   1.984   .     S
O217   Zn223   1.950   .     S
O218   Zn224   1.922   .     S
O219   Zn223   1.984   .     S
O220   Zn224   1.984   .     S
O221   Zn223   1.922   .     S
O222   Zn224   1.950   .     S
C225   O272    1.281   .     A
C225   C233    1.408   .     S
C225   O271    1.281   .     A
C226   C246    1.414   .     A
C226   C228    1.484   .     S
C226   C243    1.402   .     A
C227   C233    1.394   .     A
C227   F264    1.359   .     S
C227   C397    1.370   .     S
C228   O273    1.313   .     A
C228   O274    1.294   .     A
C229   C230    1.391   .     A
C229   H265    1.084   .     S
C230   C231    1.402   .     A
C230   C239    1.407   .     S
C231   Cl254   1.770   .     S
C232   C233    1.403   .     A
C232   Cl255   1.771   .     S
C232   C399    1.385   .     S
C234   N270    1.366   .     A
C234   H266    1.082   .     S
C234   C291    1.418   .     S
C235   F257    1.353   .     S
C235   N269    1.369   .     A
C236   C246    1.406   .     A
C236   C749    1.418   .     S
C236   C751    1.423   .     S
C237   F258    1.355   .     S
C237   N269    1.367   .     A
C238   N270    1.368   .     A
C238   F259    1.355   .     S
C238   C293    1.419   .     S
C239   O275    1.282   .     A
C239   O276    1.281   .     A
C240   O278    1.294   .     A
C240   C242    1.463   .     S
C240   O277    1.297   .     A
C241   C252    1.394   .     A
C241   C752    1.406   1_554 S
C241   F765    1.358   1_554 S
C242   C252    1.410   .     A
C242   C251    1.398   .     A
C243   C244    1.397   .     A
C243   Cl256   1.754   .     S
C244   C749    1.397   .     S
C244   F766    1.357   .     S
C245   H268    1.078   .     S
C245   C740    1.418   1_554 S
C245   C748    1.397   1_554 S
C246   C250    1.408   .     A
C247   C251    1.391   .     A
C247   C740    1.423   1_554 S
C247   C752    1.423   1_554 S
C248   C249    1.396   .     A
C248   C745    1.406   .     S
C248   C751    1.423   .     S
C249   C250    1.379   .     A
C249   F260    1.351   .     S
C250   F263    1.359   .     S
C251   H267    1.075   .     S
C252   Cl253   1.766   .     S
F261   C745    1.358   .     S
F262   C748    1.357   1_554 S
N269   Zn279   2.015   .     S
N270   Zn280   2.015   .     S
O271   Zn279   1.984   .     S
O272   Zn280   1.984   .     S
O273   Zn279   1.950   .     S
O274   Zn280   1.922   .     S
O275   Zn279   1.984   .     S
O276   Zn280   1.984   .     S
O277   Zn279   1.922   .     S
O278   Zn280   1.950   .     S
C281   O328    1.281   .     A
C281   C289    1.408   .     S
C281   O327    1.281   .     A
C282   C302    1.414   .     A
C282   C284    1.484   .     S
C282   C299    1.402   .     A
C283   C289    1.394   .     A
C283   F320    1.359   .     S
C283   C453    1.370   .     S
C284   O329    1.313   .     A
C284   O330    1.294   .     A
C285   C286    1.391   .     A
C285   H321    1.084   .     S
C286   C287    1.402   .     A
C286   C295    1.407   .     S
C287   Cl310   1.770   .     S
C288   C289    1.403   .     A
C288   Cl311   1.771   .     S
C288   C455    1.385   .     S
C290   N326    1.366   .     A
C290   H322    1.082   .     S
C290   C179    1.418   1_655 S
C291   F313    1.353   .     S
C291   N325    1.369   .     A
C292   C302    1.406   .     A
C292   C805    1.418   .     S
C292   C807    1.423   .     S
C293   F314    1.355   .     S
C293   N325    1.367   .     A
C294   N326    1.368   .     A
C294   F315    1.355   .     S
C294   C181    1.419   1_655 S
C295   O331    1.282   .     A
C295   O332    1.281   .     A
C296   O334    1.294   .     A
C296   C298    1.463   .     S
C296   O333    1.297   .     A
C297   C308    1.394   .     A
C297   C808    1.406   1_554 S
C297   F821    1.358   1_554 S
C298   C308    1.410   .     A
C298   C307    1.398   .     A
C299   C300    1.397   .     A
C299   Cl312   1.754   .     S
C300   C805    1.397   .     S
C300   F822    1.357   .     S
C301   H324    1.078   .     S
C301   C796    1.418   1_554 S
C301   C804    1.397   1_554 S
C302   C306    1.408   .     A
C303   C307    1.391   .     A
C303   C796    1.423   1_554 S
C303   C808    1.423   1_554 S
C304   C305    1.396   .     A
C304   C801    1.406   .     S
C304   C807    1.423   .     S
C305   C306    1.379   .     A
C305   F316    1.351   .     S
C306   F319    1.359   .     S
C307   H323    1.075   .     S
C308   Cl309   1.766   .     S
F317   C801    1.358   .     S
F318   C804    1.357   1_554 S
N325   Zn335   2.015   .     S
N326   Zn336   2.015   .     S
O327   Zn335   1.984   .     S
O328   Zn336   1.984   .     S
O329   Zn335   1.950   .     S
O330   Zn336   1.922   .     S
O331   Zn335   1.984   .     S
O332   Zn336   1.984   .     S
O333   Zn335   1.922   .     S
O334   Zn336   1.950   .     S
C337   O384    1.281   .     A
C337   C345    1.408   .     S
C337   O383    1.281   .     A
C338   C358    1.414   .     A
C338   C340    1.484   .     S
C338   C355    1.402   .     A
C339   C345    1.394   .     A
C339   F376    1.359   .     S
C339   C5      1.370   1_565 S
C340   O385    1.313   .     A
C340   O386    1.294   .     A
C341   C342    1.391   .     A
C341   H377    1.084   .     S
C342   C343    1.402   .     A
C342   C351    1.407   .     S
C343   Cl366   1.770   .     S
C344   C345    1.403   .     A
C344   Cl367   1.771   .     S
C344   C7      1.385   1_565 S
C346   N382    1.366   .     A
C346   H378    1.082   .     S
C346   C403    1.418   .     S
C347   F369    1.353   .     S
C347   N381    1.369   .     A
C347   C458    1.418   1_455 S
C348   C358    1.406   .     A
C348   C861    1.418   .     S
C348   C863    1.423   .     S
C349   F370    1.355   .     S
C349   N381    1.367   .     A
C349   C462    1.419   1_455 S
C350   N382    1.368   .     A
C350   F371    1.355   .     S
C350   C405    1.419   .     S
C351   O387    1.282   .     A
C351   O388    1.281   .     A
C352   O390    1.294   .     A
C352   C354    1.463   .     S
C352   O389    1.297   .     A
C353   C364    1.394   .     A
C353   C864    1.406   1_554 S
C353   F877    1.358   1_554 S
C354   C364    1.410   .     A
C354   C363    1.398   .     A
C355   C356    1.397   .     A
C355   Cl368   1.754   .     S
C356   C861    1.397   .     S
C356   F878    1.357   .     S
C357   H380    1.078   .     S
C357   C852    1.418   1_554 S
C357   C860    1.397   1_554 S
C358   C362    1.408   .     A
C359   C363    1.391   .     A
C359   C852    1.423   1_554 S
C359   C864    1.423   1_554 S
C360   C361    1.396   .     A
C360   C857    1.406   .     S
C360   C863    1.423   .     S
C361   C362    1.379   .     A
C361   F372    1.351   .     S
C362   F375    1.359   .     S
C363   H379    1.075   .     S
C364   Cl365   1.766   .     S
F373   C857    1.358   .     S
F374   C860    1.357   1_554 S
N381   Zn391   2.015   .     S
N382   Zn392   2.015   .     S
O383   Zn391   1.984   .     S
O384   Zn392   1.984   .     S
O385   Zn391   1.950   .     S
O386   Zn392   1.922   .     S
O387   Zn391   1.984   .     S
O388   Zn392   1.984   .     S
O389   Zn391   1.922   .     S
O390   Zn392   1.950   .     S
C393   O440    1.281   .     A
C393   C401    1.408   .     S
C393   O439    1.281   .     A
C394   C414    1.414   .     A
C394   C396    1.484   .     S
C394   C411    1.402   .     A
C395   C401    1.394   .     A
C395   F432    1.359   .     S
C395   C61     1.370   1_565 S
C396   O441    1.313   .     A
C396   O442    1.294   .     A
C397   C398    1.391   .     A
C397   H433    1.084   .     S
C398   C399    1.402   .     A
C398   C407    1.407   .     S
C399   Cl422   1.770   .     S
C400   C401    1.403   .     A
C400   Cl423   1.771   .     S
C400   C63     1.385   1_565 S
C402   N438    1.366   .     A
C402   H434    1.082   .     S
C402   C459    1.418   .     S
C403   F425    1.353   .     S
C403   N437    1.369   .     A
C404   C414    1.406   .     A
C404   C917    1.418   .     S
C404   C919    1.423   .     S
C405   F426    1.355   .     S
C405   N437    1.367   .     A
C406   N438    1.368   .     A
C406   F427    1.355   .     S
C406   C461    1.419   .     S
C407   O443    1.282   .     A
C407   O444    1.281   .     A
C408   O446    1.294   .     A
C408   C410    1.463   .     S
C408   O445    1.297   .     A
C409   C420    1.394   .     A
C409   C920    1.406   1_554 S
C409   F933    1.358   1_554 S
C410   C420    1.410   .     A
C410   C419    1.398   .     A
C411   C412    1.397   .     A
C411   Cl424   1.754   .     S
C412   C917    1.397   .     S
C412   F934    1.357   .     S
C413   H436    1.078   .     S
C413   C908    1.418   1_554 S
C413   C916    1.397   1_554 S
C414   C418    1.408   .     A
C415   C419    1.391   .     A
C415   C908    1.423   1_554 S
C415   C920    1.423   1_554 S
C416   C417    1.396   .     A
C416   C913    1.406   .     S
C416   C919    1.423   .     S
C417   C418    1.379   .     A
C417   F428    1.351   .     S
C418   F431    1.359   .     S
C419   H435    1.075   .     S
C420   Cl421   1.766   .     S
F429   C913    1.358   .     S
F430   C916    1.357   1_554 S
N437   Zn447   2.015   .     S
N438   Zn448   2.015   .     S
O439   Zn447   1.984   .     S
O440   Zn448   1.984   .     S
O441   Zn447   1.950   .     S
O442   Zn448   1.922   .     S
O443   Zn447   1.984   .     S
O444   Zn448   1.984   .     S
O445   Zn447   1.922   .     S
O446   Zn448   1.950   .     S
C449   O496    1.281   .     A
C449   C457    1.408   .     S
C449   O495    1.281   .     A
C450   C470    1.414   .     A
C450   C452    1.484   .     S
C450   C467    1.402   .     A
C451   C457    1.394   .     A
C451   F488    1.359   .     S
C451   C117    1.370   1_565 S
C452   O497    1.313   .     A
C452   O498    1.294   .     A
C453   C454    1.391   .     A
C453   H489    1.084   .     S
C454   C455    1.402   .     A
C454   C463    1.407   .     S
C455   Cl478   1.770   .     S
C456   C457    1.403   .     A
C456   Cl479   1.771   .     S
C456   C119    1.385   1_565 S
C458   N494    1.366   .     A
C458   H490    1.082   .     S
C458   C347    1.418   1_655 S
C459   F481    1.353   .     S
C459   N493    1.369   .     A
C460   C470    1.406   .     A
C460   C973    1.418   .     S
C460   C975    1.423   .     S
C461   F482    1.355   .     S
C461   N493    1.367   .     A
C462   N494    1.368   .     A
C462   F483    1.355   .     S
C462   C349    1.419   1_655 S
C463   O499    1.282   .     A
C463   O500    1.281   .     A
C464   O502    1.294   .     A
C464   C466    1.463   .     S
C464   O501    1.297   .     A
C465   C476    1.394   .     A
C465   C976    1.406   1_554 S
C465   F989    1.358   1_554 S
C466   C476    1.410   .     A
C466   C475    1.398   .     A
C467   C468    1.397   .     A
C467   Cl480   1.754   .     S
C468   C973    1.397   .     S
C468   F990    1.357   .     S
C469   H492    1.078   .     S
C469   C964    1.418   1_554 S
C469   C972    1.397   1_554 S
C470   C474    1.408   .     A
C471   C475    1.391   .     A
C471   C964    1.423   1_554 S
C471   C976    1.423   1_554 S
C472   C473    1.396   .     A
C472   C969    1.406   .     S
C472   C975    1.423   .     S
C473   C474    1.379   .     A
C473   F484    1.351   .     S
C474   F487    1.359   .     S
C475   H491    1.075   .     S
C476   Cl477   1.766   .     S
F485   C969    1.358   .     S
F486   C972    1.357   1_554 S
N493   Zn503   2.015   .     S
N494   Zn504   2.015   .     S
O495   Zn503   1.984   .     S
O496   Zn504   1.984   .     S
O497   Zn503   1.950   .     S
O498   Zn504   1.922   .     S
O499   Zn503   1.984   .     S
O500   Zn504   1.984   .     S
O501   Zn503   1.922   .     S
O502   Zn504   1.950   .     S
C505   O552    1.281   .     A
C505   C513    1.408   .     S
C505   O551    1.281   .     A
C506   C526    1.414   .     A
C506   C508    1.484   .     S
C506   C523    1.402   .     A
C507   C513    1.394   .     A
C507   F544    1.359   .     S
C507   C677    1.370   .     S
C508   O553    1.313   .     A
C508   O554    1.294   .     A
C509   C510    1.391   .     A
C509   H545    1.084   .     S
C509   C843    1.370   1_545 S
C510   C511    1.402   .     A
C510   C519    1.407   .     S
C511   Cl534   1.770   .     S
C511   C848    1.385   1_545 S
C512   C513    1.403   .     A
C512   Cl535   1.771   .     S
C512   C679    1.385   .     S
C514   N550    1.366   .     A
C514   H546    1.082   .     S
C514   C571    1.418   .     S
C515   F537    1.353   .     S
C515   N549    1.369   .     A
C515   C626    1.418   1_455 S
C516   C526    1.406   .     A
C516   C21     1.418   1_556 S
C516   C23     1.423   1_556 S
C517   F538    1.355   .     S
C517   N549    1.367   .     A
C517   C630    1.419   1_455 S
C518   N550    1.368   .     A
C518   F539    1.355   .     S
C518   C573    1.419   .     S
C519   O555    1.282   .     A
C519   O556    1.281   .     A
C520   O558    1.294   .     A
C520   C522    1.463   .     S
C520   O557    1.297   .     A
C521   C532    1.394   .     A
C522   C532    1.410   .     A
C522   C531    1.398   .     A
C523   C524    1.397   .     A
C523   Cl536   1.754   .     S
C524   C21     1.397   1_556 S
C524   F38     1.357   1_556 S
C525   H548    1.078   .     S
C526   C530    1.408   .     A
C527   C531    1.391   .     A
C528   C529    1.396   .     A
C528   C17     1.406   1_556 S
C528   C23     1.423   1_556 S
C529   C530    1.379   .     A
C529   F540    1.351   .     S
C530   F543    1.359   .     S
C531   H547    1.075   .     S
C532   Cl533   1.766   .     S
F541   C17     1.358   1_556 S
N549   Zn559   2.015   .     S
N550   Zn560   2.015   .     S
O551   Zn559   1.984   .     S
O552   Zn560   1.984   .     S
O553   Zn559   1.950   .     S
O554   Zn560   1.922   .     S
O555   Zn559   1.984   .     S
O556   Zn560   1.984   .     S
O557   Zn559   1.922   .     S
O558   Zn560   1.950   .     S
C561   O608    1.281   .     A
C561   C569    1.408   .     S
C561   O607    1.281   .     A
C562   C582    1.414   .     A
C562   C564    1.484   .     S
C562   C579    1.402   .     A
C563   C569    1.394   .     A
C563   F600    1.359   .     S
C563   C733    1.370   .     S
C564   O609    1.313   .     A
C564   O610    1.294   .     A
C565   C566    1.391   .     A
C565   H601    1.084   .     S
C565   C899    1.370   1_545 S
C566   C567    1.402   .     A
C566   C575    1.407   .     S
C567   Cl590   1.770   .     S
C567   C904    1.385   1_545 S
C568   C569    1.403   .     A
C568   Cl591   1.771   .     S
C568   C735    1.385   .     S
C570   N606    1.366   .     A
C570   H602    1.082   .     S
C570   C627    1.418   .     S
C571   F593    1.353   .     S
C571   N605    1.369   .     A
C572   C582    1.406   .     A
C572   C77     1.418   1_556 S
C572   C79     1.423   1_556 S
C573   F594    1.355   .     S
C573   N605    1.367   .     A
C574   N606    1.368   .     A
C574   F595    1.355   .     S
C574   C629    1.419   .     S
C575   O611    1.282   .     A
C575   O612    1.281   .     A
C576   O614    1.294   .     A
C576   C578    1.463   .     S
C576   O613    1.297   .     A
C577   C588    1.394   .     A
C578   C588    1.410   .     A
C578   C587    1.398   .     A
C579   C580    1.397   .     A
C579   Cl592   1.754   .     S
C580   C77     1.397   1_556 S
C580   F94     1.357   1_556 S
C581   H604    1.078   .     S
C582   C586    1.408   .     A
C583   C587    1.391   .     A
C584   C585    1.396   .     A
C584   C73     1.406   1_556 S
C584   C79     1.423   1_556 S
C585   C586    1.379   .     A
C585   F596    1.351   .     S
C586   F599    1.359   .     S
C587   H603    1.075   .     S
C588   Cl589   1.766   .     S
F597   C73     1.358   1_556 S
N605   Zn615   2.015   .     S
N606   Zn616   2.015   .     S
O607   Zn615   1.984   .     S
O608   Zn616   1.984   .     S
O609   Zn615   1.950   .     S
O610   Zn616   1.922   .     S
O611   Zn615   1.984   .     S
O612   Zn616   1.984   .     S
O613   Zn615   1.922   .     S
O614   Zn616   1.950   .     S
C617   O664    1.281   .     A
C617   C625    1.408   .     S
C617   O663    1.281   .     A
C618   C638    1.414   .     A
C618   C620    1.484   .     S
C618   C635    1.402   .     A
C619   C625    1.394   .     A
C619   F656    1.359   .     S
C619   C789    1.370   .     S
C620   O665    1.313   .     A
C620   O666    1.294   .     A
C621   C622    1.391   .     A
C621   H657    1.084   .     S
C621   C955    1.370   1_545 S
C622   C623    1.402   .     A
C622   C631    1.407   .     S
C623   Cl646   1.770   .     S
C623   C960    1.385   1_545 S
C624   C625    1.403   .     A
C624   Cl647   1.771   .     S
C624   C791    1.385   .     S
C626   N662    1.366   .     A
C626   H658    1.082   .     S
C626   C515    1.418   1_655 S
C627   F649    1.353   .     S
C627   N661    1.369   .     A
C628   C638    1.406   .     A
C628   C133    1.418   1_556 S
C628   C135    1.423   1_556 S
C629   F650    1.355   .     S
C629   N661    1.367   .     A
C630   N662    1.368   .     A
C630   F651    1.355   .     S
C630   C517    1.419   1_655 S
C631   O667    1.282   .     A
C631   O668    1.281   .     A
C632   O670    1.294   .     A
C632   C634    1.463   .     S
C632   O669    1.297   .     A
C633   C644    1.394   .     A
C634   C644    1.410   .     A
C634   C643    1.398   .     A
C635   C636    1.397   .     A
C635   Cl648   1.754   .     S
C636   C133    1.397   1_556 S
C636   F150    1.357   1_556 S
C637   H660    1.078   .     S
C638   C642    1.408   .     A
C639   C643    1.391   .     A
C640   C641    1.396   .     A
C640   C129    1.406   1_556 S
C640   C135    1.423   1_556 S
C641   C642    1.379   .     A
C641   F652    1.351   .     S
C642   F655    1.359   .     S
C643   H659    1.075   .     S
C644   Cl645   1.766   .     S
F653   C129    1.358   1_556 S
N661   Zn671   2.015   .     S
N662   Zn672   2.015   .     S
O663   Zn671   1.984   .     S
O664   Zn672   1.984   .     S
O665   Zn671   1.950   .     S
O666   Zn672   1.922   .     S
O667   Zn671   1.984   .     S
O668   Zn672   1.984   .     S
O669   Zn671   1.922   .     S
O670   Zn672   1.950   .     S
C673   O720    1.281   .     A
C673   C681    1.408   .     S
C673   O719    1.281   .     A
C674   C694    1.414   .     A
C674   C676    1.484   .     S
C674   C691    1.402   .     A
C675   C681    1.394   .     A
C675   F712    1.359   .     S
C675   C845    1.370   .     S
C676   O721    1.313   .     A
C676   O722    1.294   .     A
C677   C678    1.391   .     A
C677   H713    1.084   .     S
C678   C679    1.402   .     A
C678   C687    1.407   .     S
C679   Cl702   1.770   .     S
C680   C681    1.403   .     A
C680   Cl703   1.771   .     S
C680   C847    1.385   .     S
C682   N718    1.366   .     A
C682   H714    1.082   .     S
C682   C739    1.418   .     S
C683   F705    1.353   .     S
C683   N717    1.369   .     A
C683   C794    1.418   1_455 S
C684   C694    1.406   .     A
C684   C189    1.418   1_556 S
C684   C191    1.423   1_556 S
C685   F706    1.355   .     S
C685   N717    1.367   .     A
C685   C798    1.419   1_455 S
C686   N718    1.368   .     A
C686   F707    1.355   .     S
C686   C741    1.419   .     S
C687   O723    1.282   .     A
C687   O724    1.281   .     A
C688   O726    1.294   .     A
C688   C690    1.463   .     S
C688   O725    1.297   .     A
C689   C700    1.394   .     A
C690   C700    1.410   .     A
C690   C699    1.398   .     A
C691   C692    1.397   .     A
C691   Cl704   1.754   .     S
C692   C189    1.397   1_556 S
C692   F206    1.357   1_556 S
C693   H716    1.078   .     S
C694   C698    1.408   .     A
C695   C699    1.391   .     A
C696   C697    1.396   .     A
C696   C185    1.406   1_556 S
C696   C191    1.423   1_556 S
C697   C698    1.379   .     A
C697   F708    1.351   .     S
C698   F711    1.359   .     S
C699   H715    1.075   .     S
C700   Cl701   1.766   .     S
F709   C185    1.358   1_556 S
N717   Zn727   2.015   .     S
N718   Zn728   2.015   .     S
O719   Zn727   1.984   .     S
O720   Zn728   1.984   .     S
O721   Zn727   1.950   .     S
O722   Zn728   1.922   .     S
O723   Zn727   1.984   .     S
O724   Zn728   1.984   .     S
O725   Zn727   1.922   .     S
O726   Zn728   1.950   .     S
C729   O776    1.281   .     A
C729   C737    1.408   .     S
C729   O775    1.281   .     A
C730   C750    1.414   .     A
C730   C732    1.484   .     S
C730   C747    1.402   .     A
C731   C737    1.394   .     A
C731   F768    1.359   .     S
C731   C901    1.370   .     S
C732   O777    1.313   .     A
C732   O778    1.294   .     A
C733   C734    1.391   .     A
C733   H769    1.084   .     S
C734   C735    1.402   .     A
C734   C743    1.407   .     S
C735   Cl758   1.770   .     S
C736   C737    1.403   .     A
C736   Cl759   1.771   .     S
C736   C903    1.385   .     S
C738   N774    1.366   .     A
C738   H770    1.082   .     S
C738   C795    1.418   .     S
C739   F761    1.353   .     S
C739   N773    1.369   .     A
C740   C750    1.406   .     A
C740   C245    1.418   1_556 S
C740   C247    1.423   1_556 S
C741   F762    1.355   .     S
C741   N773    1.367   .     A
C742   N774    1.368   .     A
C742   F763    1.355   .     S
C742   C797    1.419   .     S
C743   O779    1.282   .     A
C743   O780    1.281   .     A
C744   O782    1.294   .     A
C744   C746    1.463   .     S
C744   O781    1.297   .     A
C745   C756    1.394   .     A
C746   C756    1.410   .     A
C746   C755    1.398   .     A
C747   C748    1.397   .     A
C747   Cl760   1.754   .     S
C748   C245    1.397   1_556 S
C748   F262    1.357   1_556 S
C749   H772    1.078   .     S
C750   C754    1.408   .     A
C751   C755    1.391   .     A
C752   C753    1.396   .     A
C752   C241    1.406   1_556 S
C752   C247    1.423   1_556 S
C753   C754    1.379   .     A
C753   F764    1.351   .     S
C754   F767    1.359   .     S
C755   H771    1.075   .     S
C756   Cl757   1.766   .     S
F765   C241    1.358   1_556 S
N773   Zn783   2.015   .     S
N774   Zn784   2.015   .     S
O775   Zn783   1.984   .     S
O776   Zn784   1.984   .     S
O777   Zn783   1.950   .     S
O778   Zn784   1.922   .     S
O779   Zn783   1.984   .     S
O780   Zn784   1.984   .     S
O781   Zn783   1.922   .     S
O782   Zn784   1.950   .     S
C785   O832    1.281   .     A
C785   C793    1.408   .     S
C785   O831    1.281   .     A
C786   C806    1.414   .     A
C786   C788    1.484   .     S
C786   C803    1.402   .     A
C787   C793    1.394   .     A
C787   F824    1.359   .     S
C787   C957    1.370   .     S
C788   O833    1.313   .     A
C788   O834    1.294   .     A
C789   C790    1.391   .     A
C789   H825    1.084   .     S
C790   C791    1.402   .     A
C790   C799    1.407   .     S
C791   Cl814   1.770   .     S
C792   C793    1.403   .     A
C792   Cl815   1.771   .     S
C792   C959    1.385   .     S
C794   N830    1.366   .     A
C794   H826    1.082   .     S
C794   C683    1.418   1_655 S
C795   F817    1.353   .     S
C795   N829    1.369   .     A
C796   C806    1.406   .     A
C796   C301    1.418   1_556 S
C796   C303    1.423   1_556 S
C797   F818    1.355   .     S
C797   N829    1.367   .     A
C798   N830    1.368   .     A
C798   F819    1.355   .     S
C798   C685    1.419   1_655 S
C799   O835    1.282   .     A
C799   O836    1.281   .     A
C800   O838    1.294   .     A
C800   C802    1.463   .     S
C800   O837    1.297   .     A
C801   C812    1.394   .     A
C802   C812    1.410   .     A
C802   C811    1.398   .     A
C803   C804    1.397   .     A
C803   Cl816   1.754   .     S
C804   C301    1.397   1_556 S
C804   F318    1.357   1_556 S
C805   H828    1.078   .     S
C806   C810    1.408   .     A
C807   C811    1.391   .     A
C808   C809    1.396   .     A
C808   C297    1.406   1_556 S
C808   C303    1.423   1_556 S
C809   C810    1.379   .     A
C809   F820    1.351   .     S
C810   F823    1.359   .     S
C811   H827    1.075   .     S
C812   Cl813   1.766   .     S
F821   C297    1.358   1_556 S
N829   Zn839   2.015   .     S
N830   Zn840   2.015   .     S
O831   Zn839   1.984   .     S
O832   Zn840   1.984   .     S
O833   Zn839   1.950   .     S
O834   Zn840   1.922   .     S
O835   Zn839   1.984   .     S
O836   Zn840   1.984   .     S
O837   Zn839   1.922   .     S
O838   Zn840   1.950   .     S
C841   O888    1.281   .     A
C841   C849    1.408   .     S
C841   O887    1.281   .     A
C842   C862    1.414   .     A
C842   C844    1.484   .     S
C842   C859    1.402   .     A
C843   C849    1.394   .     A
C843   F880    1.359   .     S
C843   C509    1.370   1_565 S
C844   O889    1.313   .     A
C844   O890    1.294   .     A
C845   C846    1.391   .     A
C845   H881    1.084   .     S
C846   C847    1.402   .     A
C846   C855    1.407   .     S
C847   Cl870   1.770   .     S
C848   C849    1.403   .     A
C848   Cl871   1.771   .     S
C848   C511    1.385   1_565 S
C850   N886    1.366   .     A
C850   H882    1.082   .     S
C850   C907    1.418   .     S
C851   F873    1.353   .     S
C851   N885    1.369   .     A
C851   C962    1.418   1_455 S
C852   C862    1.406   .     A
C852   C357    1.418   1_556 S
C852   C359    1.423   1_556 S
C853   F874    1.355   .     S
C853   N885    1.367   .     A
C853   C966    1.419   1_455 S
C854   N886    1.368   .     A
C854   F875    1.355   .     S
C854   C909    1.419   .     S
C855   O891    1.282   .     A
C855   O892    1.281   .     A
C856   O894    1.294   .     A
C856   C858    1.463   .     S
C856   O893    1.297   .     A
C857   C868    1.394   .     A
C858   C868    1.410   .     A
C858   C867    1.398   .     A
C859   C860    1.397   .     A
C859   Cl872   1.754   .     S
C860   C357    1.397   1_556 S
C860   F374    1.357   1_556 S
C861   H884    1.078   .     S
C862   C866    1.408   .     A
C863   C867    1.391   .     A
C864   C865    1.396   .     A
C864   C353    1.406   1_556 S
C864   C359    1.423   1_556 S
C865   C866    1.379   .     A
C865   F876    1.351   .     S
C866   F879    1.359   .     S
C867   H883    1.075   .     S
C868   Cl869   1.766   .     S
F877   C353    1.358   1_556 S
N885   Zn895   2.015   .     S
N886   Zn896   2.015   .     S
O887   Zn895   1.984   .     S
O888   Zn896   1.984   .     S
O889   Zn895   1.950   .     S
O890   Zn896   1.922   .     S
O891   Zn895   1.984   .     S
O892   Zn896   1.984   .     S
O893   Zn895   1.922   .     S
O894   Zn896   1.950   .     S
C897   O944    1.281   .     A
C897   C905    1.408   .     S
C897   O943    1.281   .     A
C898   C918    1.414   .     A
C898   C900    1.484   .     S
C898   C915    1.402   .     A
C899   C905    1.394   .     A
C899   F936    1.359   .     S
C899   C565    1.370   1_565 S
C900   O945    1.313   .     A
C900   O946    1.294   .     A
C901   C902    1.391   .     A
C901   H937    1.084   .     S
C902   C903    1.402   .     A
C902   C911    1.407   .     S
C903   Cl926   1.770   .     S
C904   C905    1.403   .     A
C904   Cl927   1.771   .     S
C904   C567    1.385   1_565 S
C906   N942    1.366   .     A
C906   H938    1.082   .     S
C906   C963    1.418   .     S
C907   F929    1.353   .     S
C907   N941    1.369   .     A
C908   C918    1.406   .     A
C908   C413    1.418   1_556 S
C908   C415    1.423   1_556 S
C909   F930    1.355   .     S
C909   N941    1.367   .     A
C910   N942    1.368   .     A
C910   F931    1.355   .     S
C910   C965    1.419   .     S
C911   O947    1.282   .     A
C911   O948    1.281   .     A
C912   O950    1.294   .     A
C912   C914    1.463   .     S
C912   O949    1.297   .     A
C913   C924    1.394   .     A
C914   C924    1.410   .     A
C914   C923    1.398   .     A
C915   C916    1.397   .     A
C915   Cl928   1.754   .     S
C916   C413    1.397   1_556 S
C916   F430    1.357   1_556 S
C917   H940    1.078   .     S
C918   C922    1.408   .     A
C919   C923    1.391   .     A
C920   C921    1.396   .     A
C920   C409    1.406   1_556 S
C920   C415    1.423   1_556 S
C921   C922    1.379   .     A
C921   F932    1.351   .     S
C922   F935    1.359   .     S
C923   H939    1.075   .     S
C924   Cl925   1.766   .     S
F933   C409    1.358   1_556 S
N941   Zn951   2.015   .     S
N942   Zn952   2.015   .     S
O943   Zn951   1.984   .     S
O944   Zn952   1.984   .     S
O945   Zn951   1.950   .     S
O946   Zn952   1.922   .     S
O947   Zn951   1.984   .     S
O948   Zn952   1.984   .     S
O949   Zn951   1.922   .     S
O950   Zn952   1.950   .     S
C953   O1000   1.281   .     A
C953   C961    1.408   .     S
C953   O999    1.281   .     A
C954   C974    1.414   .     A
C954   C956    1.484   .     S
C954   C971    1.402   .     A
C955   C961    1.394   .     A
C955   F992    1.359   .     S
C955   C621    1.370   1_565 S
C956   O1001   1.313   .     A
C956   O1002   1.294   .     A
C957   C958    1.391   .     A
C957   H993    1.084   .     S
C958   C959    1.402   .     A
C958   C967    1.407   .     S
C959   Cl982   1.770   .     S
C960   C961    1.403   .     A
C960   Cl983   1.771   .     S
C960   C623    1.385   1_565 S
C962   N998    1.366   .     A
C962   H994    1.082   .     S
C962   C851    1.418   1_655 S
C963   F985    1.353   .     S
C963   N997    1.369   .     A
C964   C974    1.406   .     A
C964   C469    1.418   1_556 S
C964   C471    1.423   1_556 S
C965   F986    1.355   .     S
C965   N997    1.367   .     A
C966   N998    1.368   .     A
C966   F987    1.355   .     S
C966   C853    1.419   1_655 S
C967   O1003   1.282   .     A
C967   O1004   1.281   .     A
C968   O1006   1.294   .     A
C968   C970    1.463   .     S
C968   O1005   1.297   .     A
C969   C980    1.394   .     A
C970   C980    1.410   .     A
C970   C979    1.398   .     A
C971   C972    1.397   .     A
C971   Cl984   1.754   .     S
C972   C469    1.397   1_556 S
C972   F486    1.357   1_556 S
C973   H996    1.078   .     S
C974   C978    1.408   .     A
C975   C979    1.391   .     A
C976   C977    1.396   .     A
C976   C465    1.406   1_556 S
C976   C471    1.423   1_556 S
C977   C978    1.379   .     A
C977   F988    1.351   .     S
C978   F991    1.359   .     S
C979   H995    1.075   .     S
C980   Cl981   1.766   .     S
F989   C465    1.358   1_556 S
N997   Zn1007  2.015   .     S
N998   Zn1008  2.015   .     S
O999   Zn1007  1.984   .     S
O1000  Zn1008  1.984   .     S
O1001  Zn1007  1.950   .     S
O1002  Zn1008  1.922   .     S
O1003  Zn1007  1.984   .     S
O1004  Zn1008  1.984   .     S
O1005  Zn1007  1.922   .     S
O1006  Zn1008  1.950   .     S
