data_str_m3_o1_o18_pcu_sym.49
_audit_creation_date              2020-01-03
_audit_creation_method            'Materials Studio'
_symmetry_space_group_name_H-M    'P1'
_symmetry_Int_Tables_number       1
_symmetry_cell_setting            triclinic
loop_
_symmetry_equiv_pos_as_xyz
  x,y,z
_cell_length_a                    29.5757
_cell_length_b                    32.1513
_cell_length_c                    30.8600
_cell_angle_alpha                 90.0971
_cell_angle_beta                  67.3181
_cell_angle_gamma                 90.0127
loop_
_atom_site_label
_atom_site_type_symbol
_atom_site_fract_x
_atom_site_fract_y
_atom_site_fract_z
_atom_site_U_iso_or_equiv
_atom_site_adp_type
_atom_site_occupancy
O1     O     0.12846   0.22775   0.25000   0.00000  Uiso   1.00
O2     O     0.20488   0.10558   0.24999   0.00000  Uiso   1.00
O3     O     0.20490   0.22774   0.25000   0.00000  Uiso   1.00
O4     O     0.12843   0.10559   0.25000   0.00000  Uiso   1.00
C5     C     0.16667   0.24669   0.25003   0.00000  Uiso   1.00
C6     C     0.16666   0.08664   0.24997   0.00000  Uiso   1.00
O7     O     0.10661   0.16667   0.31612   0.00000  Uiso   1.00
O8     O     0.22672   0.16666   0.18387   0.00000  Uiso   1.00
O9     O     0.18305   0.16666   0.31612   0.00000  Uiso   1.00
O10    O     0.15028   0.16667   0.18388   0.00000  Uiso   1.00
C11    C     0.13594   0.16618   0.33815   0.00000  Uiso   1.00
C12    C     0.19739   0.16715   0.16185   0.00000  Uiso   1.00
Zn13   Zn    0.11562   0.16667   0.25000   0.00000  Uiso   1.00
Zn14   Zn    0.21771   0.16666   0.25000   0.00000  Uiso   1.00
C15    C     0.11656   0.16159   0.38897   0.00000  Uiso   1.00
C16    C     0.21678   0.17175   0.11103   0.00000  Uiso   1.00
C17    C     0.06013   0.13027   0.46100   0.00000  Uiso   1.00
C18    C     0.27320   0.20308   0.03900   0.00000  Uiso   1.00
C19    C     0.07438   0.13860   0.41303   0.00000  Uiso   1.00
C20    C     0.25895   0.19474   0.08697   0.00000  Uiso   1.00
C21    C     0.14566   0.17480   0.41207   0.00000  Uiso   1.00
C22    C     0.18768   0.15854   0.08793   0.00000  Uiso   1.00
C23    C     0.13729   0.16101   0.45715   0.00000  Uiso   1.00
C24    C     0.19604   0.17234   0.04285   0.00000  Uiso   1.00
C25    C     0.09078   0.14346   0.48485   0.00000  Uiso   1.00
C26    C     0.24255   0.18989   0.01515   0.00000  Uiso   1.00
C27    C     0.17378   0.16685   0.47560   0.00000  Uiso   1.00
C28    C     0.15956   0.16650   0.02440   0.00000  Uiso   1.00
C29    C     0.10922   0.16059   0.05326   0.00000  Uiso   1.00
C30    C     0.22412   0.17276   0.44673   0.00000  Uiso   1.00
C31    C     0.07710   0.14325   0.03435   0.00000  Uiso   1.00
C32    C     0.25624   0.19009   0.46565   0.00000  Uiso   1.00
H33    H     0.15698   0.13828   0.10623   0.00000  Uiso   1.00
H34    H     0.17635   0.19506   0.39377   0.00000  Uiso   1.00
H35    H     0.28067   0.20656   0.10568   0.00000  Uiso   1.00
H36    H     0.05267   0.12678   0.39433   0.00000  Uiso   1.00
C37    C     0.21052   0.31203   0.24152   0.00000  Uiso   1.00
C38    C     0.12282   0.02130   0.25848   0.00000  Uiso   1.00
H39    H     0.24472   0.29581   0.23464   0.00000  Uiso   1.00
H40    H     0.08861   0.03752   0.26536   0.00000  Uiso   1.00
C41    C     0.21052   0.02130   0.24148   0.00000  Uiso   1.00
C42    C     0.12282   0.31203   0.25852   0.00000  Uiso   1.00
H43    H     0.24473   0.03752   0.23456   0.00000  Uiso   1.00
H44    H     0.08861   0.29582   0.26544   0.00000  Uiso   1.00
C45    C     0.16667   0.04248   0.24996   0.00000  Uiso   1.00
C46    C     0.16667   0.29085   0.25004   0.00000  Uiso   1.00
C47    C     0.31864   0.13632   0.22695   0.00000  Uiso   1.00
C48    C     0.01469   0.19701   0.27304   0.00000  Uiso   1.00
H49    H     0.30803   0.11211   0.20837   0.00000  Uiso   1.00
H50    H     0.02531   0.22122   0.29163   0.00000  Uiso   1.00
C51    C     0.03318   0.13629   0.22705   0.00000  Uiso   1.00
C52    C     0.30015   0.19705   0.27295   0.00000  Uiso   1.00
H53    H     0.05873   0.11206   0.20851   0.00000  Uiso   1.00
H54    H     0.27460   0.22128   0.29149   0.00000  Uiso   1.00
N55    N     0.04759   0.16668   0.25001   0.00000  Uiso   1.00
N56    N     0.28574   0.16666   0.24999   0.00000  Uiso   1.00
Br57   Br    0.01489   0.12405   0.07937   0.00000  Uiso   1.00
Br58   Br    0.31845   0.20929   0.42064   0.00000  Uiso   1.00
Br59   Br    0.00137   0.09750   0.48651   0.00000  Uiso   1.00
Br60   Br    0.33196   0.23585   0.01350   0.00000  Uiso   1.00
Br61   Br    0.08041   0.18684   0.11463   0.00000  Uiso   1.00
Br62   Br    0.25293   0.14651   0.38537   0.00000  Uiso   1.00
O63    O     0.46179   0.22775   0.25000   0.00000  Uiso   1.00
O64    O     0.53821   0.10558   0.24999   0.00000  Uiso   1.00
O65    O     0.53823   0.22774   0.25000   0.00000  Uiso   1.00
O66    O     0.46177   0.10559   0.25000   0.00000  Uiso   1.00
C67    C     0.50001   0.24669   0.25003   0.00000  Uiso   1.00
C68    C     0.49999   0.08664   0.24997   0.00000  Uiso   1.00
O69    O     0.43994   0.16667   0.31612   0.00000  Uiso   1.00
O70    O     0.56006   0.16666   0.18387   0.00000  Uiso   1.00
O71    O     0.51639   0.16666   0.31612   0.00000  Uiso   1.00
O72    O     0.48361   0.16667   0.18388   0.00000  Uiso   1.00
C73    C     0.46927   0.16618   0.33815   0.00000  Uiso   1.00
C74    C     0.53073   0.16715   0.16185   0.00000  Uiso   1.00
Zn75   Zn    0.44896   0.16667   0.25000   0.00000  Uiso   1.00
Zn76   Zn    0.55104   0.16666   0.25000   0.00000  Uiso   1.00
C77    C     0.44989   0.16159   0.38897   0.00000  Uiso   1.00
C78    C     0.55011   0.17175   0.11103   0.00000  Uiso   1.00
C79    C     0.39347   0.13027   0.46100   0.00000  Uiso   1.00
C80    C     0.60653   0.20308   0.03900   0.00000  Uiso   1.00
C81    C     0.40771   0.13860   0.41303   0.00000  Uiso   1.00
C82    C     0.59229   0.19474   0.08697   0.00000  Uiso   1.00
C83    C     0.47899   0.17480   0.41207   0.00000  Uiso   1.00
C84    C     0.52101   0.15854   0.08793   0.00000  Uiso   1.00
C85    C     0.47063   0.16101   0.45715   0.00000  Uiso   1.00
C86    C     0.52937   0.17234   0.04285   0.00000  Uiso   1.00
C87    C     0.42411   0.14346   0.48485   0.00000  Uiso   1.00
C88    C     0.57589   0.18989   0.01515   0.00000  Uiso   1.00
C89    C     0.50711   0.16685   0.47560   0.00000  Uiso   1.00
C90    C     0.49289   0.16650   0.02440   0.00000  Uiso   1.00
C91    C     0.44255   0.16059   0.05326   0.00000  Uiso   1.00
C92    C     0.55745   0.17276   0.44673   0.00000  Uiso   1.00
C93    C     0.41043   0.14325   0.03435   0.00000  Uiso   1.00
C94    C     0.58957   0.19009   0.46565   0.00000  Uiso   1.00
H95    H     0.49031   0.13828   0.10623   0.00000  Uiso   1.00
H96    H     0.50969   0.19506   0.39377   0.00000  Uiso   1.00
H97    H     0.61400   0.20656   0.10568   0.00000  Uiso   1.00
H98    H     0.38600   0.12678   0.39433   0.00000  Uiso   1.00
C99    C     0.54385   0.31203   0.24152   0.00000  Uiso   1.00
C100   C     0.45615   0.02130   0.25848   0.00000  Uiso   1.00
H101   H     0.57806   0.29581   0.23464   0.00000  Uiso   1.00
H102   H     0.42195   0.03752   0.26536   0.00000  Uiso   1.00
C103   C     0.54385   0.02130   0.24148   0.00000  Uiso   1.00
C104   C     0.45615   0.31203   0.25852   0.00000  Uiso   1.00
H105   H     0.57806   0.03752   0.23456   0.00000  Uiso   1.00
H106   H     0.42194   0.29582   0.26544   0.00000  Uiso   1.00
C107   C     0.50000   0.04248   0.24996   0.00000  Uiso   1.00
C108   C     0.50000   0.29085   0.25004   0.00000  Uiso   1.00
C109   C     0.65197   0.13632   0.22695   0.00000  Uiso   1.00
C110   C     0.34803   0.19701   0.27304   0.00000  Uiso   1.00
H111   H     0.64136   0.11211   0.20837   0.00000  Uiso   1.00
H112   H     0.35864   0.22122   0.29163   0.00000  Uiso   1.00
C113   C     0.36652   0.13629   0.22705   0.00000  Uiso   1.00
C114   C     0.63348   0.19705   0.27295   0.00000  Uiso   1.00
H115   H     0.39207   0.11206   0.20851   0.00000  Uiso   1.00
H116   H     0.60793   0.22128   0.29149   0.00000  Uiso   1.00
N117   N     0.38093   0.16668   0.25001   0.00000  Uiso   1.00
N118   N     0.61907   0.16666   0.24999   0.00000  Uiso   1.00
Br119  Br    0.34822   0.12405   0.07937   0.00000  Uiso   1.00
Br120  Br    0.65179   0.20929   0.42064   0.00000  Uiso   1.00
Br121  Br    0.33470   0.09750   0.48651   0.00000  Uiso   1.00
Br122  Br    0.66530   0.23585   0.01350   0.00000  Uiso   1.00
Br123  Br    0.41374   0.18684   0.11463   0.00000  Uiso   1.00
Br124  Br    0.58626   0.14651   0.38537   0.00000  Uiso   1.00
O125   O     0.79512   0.22775   0.25000   0.00000  Uiso   1.00
O126   O     0.87154   0.10558   0.24999   0.00000  Uiso   1.00
O127   O     0.87157   0.22774   0.25000   0.00000  Uiso   1.00
O128   O     0.79510   0.10559   0.25000   0.00000  Uiso   1.00
C129   C     0.83334   0.24669   0.25003   0.00000  Uiso   1.00
C130   C     0.83333   0.08664   0.24997   0.00000  Uiso   1.00
O131   O     0.77328   0.16667   0.31612   0.00000  Uiso   1.00
O132   O     0.89339   0.16666   0.18387   0.00000  Uiso   1.00
O133   O     0.84972   0.16666   0.31612   0.00000  Uiso   1.00
O134   O     0.81695   0.16667   0.18388   0.00000  Uiso   1.00
C135   C     0.80261   0.16618   0.33815   0.00000  Uiso   1.00
C136   C     0.86406   0.16715   0.16185   0.00000  Uiso   1.00
Zn137  Zn    0.78229   0.16667   0.25000   0.00000  Uiso   1.00
Zn138  Zn    0.88438   0.16666   0.25000   0.00000  Uiso   1.00
C139   C     0.78322   0.16159   0.38897   0.00000  Uiso   1.00
C140   C     0.88344   0.17175   0.11103   0.00000  Uiso   1.00
C141   C     0.72680   0.13027   0.46100   0.00000  Uiso   1.00
C142   C     0.93987   0.20308   0.03900   0.00000  Uiso   1.00
C143   C     0.74105   0.13860   0.41303   0.00000  Uiso   1.00
C144   C     0.92562   0.19474   0.08697   0.00000  Uiso   1.00
C145   C     0.81233   0.17480   0.41207   0.00000  Uiso   1.00
C146   C     0.85434   0.15854   0.08793   0.00000  Uiso   1.00
C147   C     0.80396   0.16101   0.45715   0.00000  Uiso   1.00
C148   C     0.86271   0.17234   0.04285   0.00000  Uiso   1.00
C149   C     0.75745   0.14346   0.48485   0.00000  Uiso   1.00
C150   C     0.90922   0.18989   0.01515   0.00000  Uiso   1.00
C151   C     0.84045   0.16685   0.47560   0.00000  Uiso   1.00
C152   C     0.82622   0.16650   0.02440   0.00000  Uiso   1.00
C153   C     0.77588   0.16059   0.05326   0.00000  Uiso   1.00
C154   C     0.89079   0.17276   0.44673   0.00000  Uiso   1.00
C155   C     0.74377   0.14325   0.03435   0.00000  Uiso   1.00
C156   C     0.92290   0.19009   0.46565   0.00000  Uiso   1.00
H157   H     0.82365   0.13828   0.10623   0.00000  Uiso   1.00
H158   H     0.84302   0.19506   0.39377   0.00000  Uiso   1.00
H159   H     0.94733   0.20656   0.10568   0.00000  Uiso   1.00
H160   H     0.71933   0.12678   0.39433   0.00000  Uiso   1.00
C161   C     0.87718   0.31203   0.24152   0.00000  Uiso   1.00
C162   C     0.78948   0.02130   0.25848   0.00000  Uiso   1.00
H163   H     0.91139   0.29581   0.23464   0.00000  Uiso   1.00
H164   H     0.75528   0.03752   0.26536   0.00000  Uiso   1.00
C165   C     0.87719   0.02130   0.24148   0.00000  Uiso   1.00
C166   C     0.78948   0.31203   0.25852   0.00000  Uiso   1.00
H167   H     0.91139   0.03752   0.23456   0.00000  Uiso   1.00
H168   H     0.75527   0.29582   0.26544   0.00000  Uiso   1.00
C169   C     0.83333   0.04248   0.24996   0.00000  Uiso   1.00
C170   C     0.83334   0.29085   0.25004   0.00000  Uiso   1.00
C171   C     0.98531   0.13632   0.22695   0.00000  Uiso   1.00
C172   C     0.68136   0.19701   0.27304   0.00000  Uiso   1.00
H173   H     0.97469   0.11211   0.20837   0.00000  Uiso   1.00
H174   H     0.69198   0.22122   0.29163   0.00000  Uiso   1.00
C175   C     0.69985   0.13629   0.22705   0.00000  Uiso   1.00
C176   C     0.96682   0.19705   0.27295   0.00000  Uiso   1.00
H177   H     0.72540   0.11206   0.20851   0.00000  Uiso   1.00
H178   H     0.94127   0.22128   0.29149   0.00000  Uiso   1.00
N179   N     0.71426   0.16668   0.25001   0.00000  Uiso   1.00
N180   N     0.95241   0.16666   0.24999   0.00000  Uiso   1.00
Br181  Br    0.68155   0.12405   0.07937   0.00000  Uiso   1.00
Br182  Br    0.98512   0.20929   0.42064   0.00000  Uiso   1.00
Br183  Br    0.66803   0.09750   0.48651   0.00000  Uiso   1.00
Br184  Br    0.99863   0.23585   0.01350   0.00000  Uiso   1.00
Br185  Br    0.74708   0.18684   0.11463   0.00000  Uiso   1.00
Br186  Br    0.91959   0.14651   0.38537   0.00000  Uiso   1.00
O187   O     0.12846   0.56108   0.25000   0.00000  Uiso   1.00
O188   O     0.20488   0.43892   0.24999   0.00000  Uiso   1.00
O189   O     0.20490   0.56107   0.25000   0.00000  Uiso   1.00
O190   O     0.12843   0.43893   0.25000   0.00000  Uiso   1.00
C191   C     0.16667   0.58003   0.25003   0.00000  Uiso   1.00
C192   C     0.16666   0.41997   0.24997   0.00000  Uiso   1.00
O193   O     0.10661   0.50001   0.31612   0.00000  Uiso   1.00
O194   O     0.22672   0.49999   0.18387   0.00000  Uiso   1.00
O195   O     0.18305   0.50000   0.31612   0.00000  Uiso   1.00
O196   O     0.15028   0.50000   0.18388   0.00000  Uiso   1.00
C197   C     0.13594   0.49952   0.33815   0.00000  Uiso   1.00
C198   C     0.19739   0.50048   0.16185   0.00000  Uiso   1.00
Zn199  Zn    0.11562   0.50001   0.25000   0.00000  Uiso   1.00
Zn200  Zn    0.21771   0.49999   0.25000   0.00000  Uiso   1.00
C201   C     0.11656   0.49492   0.38897   0.00000  Uiso   1.00
C202   C     0.21678   0.50508   0.11103   0.00000  Uiso   1.00
C203   C     0.06013   0.46360   0.46100   0.00000  Uiso   1.00
C204   C     0.27320   0.53641   0.03900   0.00000  Uiso   1.00
C205   C     0.07438   0.47194   0.41303   0.00000  Uiso   1.00
C206   C     0.25895   0.52807   0.08697   0.00000  Uiso   1.00
C207   C     0.14566   0.50813   0.41207   0.00000  Uiso   1.00
C208   C     0.18768   0.49188   0.08793   0.00000  Uiso   1.00
C209   C     0.13729   0.49434   0.45715   0.00000  Uiso   1.00
C210   C     0.19604   0.50567   0.04285   0.00000  Uiso   1.00
C211   C     0.09078   0.47679   0.48485   0.00000  Uiso   1.00
C212   C     0.24255   0.52322   0.01515   0.00000  Uiso   1.00
C213   C     0.17378   0.50018   0.47560   0.00000  Uiso   1.00
C214   C     0.15956   0.49983   0.02440   0.00000  Uiso   1.00
C215   C     0.10922   0.49393   0.05326   0.00000  Uiso   1.00
C216   C     0.22412   0.50609   0.44673   0.00000  Uiso   1.00
C217   C     0.07710   0.47659   0.03435   0.00000  Uiso   1.00
C218   C     0.25624   0.52343   0.46565   0.00000  Uiso   1.00
H219   H     0.15698   0.47161   0.10623   0.00000  Uiso   1.00
H220   H     0.17635   0.52840   0.39377   0.00000  Uiso   1.00
H221   H     0.28067   0.53989   0.10568   0.00000  Uiso   1.00
H222   H     0.05267   0.46011   0.39433   0.00000  Uiso   1.00
C223   C     0.21052   0.64536   0.24152   0.00000  Uiso   1.00
C224   C     0.12282   0.35464   0.25848   0.00000  Uiso   1.00
H225   H     0.24472   0.62915   0.23464   0.00000  Uiso   1.00
H226   H     0.08861   0.37085   0.26536   0.00000  Uiso   1.00
C227   C     0.21052   0.35464   0.24148   0.00000  Uiso   1.00
C228   C     0.12282   0.64536   0.25852   0.00000  Uiso   1.00
H229   H     0.24473   0.37085   0.23456   0.00000  Uiso   1.00
H230   H     0.08861   0.62915   0.26544   0.00000  Uiso   1.00
C231   C     0.16667   0.37582   0.24996   0.00000  Uiso   1.00
C232   C     0.16667   0.62418   0.25004   0.00000  Uiso   1.00
C233   C     0.31864   0.46966   0.22695   0.00000  Uiso   1.00
C234   C     0.01469   0.53034   0.27304   0.00000  Uiso   1.00
H235   H     0.30803   0.44545   0.20837   0.00000  Uiso   1.00
H236   H     0.02531   0.55455   0.29163   0.00000  Uiso   1.00
C237   C     0.03318   0.46962   0.22705   0.00000  Uiso   1.00
C238   C     0.30015   0.53038   0.27295   0.00000  Uiso   1.00
H239   H     0.05873   0.44539   0.20851   0.00000  Uiso   1.00
H240   H     0.27460   0.55461   0.29149   0.00000  Uiso   1.00
N241   N     0.04759   0.50001   0.25001   0.00000  Uiso   1.00
N242   N     0.28574   0.49999   0.24999   0.00000  Uiso   1.00
Br243  Br    0.01489   0.45738   0.07937   0.00000  Uiso   1.00
Br244  Br    0.31845   0.54263   0.42064   0.00000  Uiso   1.00
Br245  Br    0.00137   0.43083   0.48651   0.00000  Uiso   1.00
Br246  Br    0.33196   0.56918   0.01350   0.00000  Uiso   1.00
Br247  Br    0.08041   0.52017   0.11463   0.00000  Uiso   1.00
Br248  Br    0.25293   0.47985   0.38537   0.00000  Uiso   1.00
O249   O     0.46179   0.56108   0.25000   0.00000  Uiso   1.00
O250   O     0.53821   0.43892   0.24999   0.00000  Uiso   1.00
O251   O     0.53823   0.56107   0.25000   0.00000  Uiso   1.00
O252   O     0.46177   0.43893   0.25000   0.00000  Uiso   1.00
C253   C     0.50001   0.58003   0.25003   0.00000  Uiso   1.00
C254   C     0.49999   0.41997   0.24997   0.00000  Uiso   1.00
O255   O     0.43994   0.50001   0.31612   0.00000  Uiso   1.00
O256   O     0.56006   0.49999   0.18387   0.00000  Uiso   1.00
O257   O     0.51639   0.50000   0.31612   0.00000  Uiso   1.00
O258   O     0.48361   0.50000   0.18388   0.00000  Uiso   1.00
C259   C     0.46927   0.49952   0.33815   0.00000  Uiso   1.00
C260   C     0.53073   0.50048   0.16185   0.00000  Uiso   1.00
Zn261  Zn    0.44896   0.50001   0.25000   0.00000  Uiso   1.00
Zn262  Zn    0.55104   0.49999   0.25000   0.00000  Uiso   1.00
C263   C     0.44989   0.49492   0.38897   0.00000  Uiso   1.00
C264   C     0.55011   0.50508   0.11103   0.00000  Uiso   1.00
C265   C     0.39347   0.46360   0.46100   0.00000  Uiso   1.00
C266   C     0.60653   0.53641   0.03900   0.00000  Uiso   1.00
C267   C     0.40771   0.47194   0.41303   0.00000  Uiso   1.00
C268   C     0.59229   0.52807   0.08697   0.00000  Uiso   1.00
C269   C     0.47899   0.50813   0.41207   0.00000  Uiso   1.00
C270   C     0.52101   0.49188   0.08793   0.00000  Uiso   1.00
C271   C     0.47063   0.49434   0.45715   0.00000  Uiso   1.00
C272   C     0.52937   0.50567   0.04285   0.00000  Uiso   1.00
C273   C     0.42411   0.47679   0.48485   0.00000  Uiso   1.00
C274   C     0.57589   0.52322   0.01515   0.00000  Uiso   1.00
C275   C     0.50711   0.50018   0.47560   0.00000  Uiso   1.00
C276   C     0.49289   0.49983   0.02440   0.00000  Uiso   1.00
C277   C     0.44255   0.49393   0.05326   0.00000  Uiso   1.00
C278   C     0.55745   0.50609   0.44673   0.00000  Uiso   1.00
C279   C     0.41043   0.47659   0.03435   0.00000  Uiso   1.00
C280   C     0.58957   0.52343   0.46565   0.00000  Uiso   1.00
H281   H     0.49031   0.47161   0.10623   0.00000  Uiso   1.00
H282   H     0.50969   0.52840   0.39377   0.00000  Uiso   1.00
H283   H     0.61400   0.53989   0.10568   0.00000  Uiso   1.00
H284   H     0.38600   0.46011   0.39433   0.00000  Uiso   1.00
C285   C     0.54385   0.64536   0.24152   0.00000  Uiso   1.00
C286   C     0.45615   0.35464   0.25848   0.00000  Uiso   1.00
H287   H     0.57806   0.62915   0.23464   0.00000  Uiso   1.00
H288   H     0.42195   0.37085   0.26536   0.00000  Uiso   1.00
C289   C     0.54385   0.35464   0.24148   0.00000  Uiso   1.00
C290   C     0.45615   0.64536   0.25852   0.00000  Uiso   1.00
H291   H     0.57806   0.37085   0.23456   0.00000  Uiso   1.00
H292   H     0.42194   0.62915   0.26544   0.00000  Uiso   1.00
C293   C     0.50000   0.37582   0.24996   0.00000  Uiso   1.00
C294   C     0.50000   0.62418   0.25004   0.00000  Uiso   1.00
C295   C     0.65197   0.46966   0.22695   0.00000  Uiso   1.00
C296   C     0.34803   0.53034   0.27304   0.00000  Uiso   1.00
H297   H     0.64136   0.44545   0.20837   0.00000  Uiso   1.00
H298   H     0.35864   0.55455   0.29163   0.00000  Uiso   1.00
C299   C     0.36652   0.46962   0.22705   0.00000  Uiso   1.00
C300   C     0.63348   0.53038   0.27295   0.00000  Uiso   1.00
H301   H     0.39207   0.44539   0.20851   0.00000  Uiso   1.00
H302   H     0.60793   0.55461   0.29149   0.00000  Uiso   1.00
N303   N     0.38093   0.50001   0.25001   0.00000  Uiso   1.00
N304   N     0.61907   0.49999   0.24999   0.00000  Uiso   1.00
Br305  Br    0.34822   0.45738   0.07937   0.00000  Uiso   1.00
Br306  Br    0.65179   0.54263   0.42064   0.00000  Uiso   1.00
Br307  Br    0.33470   0.43083   0.48651   0.00000  Uiso   1.00
Br308  Br    0.66530   0.56918   0.01350   0.00000  Uiso   1.00
Br309  Br    0.41374   0.52017   0.11463   0.00000  Uiso   1.00
Br310  Br    0.58626   0.47985   0.38537   0.00000  Uiso   1.00
O311   O     0.79512   0.56108   0.25000   0.00000  Uiso   1.00
O312   O     0.87154   0.43892   0.24999   0.00000  Uiso   1.00
O313   O     0.87157   0.56107   0.25000   0.00000  Uiso   1.00
O314   O     0.79510   0.43893   0.25000   0.00000  Uiso   1.00
C315   C     0.83334   0.58003   0.25003   0.00000  Uiso   1.00
C316   C     0.83333   0.41997   0.24997   0.00000  Uiso   1.00
O317   O     0.77328   0.50001   0.31612   0.00000  Uiso   1.00
O318   O     0.89339   0.49999   0.18387   0.00000  Uiso   1.00
O319   O     0.84972   0.50000   0.31612   0.00000  Uiso   1.00
O320   O     0.81695   0.50000   0.18388   0.00000  Uiso   1.00
C321   C     0.80261   0.49952   0.33815   0.00000  Uiso   1.00
C322   C     0.86406   0.50048   0.16185   0.00000  Uiso   1.00
Zn323  Zn    0.78229   0.50001   0.25000   0.00000  Uiso   1.00
Zn324  Zn    0.88438   0.49999   0.25000   0.00000  Uiso   1.00
C325   C     0.78322   0.49492   0.38897   0.00000  Uiso   1.00
C326   C     0.88344   0.50508   0.11103   0.00000  Uiso   1.00
C327   C     0.72680   0.46360   0.46100   0.00000  Uiso   1.00
C328   C     0.93987   0.53641   0.03900   0.00000  Uiso   1.00
C329   C     0.74105   0.47194   0.41303   0.00000  Uiso   1.00
C330   C     0.92562   0.52807   0.08697   0.00000  Uiso   1.00
C331   C     0.81233   0.50813   0.41207   0.00000  Uiso   1.00
C332   C     0.85434   0.49188   0.08793   0.00000  Uiso   1.00
C333   C     0.80396   0.49434   0.45715   0.00000  Uiso   1.00
C334   C     0.86271   0.50567   0.04285   0.00000  Uiso   1.00
C335   C     0.75745   0.47679   0.48485   0.00000  Uiso   1.00
C336   C     0.90922   0.52322   0.01515   0.00000  Uiso   1.00
C337   C     0.84045   0.50018   0.47560   0.00000  Uiso   1.00
C338   C     0.82622   0.49983   0.02440   0.00000  Uiso   1.00
C339   C     0.77588   0.49393   0.05326   0.00000  Uiso   1.00
C340   C     0.89079   0.50609   0.44673   0.00000  Uiso   1.00
C341   C     0.74377   0.47659   0.03435   0.00000  Uiso   1.00
C342   C     0.92290   0.52343   0.46565   0.00000  Uiso   1.00
H343   H     0.82365   0.47161   0.10623   0.00000  Uiso   1.00
H344   H     0.84302   0.52840   0.39377   0.00000  Uiso   1.00
H345   H     0.94733   0.53989   0.10568   0.00000  Uiso   1.00
H346   H     0.71933   0.46011   0.39433   0.00000  Uiso   1.00
C347   C     0.87718   0.64536   0.24152   0.00000  Uiso   1.00
C348   C     0.78948   0.35464   0.25848   0.00000  Uiso   1.00
H349   H     0.91139   0.62915   0.23464   0.00000  Uiso   1.00
H350   H     0.75528   0.37085   0.26536   0.00000  Uiso   1.00
C351   C     0.87719   0.35464   0.24148   0.00000  Uiso   1.00
C352   C     0.78948   0.64536   0.25852   0.00000  Uiso   1.00
H353   H     0.91139   0.37085   0.23456   0.00000  Uiso   1.00
H354   H     0.75527   0.62915   0.26544   0.00000  Uiso   1.00
C355   C     0.83333   0.37582   0.24996   0.00000  Uiso   1.00
C356   C     0.83334   0.62418   0.25004   0.00000  Uiso   1.00
C357   C     0.98531   0.46966   0.22695   0.00000  Uiso   1.00
C358   C     0.68136   0.53034   0.27304   0.00000  Uiso   1.00
H359   H     0.97469   0.44545   0.20837   0.00000  Uiso   1.00
H360   H     0.69198   0.55455   0.29163   0.00000  Uiso   1.00
C361   C     0.69985   0.46962   0.22705   0.00000  Uiso   1.00
C362   C     0.96682   0.53038   0.27295   0.00000  Uiso   1.00
H363   H     0.72540   0.44539   0.20851   0.00000  Uiso   1.00
H364   H     0.94127   0.55461   0.29149   0.00000  Uiso   1.00
N365   N     0.71426   0.50001   0.25001   0.00000  Uiso   1.00
N366   N     0.95241   0.49999   0.24999   0.00000  Uiso   1.00
Br367  Br    0.68155   0.45738   0.07937   0.00000  Uiso   1.00
Br368  Br    0.98512   0.54263   0.42064   0.00000  Uiso   1.00
Br369  Br    0.66803   0.43083   0.48651   0.00000  Uiso   1.00
Br370  Br    0.99863   0.56918   0.01350   0.00000  Uiso   1.00
Br371  Br    0.74708   0.52017   0.11463   0.00000  Uiso   1.00
Br372  Br    0.91959   0.47985   0.38537   0.00000  Uiso   1.00
O373   O     0.12846   0.89442   0.25000   0.00000  Uiso   1.00
O374   O     0.20488   0.77225   0.24999   0.00000  Uiso   1.00
O375   O     0.20490   0.89441   0.25000   0.00000  Uiso   1.00
O376   O     0.12843   0.77226   0.25000   0.00000  Uiso   1.00
C377   C     0.16667   0.91336   0.25003   0.00000  Uiso   1.00
C378   C     0.16666   0.75331   0.24997   0.00000  Uiso   1.00
O379   O     0.10661   0.83334   0.31612   0.00000  Uiso   1.00
O380   O     0.22672   0.83333   0.18387   0.00000  Uiso   1.00
O381   O     0.18305   0.83333   0.31612   0.00000  Uiso   1.00
O382   O     0.15028   0.83334   0.18388   0.00000  Uiso   1.00
C383   C     0.13594   0.83285   0.33815   0.00000  Uiso   1.00
C384   C     0.19739   0.83382   0.16185   0.00000  Uiso   1.00
Zn385  Zn    0.11562   0.83334   0.25000   0.00000  Uiso   1.00
Zn386  Zn    0.21771   0.83333   0.25000   0.00000  Uiso   1.00
C387   C     0.11656   0.82826   0.38897   0.00000  Uiso   1.00
C388   C     0.21678   0.83842   0.11103   0.00000  Uiso   1.00
C389   C     0.06013   0.79693   0.46100   0.00000  Uiso   1.00
C390   C     0.27320   0.86974   0.03900   0.00000  Uiso   1.00
C391   C     0.07438   0.80527   0.41303   0.00000  Uiso   1.00
C392   C     0.25895   0.86140   0.08697   0.00000  Uiso   1.00
C393   C     0.14566   0.84147   0.41207   0.00000  Uiso   1.00
C394   C     0.18768   0.82521   0.08793   0.00000  Uiso   1.00
C395   C     0.13729   0.82767   0.45715   0.00000  Uiso   1.00
C396   C     0.19604   0.83901   0.04285   0.00000  Uiso   1.00
C397   C     0.09078   0.81012   0.48485   0.00000  Uiso   1.00
C398   C     0.24255   0.85656   0.01515   0.00000  Uiso   1.00
C399   C     0.17378   0.83351   0.47560   0.00000  Uiso   1.00
C400   C     0.15956   0.83317   0.02440   0.00000  Uiso   1.00
C401   C     0.10922   0.82726   0.05326   0.00000  Uiso   1.00
C402   C     0.22412   0.83942   0.44673   0.00000  Uiso   1.00
C403   C     0.07710   0.80992   0.03435   0.00000  Uiso   1.00
C404   C     0.25624   0.85676   0.46565   0.00000  Uiso   1.00
H405   H     0.15698   0.80495   0.10623   0.00000  Uiso   1.00
H406   H     0.17635   0.86173   0.39377   0.00000  Uiso   1.00
H407   H     0.28067   0.87323   0.10568   0.00000  Uiso   1.00
H408   H     0.05267   0.79345   0.39433   0.00000  Uiso   1.00
C409   C     0.21052   0.97870   0.24152   0.00000  Uiso   1.00
C410   C     0.12282   0.68797   0.25848   0.00000  Uiso   1.00
H411   H     0.24472   0.96248   0.23464   0.00000  Uiso   1.00
H412   H     0.08861   0.70419   0.26536   0.00000  Uiso   1.00
C413   C     0.21052   0.68797   0.24148   0.00000  Uiso   1.00
C414   C     0.12282   0.97870   0.25852   0.00000  Uiso   1.00
H415   H     0.24473   0.70418   0.23456   0.00000  Uiso   1.00
H416   H     0.08861   0.96248   0.26544   0.00000  Uiso   1.00
C417   C     0.16667   0.70915   0.24996   0.00000  Uiso   1.00
C418   C     0.16667   0.95752   0.25004   0.00000  Uiso   1.00
C419   C     0.31864   0.80299   0.22695   0.00000  Uiso   1.00
C420   C     0.01469   0.86368   0.27304   0.00000  Uiso   1.00
H421   H     0.30803   0.77878   0.20837   0.00000  Uiso   1.00
H422   H     0.02531   0.88789   0.29163   0.00000  Uiso   1.00
C423   C     0.03318   0.80295   0.22705   0.00000  Uiso   1.00
C424   C     0.30015   0.86371   0.27295   0.00000  Uiso   1.00
H425   H     0.05873   0.77872   0.20851   0.00000  Uiso   1.00
H426   H     0.27460   0.88794   0.29149   0.00000  Uiso   1.00
N427   N     0.04759   0.83334   0.25001   0.00000  Uiso   1.00
N428   N     0.28574   0.83332   0.24999   0.00000  Uiso   1.00
Br429  Br    0.01489   0.79072   0.07937   0.00000  Uiso   1.00
Br430  Br    0.31845   0.87596   0.42064   0.00000  Uiso   1.00
Br431  Br    0.00137   0.76416   0.48651   0.00000  Uiso   1.00
Br432  Br    0.33196   0.90252   0.01350   0.00000  Uiso   1.00
Br433  Br    0.08041   0.85351   0.11463   0.00000  Uiso   1.00
Br434  Br    0.25293   0.81318   0.38537   0.00000  Uiso   1.00
O435   O     0.46179   0.89442   0.25000   0.00000  Uiso   1.00
O436   O     0.53821   0.77225   0.24999   0.00000  Uiso   1.00
O437   O     0.53823   0.89441   0.25000   0.00000  Uiso   1.00
O438   O     0.46177   0.77226   0.25000   0.00000  Uiso   1.00
C439   C     0.50001   0.91336   0.25003   0.00000  Uiso   1.00
C440   C     0.49999   0.75331   0.24997   0.00000  Uiso   1.00
O441   O     0.43994   0.83334   0.31612   0.00000  Uiso   1.00
O442   O     0.56006   0.83333   0.18387   0.00000  Uiso   1.00
O443   O     0.51639   0.83333   0.31612   0.00000  Uiso   1.00
O444   O     0.48361   0.83334   0.18388   0.00000  Uiso   1.00
C445   C     0.46927   0.83285   0.33815   0.00000  Uiso   1.00
C446   C     0.53073   0.83382   0.16185   0.00000  Uiso   1.00
Zn447  Zn    0.44896   0.83334   0.25000   0.00000  Uiso   1.00
Zn448  Zn    0.55104   0.83333   0.25000   0.00000  Uiso   1.00
C449   C     0.44989   0.82826   0.38897   0.00000  Uiso   1.00
C450   C     0.55011   0.83842   0.11103   0.00000  Uiso   1.00
C451   C     0.39347   0.79693   0.46100   0.00000  Uiso   1.00
C452   C     0.60653   0.86974   0.03900   0.00000  Uiso   1.00
C453   C     0.40771   0.80527   0.41303   0.00000  Uiso   1.00
C454   C     0.59229   0.86140   0.08697   0.00000  Uiso   1.00
C455   C     0.47899   0.84147   0.41207   0.00000  Uiso   1.00
C456   C     0.52101   0.82521   0.08793   0.00000  Uiso   1.00
C457   C     0.47063   0.82767   0.45715   0.00000  Uiso   1.00
C458   C     0.52937   0.83901   0.04285   0.00000  Uiso   1.00
C459   C     0.42411   0.81012   0.48485   0.00000  Uiso   1.00
C460   C     0.57589   0.85656   0.01515   0.00000  Uiso   1.00
C461   C     0.50711   0.83351   0.47560   0.00000  Uiso   1.00
C462   C     0.49289   0.83317   0.02440   0.00000  Uiso   1.00
C463   C     0.44255   0.82726   0.05326   0.00000  Uiso   1.00
C464   C     0.55745   0.83942   0.44673   0.00000  Uiso   1.00
C465   C     0.41043   0.80992   0.03435   0.00000  Uiso   1.00
C466   C     0.58957   0.85676   0.46565   0.00000  Uiso   1.00
H467   H     0.49031   0.80495   0.10623   0.00000  Uiso   1.00
H468   H     0.50969   0.86173   0.39377   0.00000  Uiso   1.00
H469   H     0.61400   0.87323   0.10568   0.00000  Uiso   1.00
H470   H     0.38600   0.79345   0.39433   0.00000  Uiso   1.00
C471   C     0.54385   0.97870   0.24152   0.00000  Uiso   1.00
C472   C     0.45615   0.68797   0.25848   0.00000  Uiso   1.00
H473   H     0.57806   0.96248   0.23464   0.00000  Uiso   1.00
H474   H     0.42195   0.70419   0.26536   0.00000  Uiso   1.00
C475   C     0.54385   0.68797   0.24148   0.00000  Uiso   1.00
C476   C     0.45615   0.97870   0.25852   0.00000  Uiso   1.00
H477   H     0.57806   0.70418   0.23456   0.00000  Uiso   1.00
H478   H     0.42194   0.96248   0.26544   0.00000  Uiso   1.00
C479   C     0.50000   0.70915   0.24996   0.00000  Uiso   1.00
C480   C     0.50000   0.95752   0.25004   0.00000  Uiso   1.00
C481   C     0.65197   0.80299   0.22695   0.00000  Uiso   1.00
C482   C     0.34803   0.86368   0.27304   0.00000  Uiso   1.00
H483   H     0.64136   0.77878   0.20837   0.00000  Uiso   1.00
H484   H     0.35864   0.88789   0.29163   0.00000  Uiso   1.00
C485   C     0.36652   0.80295   0.22705   0.00000  Uiso   1.00
C486   C     0.63348   0.86371   0.27295   0.00000  Uiso   1.00
H487   H     0.39207   0.77872   0.20851   0.00000  Uiso   1.00
H488   H     0.60793   0.88794   0.29149   0.00000  Uiso   1.00
N489   N     0.38093   0.83334   0.25001   0.00000  Uiso   1.00
N490   N     0.61907   0.83332   0.24999   0.00000  Uiso   1.00
Br491  Br    0.34822   0.79072   0.07937   0.00000  Uiso   1.00
Br492  Br    0.65179   0.87596   0.42064   0.00000  Uiso   1.00
Br493  Br    0.33470   0.76416   0.48651   0.00000  Uiso   1.00
Br494  Br    0.66530   0.90252   0.01350   0.00000  Uiso   1.00
Br495  Br    0.41374   0.85351   0.11463   0.00000  Uiso   1.00
Br496  Br    0.58626   0.81318   0.38537   0.00000  Uiso   1.00
O497   O     0.79512   0.89442   0.25000   0.00000  Uiso   1.00
O498   O     0.87154   0.77225   0.24999   0.00000  Uiso   1.00
O499   O     0.87157   0.89441   0.25000   0.00000  Uiso   1.00
O500   O     0.79510   0.77226   0.25000   0.00000  Uiso   1.00
C501   C     0.83334   0.91336   0.25003   0.00000  Uiso   1.00
C502   C     0.83333   0.75331   0.24997   0.00000  Uiso   1.00
O503   O     0.77328   0.83334   0.31612   0.00000  Uiso   1.00
O504   O     0.89339   0.83333   0.18387   0.00000  Uiso   1.00
O505   O     0.84972   0.83333   0.31612   0.00000  Uiso   1.00
O506   O     0.81695   0.83334   0.18388   0.00000  Uiso   1.00
C507   C     0.80261   0.83285   0.33815   0.00000  Uiso   1.00
C508   C     0.86406   0.83382   0.16185   0.00000  Uiso   1.00
Zn509  Zn    0.78229   0.83334   0.25000   0.00000  Uiso   1.00
Zn510  Zn    0.88438   0.83333   0.25000   0.00000  Uiso   1.00
C511   C     0.78322   0.82826   0.38897   0.00000  Uiso   1.00
C512   C     0.88344   0.83842   0.11103   0.00000  Uiso   1.00
C513   C     0.72680   0.79693   0.46100   0.00000  Uiso   1.00
C514   C     0.93987   0.86974   0.03900   0.00000  Uiso   1.00
C515   C     0.74105   0.80527   0.41303   0.00000  Uiso   1.00
C516   C     0.92562   0.86140   0.08697   0.00000  Uiso   1.00
C517   C     0.81233   0.84147   0.41207   0.00000  Uiso   1.00
C518   C     0.85434   0.82521   0.08793   0.00000  Uiso   1.00
C519   C     0.80396   0.82767   0.45715   0.00000  Uiso   1.00
C520   C     0.86271   0.83901   0.04285   0.00000  Uiso   1.00
C521   C     0.75745   0.81012   0.48485   0.00000  Uiso   1.00
C522   C     0.90922   0.85656   0.01515   0.00000  Uiso   1.00
C523   C     0.84045   0.83351   0.47560   0.00000  Uiso   1.00
C524   C     0.82622   0.83317   0.02440   0.00000  Uiso   1.00
C525   C     0.77588   0.82726   0.05326   0.00000  Uiso   1.00
C526   C     0.89079   0.83942   0.44673   0.00000  Uiso   1.00
C527   C     0.74377   0.80992   0.03435   0.00000  Uiso   1.00
C528   C     0.92290   0.85676   0.46565   0.00000  Uiso   1.00
H529   H     0.82365   0.80495   0.10623   0.00000  Uiso   1.00
H530   H     0.84302   0.86173   0.39377   0.00000  Uiso   1.00
H531   H     0.94733   0.87323   0.10568   0.00000  Uiso   1.00
H532   H     0.71933   0.79345   0.39433   0.00000  Uiso   1.00
C533   C     0.87718   0.97870   0.24152   0.00000  Uiso   1.00
C534   C     0.78948   0.68797   0.25848   0.00000  Uiso   1.00
H535   H     0.91139   0.96248   0.23464   0.00000  Uiso   1.00
H536   H     0.75528   0.70419   0.26536   0.00000  Uiso   1.00
C537   C     0.87719   0.68797   0.24148   0.00000  Uiso   1.00
C538   C     0.78948   0.97870   0.25852   0.00000  Uiso   1.00
H539   H     0.91139   0.70418   0.23456   0.00000  Uiso   1.00
H540   H     0.75527   0.96248   0.26544   0.00000  Uiso   1.00
C541   C     0.83333   0.70915   0.24996   0.00000  Uiso   1.00
C542   C     0.83334   0.95752   0.25004   0.00000  Uiso   1.00
C543   C     0.98531   0.80299   0.22695   0.00000  Uiso   1.00
C544   C     0.68136   0.86368   0.27304   0.00000  Uiso   1.00
H545   H     0.97469   0.77878   0.20837   0.00000  Uiso   1.00
H546   H     0.69198   0.88789   0.29163   0.00000  Uiso   1.00
C547   C     0.69985   0.80295   0.22705   0.00000  Uiso   1.00
C548   C     0.96682   0.86371   0.27295   0.00000  Uiso   1.00
H549   H     0.72540   0.77872   0.20851   0.00000  Uiso   1.00
H550   H     0.94127   0.88794   0.29149   0.00000  Uiso   1.00
N551   N     0.71426   0.83334   0.25001   0.00000  Uiso   1.00
N552   N     0.95241   0.83332   0.24999   0.00000  Uiso   1.00
Br553  Br    0.68155   0.79072   0.07937   0.00000  Uiso   1.00
Br554  Br    0.98512   0.87596   0.42064   0.00000  Uiso   1.00
Br555  Br    0.66803   0.76416   0.48651   0.00000  Uiso   1.00
Br556  Br    0.99863   0.90252   0.01350   0.00000  Uiso   1.00
Br557  Br    0.74708   0.85351   0.11463   0.00000  Uiso   1.00
Br558  Br    0.91959   0.81318   0.38537   0.00000  Uiso   1.00
O559   O     0.12846   0.22775   0.75000   0.00000  Uiso   1.00
O560   O     0.20488   0.10558   0.74999   0.00000  Uiso   1.00
O561   O     0.20490   0.22774   0.75000   0.00000  Uiso   1.00
O562   O     0.12843   0.10559   0.75000   0.00000  Uiso   1.00
C563   C     0.16667   0.24669   0.75003   0.00000  Uiso   1.00
C564   C     0.16666   0.08664   0.74997   0.00000  Uiso   1.00
O565   O     0.10661   0.16667   0.81612   0.00000  Uiso   1.00
O566   O     0.22672   0.16666   0.68387   0.00000  Uiso   1.00
O567   O     0.18305   0.16666   0.81612   0.00000  Uiso   1.00
O568   O     0.15028   0.16667   0.68388   0.00000  Uiso   1.00
C569   C     0.13594   0.16618   0.83815   0.00000  Uiso   1.00
C570   C     0.19739   0.16715   0.66185   0.00000  Uiso   1.00
Zn571  Zn    0.11562   0.16667   0.75000   0.00000  Uiso   1.00
Zn572  Zn    0.21771   0.16666   0.75000   0.00000  Uiso   1.00
C573   C     0.11656   0.16159   0.88897   0.00000  Uiso   1.00
C574   C     0.21678   0.17175   0.61103   0.00000  Uiso   1.00
C575   C     0.06013   0.13027   0.96100   0.00000  Uiso   1.00
C576   C     0.27320   0.20308   0.53900   0.00000  Uiso   1.00
C577   C     0.07438   0.13860   0.91303   0.00000  Uiso   1.00
C578   C     0.25895   0.19474   0.58697   0.00000  Uiso   1.00
C579   C     0.14566   0.17480   0.91207   0.00000  Uiso   1.00
C580   C     0.18768   0.15854   0.58793   0.00000  Uiso   1.00
C581   C     0.13729   0.16101   0.95715   0.00000  Uiso   1.00
C582   C     0.19604   0.17234   0.54285   0.00000  Uiso   1.00
C583   C     0.09078   0.14346   0.98485   0.00000  Uiso   1.00
C584   C     0.24255   0.18989   0.51515   0.00000  Uiso   1.00
C585   C     0.17378   0.16685   0.97560   0.00000  Uiso   1.00
C586   C     0.15956   0.16650   0.52440   0.00000  Uiso   1.00
C587   C     0.10922   0.16059   0.55326   0.00000  Uiso   1.00
C588   C     0.22412   0.17276   0.94673   0.00000  Uiso   1.00
C589   C     0.07710   0.14325   0.53435   0.00000  Uiso   1.00
C590   C     0.25624   0.19009   0.96565   0.00000  Uiso   1.00
H591   H     0.15698   0.13828   0.60623   0.00000  Uiso   1.00
H592   H     0.17635   0.19506   0.89377   0.00000  Uiso   1.00
H593   H     0.28067   0.20656   0.60568   0.00000  Uiso   1.00
H594   H     0.05267   0.12678   0.89433   0.00000  Uiso   1.00
C595   C     0.21052   0.31203   0.74152   0.00000  Uiso   1.00
C596   C     0.12282   0.02130   0.75848   0.00000  Uiso   1.00
H597   H     0.24472   0.29581   0.73464   0.00000  Uiso   1.00
H598   H     0.08861   0.03752   0.76536   0.00000  Uiso   1.00
C599   C     0.21052   0.02130   0.74148   0.00000  Uiso   1.00
C600   C     0.12282   0.31203   0.75852   0.00000  Uiso   1.00
H601   H     0.24473   0.03752   0.73456   0.00000  Uiso   1.00
H602   H     0.08861   0.29582   0.76544   0.00000  Uiso   1.00
C603   C     0.16667   0.04248   0.74996   0.00000  Uiso   1.00
C604   C     0.16667   0.29085   0.75004   0.00000  Uiso   1.00
C605   C     0.31864   0.13632   0.72695   0.00000  Uiso   1.00
C606   C     0.01469   0.19701   0.77304   0.00000  Uiso   1.00
H607   H     0.30803   0.11211   0.70837   0.00000  Uiso   1.00
H608   H     0.02531   0.22122   0.79163   0.00000  Uiso   1.00
C609   C     0.03318   0.13629   0.72705   0.00000  Uiso   1.00
C610   C     0.30015   0.19705   0.77295   0.00000  Uiso   1.00
H611   H     0.05873   0.11206   0.70851   0.00000  Uiso   1.00
H612   H     0.27460   0.22128   0.79149   0.00000  Uiso   1.00
N613   N     0.04759   0.16668   0.75001   0.00000  Uiso   1.00
N614   N     0.28574   0.16666   0.74999   0.00000  Uiso   1.00
Br615  Br    0.01489   0.12405   0.57937   0.00000  Uiso   1.00
Br616  Br    0.31845   0.20929   0.92064   0.00000  Uiso   1.00
Br617  Br    0.00137   0.09750   0.98651   0.00000  Uiso   1.00
Br618  Br    0.33196   0.23585   0.51350   0.00000  Uiso   1.00
Br619  Br    0.08041   0.18684   0.61463   0.00000  Uiso   1.00
Br620  Br    0.25293   0.14651   0.88537   0.00000  Uiso   1.00
O621   O     0.46179   0.22775   0.75000   0.00000  Uiso   1.00
O622   O     0.53821   0.10558   0.74999   0.00000  Uiso   1.00
O623   O     0.53823   0.22774   0.75000   0.00000  Uiso   1.00
O624   O     0.46177   0.10559   0.75000   0.00000  Uiso   1.00
C625   C     0.50001   0.24669   0.75003   0.00000  Uiso   1.00
C626   C     0.49999   0.08664   0.74997   0.00000  Uiso   1.00
O627   O     0.43994   0.16667   0.81612   0.00000  Uiso   1.00
O628   O     0.56006   0.16666   0.68387   0.00000  Uiso   1.00
O629   O     0.51639   0.16666   0.81612   0.00000  Uiso   1.00
O630   O     0.48361   0.16667   0.68388   0.00000  Uiso   1.00
C631   C     0.46927   0.16618   0.83815   0.00000  Uiso   1.00
C632   C     0.53073   0.16715   0.66185   0.00000  Uiso   1.00
Zn633  Zn    0.44896   0.16667   0.75000   0.00000  Uiso   1.00
Zn634  Zn    0.55104   0.16666   0.75000   0.00000  Uiso   1.00
C635   C     0.44989   0.16159   0.88897   0.00000  Uiso   1.00
C636   C     0.55011   0.17175   0.61103   0.00000  Uiso   1.00
C637   C     0.39347   0.13027   0.96100   0.00000  Uiso   1.00
C638   C     0.60653   0.20308   0.53900   0.00000  Uiso   1.00
C639   C     0.40771   0.13860   0.91303   0.00000  Uiso   1.00
C640   C     0.59229   0.19474   0.58697   0.00000  Uiso   1.00
C641   C     0.47899   0.17480   0.91207   0.00000  Uiso   1.00
C642   C     0.52101   0.15854   0.58793   0.00000  Uiso   1.00
C643   C     0.47063   0.16101   0.95715   0.00000  Uiso   1.00
C644   C     0.52937   0.17234   0.54285   0.00000  Uiso   1.00
C645   C     0.42411   0.14346   0.98485   0.00000  Uiso   1.00
C646   C     0.57589   0.18989   0.51515   0.00000  Uiso   1.00
C647   C     0.50711   0.16685   0.97560   0.00000  Uiso   1.00
C648   C     0.49289   0.16650   0.52440   0.00000  Uiso   1.00
C649   C     0.44255   0.16059   0.55326   0.00000  Uiso   1.00
C650   C     0.55745   0.17276   0.94673   0.00000  Uiso   1.00
C651   C     0.41043   0.14325   0.53435   0.00000  Uiso   1.00
C652   C     0.58957   0.19009   0.96565   0.00000  Uiso   1.00
H653   H     0.49031   0.13828   0.60623   0.00000  Uiso   1.00
H654   H     0.50969   0.19506   0.89377   0.00000  Uiso   1.00
H655   H     0.61400   0.20656   0.60568   0.00000  Uiso   1.00
H656   H     0.38600   0.12678   0.89433   0.00000  Uiso   1.00
C657   C     0.54385   0.31203   0.74152   0.00000  Uiso   1.00
C658   C     0.45615   0.02130   0.75848   0.00000  Uiso   1.00
H659   H     0.57806   0.29581   0.73464   0.00000  Uiso   1.00
H660   H     0.42195   0.03752   0.76536   0.00000  Uiso   1.00
C661   C     0.54385   0.02130   0.74148   0.00000  Uiso   1.00
C662   C     0.45615   0.31203   0.75852   0.00000  Uiso   1.00
H663   H     0.57806   0.03752   0.73456   0.00000  Uiso   1.00
H664   H     0.42194   0.29582   0.76544   0.00000  Uiso   1.00
C665   C     0.50000   0.04248   0.74996   0.00000  Uiso   1.00
C666   C     0.50000   0.29085   0.75004   0.00000  Uiso   1.00
C667   C     0.65197   0.13632   0.72695   0.00000  Uiso   1.00
C668   C     0.34803   0.19701   0.77304   0.00000  Uiso   1.00
H669   H     0.64136   0.11211   0.70837   0.00000  Uiso   1.00
H670   H     0.35864   0.22122   0.79163   0.00000  Uiso   1.00
C671   C     0.36652   0.13629   0.72705   0.00000  Uiso   1.00
C672   C     0.63348   0.19705   0.77295   0.00000  Uiso   1.00
H673   H     0.39207   0.11206   0.70851   0.00000  Uiso   1.00
H674   H     0.60793   0.22128   0.79149   0.00000  Uiso   1.00
N675   N     0.38093   0.16668   0.75001   0.00000  Uiso   1.00
N676   N     0.61907   0.16666   0.74999   0.00000  Uiso   1.00
Br677  Br    0.34822   0.12405   0.57937   0.00000  Uiso   1.00
Br678  Br    0.65179   0.20929   0.92064   0.00000  Uiso   1.00
Br679  Br    0.33470   0.09750   0.98651   0.00000  Uiso   1.00
Br680  Br    0.66530   0.23585   0.51350   0.00000  Uiso   1.00
Br681  Br    0.41374   0.18684   0.61463   0.00000  Uiso   1.00
Br682  Br    0.58626   0.14651   0.88537   0.00000  Uiso   1.00
O683   O     0.79512   0.22775   0.75000   0.00000  Uiso   1.00
O684   O     0.87154   0.10558   0.74999   0.00000  Uiso   1.00
O685   O     0.87157   0.22774   0.75000   0.00000  Uiso   1.00
O686   O     0.79510   0.10559   0.75000   0.00000  Uiso   1.00
C687   C     0.83334   0.24669   0.75003   0.00000  Uiso   1.00
C688   C     0.83333   0.08664   0.74997   0.00000  Uiso   1.00
O689   O     0.77328   0.16667   0.81612   0.00000  Uiso   1.00
O690   O     0.89339   0.16666   0.68387   0.00000  Uiso   1.00
O691   O     0.84972   0.16666   0.81612   0.00000  Uiso   1.00
O692   O     0.81695   0.16667   0.68388   0.00000  Uiso   1.00
C693   C     0.80261   0.16618   0.83815   0.00000  Uiso   1.00
C694   C     0.86406   0.16715   0.66185   0.00000  Uiso   1.00
Zn695  Zn    0.78229   0.16667   0.75000   0.00000  Uiso   1.00
Zn696  Zn    0.88438   0.16666   0.75000   0.00000  Uiso   1.00
C697   C     0.78322   0.16159   0.88897   0.00000  Uiso   1.00
C698   C     0.88344   0.17175   0.61103   0.00000  Uiso   1.00
C699   C     0.72680   0.13027   0.96100   0.00000  Uiso   1.00
C700   C     0.93987   0.20308   0.53900   0.00000  Uiso   1.00
C701   C     0.74105   0.13860   0.91303   0.00000  Uiso   1.00
C702   C     0.92562   0.19474   0.58697   0.00000  Uiso   1.00
C703   C     0.81233   0.17480   0.91207   0.00000  Uiso   1.00
C704   C     0.85434   0.15854   0.58793   0.00000  Uiso   1.00
C705   C     0.80396   0.16101   0.95715   0.00000  Uiso   1.00
C706   C     0.86271   0.17234   0.54285   0.00000  Uiso   1.00
C707   C     0.75745   0.14346   0.98485   0.00000  Uiso   1.00
C708   C     0.90922   0.18989   0.51515   0.00000  Uiso   1.00
C709   C     0.84045   0.16685   0.97560   0.00000  Uiso   1.00
C710   C     0.82622   0.16650   0.52440   0.00000  Uiso   1.00
C711   C     0.77588   0.16059   0.55326   0.00000  Uiso   1.00
C712   C     0.89079   0.17276   0.94673   0.00000  Uiso   1.00
C713   C     0.74377   0.14325   0.53435   0.00000  Uiso   1.00
C714   C     0.92290   0.19009   0.96565   0.00000  Uiso   1.00
H715   H     0.82365   0.13828   0.60623   0.00000  Uiso   1.00
H716   H     0.84302   0.19506   0.89377   0.00000  Uiso   1.00
H717   H     0.94733   0.20656   0.60568   0.00000  Uiso   1.00
H718   H     0.71933   0.12678   0.89433   0.00000  Uiso   1.00
C719   C     0.87718   0.31203   0.74152   0.00000  Uiso   1.00
C720   C     0.78948   0.02130   0.75848   0.00000  Uiso   1.00
H721   H     0.91139   0.29581   0.73464   0.00000  Uiso   1.00
H722   H     0.75528   0.03752   0.76536   0.00000  Uiso   1.00
C723   C     0.87719   0.02130   0.74148   0.00000  Uiso   1.00
C724   C     0.78948   0.31203   0.75852   0.00000  Uiso   1.00
H725   H     0.91139   0.03752   0.73456   0.00000  Uiso   1.00
H726   H     0.75527   0.29582   0.76544   0.00000  Uiso   1.00
C727   C     0.83333   0.04248   0.74996   0.00000  Uiso   1.00
C728   C     0.83334   0.29085   0.75004   0.00000  Uiso   1.00
C729   C     0.98531   0.13632   0.72695   0.00000  Uiso   1.00
C730   C     0.68136   0.19701   0.77304   0.00000  Uiso   1.00
H731   H     0.97469   0.11211   0.70837   0.00000  Uiso   1.00
H732   H     0.69198   0.22122   0.79163   0.00000  Uiso   1.00
C733   C     0.69985   0.13629   0.72705   0.00000  Uiso   1.00
C734   C     0.96682   0.19705   0.77295   0.00000  Uiso   1.00
H735   H     0.72540   0.11206   0.70851   0.00000  Uiso   1.00
H736   H     0.94127   0.22128   0.79149   0.00000  Uiso   1.00
N737   N     0.71426   0.16668   0.75001   0.00000  Uiso   1.00
N738   N     0.95241   0.16666   0.74999   0.00000  Uiso   1.00
Br739  Br    0.68155   0.12405   0.57937   0.00000  Uiso   1.00
Br740  Br    0.98512   0.20929   0.92064   0.00000  Uiso   1.00
Br741  Br    0.66803   0.09750   0.98651   0.00000  Uiso   1.00
Br742  Br    0.99863   0.23585   0.51350   0.00000  Uiso   1.00
Br743  Br    0.74708   0.18684   0.61463   0.00000  Uiso   1.00
Br744  Br    0.91959   0.14651   0.88537   0.00000  Uiso   1.00
O745   O     0.12846   0.56108   0.75000   0.00000  Uiso   1.00
O746   O     0.20488   0.43892   0.74999   0.00000  Uiso   1.00
O747   O     0.20490   0.56107   0.75000   0.00000  Uiso   1.00
O748   O     0.12843   0.43893   0.75000   0.00000  Uiso   1.00
C749   C     0.16667   0.58003   0.75003   0.00000  Uiso   1.00
C750   C     0.16666   0.41997   0.74997   0.00000  Uiso   1.00
O751   O     0.10661   0.50001   0.81612   0.00000  Uiso   1.00
O752   O     0.22672   0.49999   0.68387   0.00000  Uiso   1.00
O753   O     0.18305   0.50000   0.81612   0.00000  Uiso   1.00
O754   O     0.15028   0.50000   0.68388   0.00000  Uiso   1.00
C755   C     0.13594   0.49952   0.83815   0.00000  Uiso   1.00
C756   C     0.19739   0.50048   0.66185   0.00000  Uiso   1.00
Zn757  Zn    0.11562   0.50001   0.75000   0.00000  Uiso   1.00
Zn758  Zn    0.21771   0.49999   0.75000   0.00000  Uiso   1.00
C759   C     0.11656   0.49492   0.88897   0.00000  Uiso   1.00
C760   C     0.21678   0.50508   0.61103   0.00000  Uiso   1.00
C761   C     0.06013   0.46360   0.96100   0.00000  Uiso   1.00
C762   C     0.27320   0.53641   0.53900   0.00000  Uiso   1.00
C763   C     0.07438   0.47194   0.91303   0.00000  Uiso   1.00
C764   C     0.25895   0.52807   0.58697   0.00000  Uiso   1.00
C765   C     0.14566   0.50813   0.91207   0.00000  Uiso   1.00
C766   C     0.18768   0.49188   0.58793   0.00000  Uiso   1.00
C767   C     0.13729   0.49434   0.95715   0.00000  Uiso   1.00
C768   C     0.19604   0.50567   0.54285   0.00000  Uiso   1.00
C769   C     0.09078   0.47679   0.98485   0.00000  Uiso   1.00
C770   C     0.24255   0.52322   0.51515   0.00000  Uiso   1.00
C771   C     0.17378   0.50018   0.97560   0.00000  Uiso   1.00
C772   C     0.15956   0.49983   0.52440   0.00000  Uiso   1.00
C773   C     0.10922   0.49393   0.55326   0.00000  Uiso   1.00
C774   C     0.22412   0.50609   0.94673   0.00000  Uiso   1.00
C775   C     0.07710   0.47659   0.53435   0.00000  Uiso   1.00
C776   C     0.25624   0.52343   0.96565   0.00000  Uiso   1.00
H777   H     0.15698   0.47161   0.60623   0.00000  Uiso   1.00
H778   H     0.17635   0.52840   0.89377   0.00000  Uiso   1.00
H779   H     0.28067   0.53989   0.60568   0.00000  Uiso   1.00
H780   H     0.05267   0.46011   0.89433   0.00000  Uiso   1.00
C781   C     0.21052   0.64536   0.74152   0.00000  Uiso   1.00
C782   C     0.12282   0.35464   0.75848   0.00000  Uiso   1.00
H783   H     0.24472   0.62915   0.73464   0.00000  Uiso   1.00
H784   H     0.08861   0.37085   0.76536   0.00000  Uiso   1.00
C785   C     0.21052   0.35464   0.74148   0.00000  Uiso   1.00
C786   C     0.12282   0.64536   0.75852   0.00000  Uiso   1.00
H787   H     0.24473   0.37085   0.73456   0.00000  Uiso   1.00
H788   H     0.08861   0.62915   0.76544   0.00000  Uiso   1.00
C789   C     0.16667   0.37582   0.74996   0.00000  Uiso   1.00
C790   C     0.16667   0.62418   0.75004   0.00000  Uiso   1.00
C791   C     0.31864   0.46966   0.72695   0.00000  Uiso   1.00
C792   C     0.01469   0.53034   0.77304   0.00000  Uiso   1.00
H793   H     0.30803   0.44545   0.70837   0.00000  Uiso   1.00
H794   H     0.02531   0.55455   0.79163   0.00000  Uiso   1.00
C795   C     0.03318   0.46962   0.72705   0.00000  Uiso   1.00
C796   C     0.30015   0.53038   0.77295   0.00000  Uiso   1.00
H797   H     0.05873   0.44539   0.70851   0.00000  Uiso   1.00
H798   H     0.27460   0.55461   0.79149   0.00000  Uiso   1.00
N799   N     0.04759   0.50001   0.75001   0.00000  Uiso   1.00
N800   N     0.28574   0.49999   0.74999   0.00000  Uiso   1.00
Br801  Br    0.01489   0.45738   0.57937   0.00000  Uiso   1.00
Br802  Br    0.31845   0.54263   0.92064   0.00000  Uiso   1.00
Br803  Br    0.00137   0.43083   0.98651   0.00000  Uiso   1.00
Br804  Br    0.33196   0.56918   0.51350   0.00000  Uiso   1.00
Br805  Br    0.08041   0.52017   0.61463   0.00000  Uiso   1.00
Br806  Br    0.25293   0.47985   0.88537   0.00000  Uiso   1.00
O807   O     0.46179   0.56108   0.75000   0.00000  Uiso   1.00
O808   O     0.53821   0.43892   0.74999   0.00000  Uiso   1.00
O809   O     0.53823   0.56107   0.75000   0.00000  Uiso   1.00
O810   O     0.46177   0.43893   0.75000   0.00000  Uiso   1.00
C811   C     0.50001   0.58003   0.75003   0.00000  Uiso   1.00
C812   C     0.49999   0.41997   0.74997   0.00000  Uiso   1.00
O813   O     0.43994   0.50001   0.81612   0.00000  Uiso   1.00
O814   O     0.56006   0.49999   0.68387   0.00000  Uiso   1.00
O815   O     0.51639   0.50000   0.81612   0.00000  Uiso   1.00
O816   O     0.48361   0.50000   0.68388   0.00000  Uiso   1.00
C817   C     0.46927   0.49952   0.83815   0.00000  Uiso   1.00
C818   C     0.53073   0.50048   0.66185   0.00000  Uiso   1.00
Zn819  Zn    0.44896   0.50001   0.75000   0.00000  Uiso   1.00
Zn820  Zn    0.55104   0.49999   0.75000   0.00000  Uiso   1.00
C821   C     0.44989   0.49492   0.88897   0.00000  Uiso   1.00
C822   C     0.55011   0.50508   0.61103   0.00000  Uiso   1.00
C823   C     0.39347   0.46360   0.96100   0.00000  Uiso   1.00
C824   C     0.60653   0.53641   0.53900   0.00000  Uiso   1.00
C825   C     0.40771   0.47194   0.91303   0.00000  Uiso   1.00
C826   C     0.59229   0.52807   0.58697   0.00000  Uiso   1.00
C827   C     0.47899   0.50813   0.91207   0.00000  Uiso   1.00
C828   C     0.52101   0.49188   0.58793   0.00000  Uiso   1.00
C829   C     0.47063   0.49434   0.95715   0.00000  Uiso   1.00
C830   C     0.52937   0.50567   0.54285   0.00000  Uiso   1.00
C831   C     0.42411   0.47679   0.98485   0.00000  Uiso   1.00
C832   C     0.57589   0.52322   0.51515   0.00000  Uiso   1.00
C833   C     0.50711   0.50018   0.97560   0.00000  Uiso   1.00
C834   C     0.49289   0.49983   0.52440   0.00000  Uiso   1.00
C835   C     0.44255   0.49393   0.55326   0.00000  Uiso   1.00
C836   C     0.55745   0.50609   0.94673   0.00000  Uiso   1.00
C837   C     0.41043   0.47659   0.53435   0.00000  Uiso   1.00
C838   C     0.58957   0.52343   0.96565   0.00000  Uiso   1.00
H839   H     0.49031   0.47161   0.60623   0.00000  Uiso   1.00
H840   H     0.50969   0.52840   0.89377   0.00000  Uiso   1.00
H841   H     0.61400   0.53989   0.60568   0.00000  Uiso   1.00
H842   H     0.38600   0.46011   0.89433   0.00000  Uiso   1.00
C843   C     0.54385   0.64536   0.74152   0.00000  Uiso   1.00
C844   C     0.45615   0.35464   0.75848   0.00000  Uiso   1.00
H845   H     0.57806   0.62915   0.73464   0.00000  Uiso   1.00
H846   H     0.42195   0.37085   0.76536   0.00000  Uiso   1.00
C847   C     0.54385   0.35464   0.74148   0.00000  Uiso   1.00
C848   C     0.45615   0.64536   0.75852   0.00000  Uiso   1.00
H849   H     0.57806   0.37085   0.73456   0.00000  Uiso   1.00
H850   H     0.42194   0.62915   0.76544   0.00000  Uiso   1.00
C851   C     0.50000   0.37582   0.74996   0.00000  Uiso   1.00
C852   C     0.50000   0.62418   0.75004   0.00000  Uiso   1.00
C853   C     0.65197   0.46966   0.72695   0.00000  Uiso   1.00
C854   C     0.34803   0.53034   0.77304   0.00000  Uiso   1.00
H855   H     0.64136   0.44545   0.70837   0.00000  Uiso   1.00
H856   H     0.35864   0.55455   0.79163   0.00000  Uiso   1.00
C857   C     0.36652   0.46962   0.72705   0.00000  Uiso   1.00
C858   C     0.63348   0.53038   0.77295   0.00000  Uiso   1.00
H859   H     0.39207   0.44539   0.70851   0.00000  Uiso   1.00
H860   H     0.60793   0.55461   0.79149   0.00000  Uiso   1.00
N861   N     0.38093   0.50001   0.75001   0.00000  Uiso   1.00
N862   N     0.61907   0.49999   0.74999   0.00000  Uiso   1.00
Br863  Br    0.34822   0.45738   0.57937   0.00000  Uiso   1.00
Br864  Br    0.65179   0.54263   0.92064   0.00000  Uiso   1.00
Br865  Br    0.33470   0.43083   0.98651   0.00000  Uiso   1.00
Br866  Br    0.66530   0.56918   0.51350   0.00000  Uiso   1.00
Br867  Br    0.41374   0.52017   0.61463   0.00000  Uiso   1.00
Br868  Br    0.58626   0.47985   0.88537   0.00000  Uiso   1.00
O869   O     0.79512   0.56108   0.75000   0.00000  Uiso   1.00
O870   O     0.87154   0.43892   0.74999   0.00000  Uiso   1.00
O871   O     0.87157   0.56107   0.75000   0.00000  Uiso   1.00
O872   O     0.79510   0.43893   0.75000   0.00000  Uiso   1.00
C873   C     0.83334   0.58003   0.75003   0.00000  Uiso   1.00
C874   C     0.83333   0.41997   0.74997   0.00000  Uiso   1.00
O875   O     0.77328   0.50001   0.81612   0.00000  Uiso   1.00
O876   O     0.89339   0.49999   0.68387   0.00000  Uiso   1.00
O877   O     0.84972   0.50000   0.81612   0.00000  Uiso   1.00
O878   O     0.81695   0.50000   0.68388   0.00000  Uiso   1.00
C879   C     0.80261   0.49952   0.83815   0.00000  Uiso   1.00
C880   C     0.86406   0.50048   0.66185   0.00000  Uiso   1.00
Zn881  Zn    0.78229   0.50001   0.75000   0.00000  Uiso   1.00
Zn882  Zn    0.88438   0.49999   0.75000   0.00000  Uiso   1.00
C883   C     0.78322   0.49492   0.88897   0.00000  Uiso   1.00
C884   C     0.88344   0.50508   0.61103   0.00000  Uiso   1.00
C885   C     0.72680   0.46360   0.96100   0.00000  Uiso   1.00
C886   C     0.93987   0.53641   0.53900   0.00000  Uiso   1.00
C887   C     0.74105   0.47194   0.91303   0.00000  Uiso   1.00
C888   C     0.92562   0.52807   0.58697   0.00000  Uiso   1.00
C889   C     0.81233   0.50813   0.91207   0.00000  Uiso   1.00
C890   C     0.85434   0.49188   0.58793   0.00000  Uiso   1.00
C891   C     0.80396   0.49434   0.95715   0.00000  Uiso   1.00
C892   C     0.86271   0.50567   0.54285   0.00000  Uiso   1.00
C893   C     0.75745   0.47679   0.98485   0.00000  Uiso   1.00
C894   C     0.90922   0.52322   0.51515   0.00000  Uiso   1.00
C895   C     0.84045   0.50018   0.97560   0.00000  Uiso   1.00
C896   C     0.82622   0.49983   0.52440   0.00000  Uiso   1.00
C897   C     0.77588   0.49393   0.55326   0.00000  Uiso   1.00
C898   C     0.89079   0.50609   0.94673   0.00000  Uiso   1.00
C899   C     0.74377   0.47659   0.53435   0.00000  Uiso   1.00
C900   C     0.92290   0.52343   0.96565   0.00000  Uiso   1.00
H901   H     0.82365   0.47161   0.60623   0.00000  Uiso   1.00
H902   H     0.84302   0.52840   0.89377   0.00000  Uiso   1.00
H903   H     0.94733   0.53989   0.60568   0.00000  Uiso   1.00
H904   H     0.71933   0.46011   0.89433   0.00000  Uiso   1.00
C905   C     0.87718   0.64536   0.74152   0.00000  Uiso   1.00
C906   C     0.78948   0.35464   0.75848   0.00000  Uiso   1.00
H907   H     0.91139   0.62915   0.73464   0.00000  Uiso   1.00
H908   H     0.75528   0.37085   0.76536   0.00000  Uiso   1.00
C909   C     0.87719   0.35464   0.74148   0.00000  Uiso   1.00
C910   C     0.78948   0.64536   0.75852   0.00000  Uiso   1.00
H911   H     0.91139   0.37085   0.73456   0.00000  Uiso   1.00
H912   H     0.75527   0.62915   0.76544   0.00000  Uiso   1.00
C913   C     0.83333   0.37582   0.74996   0.00000  Uiso   1.00
C914   C     0.83334   0.62418   0.75004   0.00000  Uiso   1.00
C915   C     0.98531   0.46966   0.72695   0.00000  Uiso   1.00
C916   C     0.68136   0.53034   0.77304   0.00000  Uiso   1.00
H917   H     0.97469   0.44545   0.70837   0.00000  Uiso   1.00
H918   H     0.69198   0.55455   0.79163   0.00000  Uiso   1.00
C919   C     0.69985   0.46962   0.72705   0.00000  Uiso   1.00
C920   C     0.96682   0.53038   0.77295   0.00000  Uiso   1.00
H921   H     0.72540   0.44539   0.70851   0.00000  Uiso   1.00
H922   H     0.94127   0.55461   0.79149   0.00000  Uiso   1.00
N923   N     0.71426   0.50001   0.75001   0.00000  Uiso   1.00
N924   N     0.95241   0.49999   0.74999   0.00000  Uiso   1.00
Br925  Br    0.68155   0.45738   0.57937   0.00000  Uiso   1.00
Br926  Br    0.98512   0.54263   0.92064   0.00000  Uiso   1.00
Br927  Br    0.66803   0.43083   0.98651   0.00000  Uiso   1.00
Br928  Br    0.99863   0.56918   0.51350   0.00000  Uiso   1.00
Br929  Br    0.74708   0.52017   0.61463   0.00000  Uiso   1.00
Br930  Br    0.91959   0.47985   0.88537   0.00000  Uiso   1.00
O931   O     0.12846   0.89442   0.75000   0.00000  Uiso   1.00
O932   O     0.20488   0.77225   0.74999   0.00000  Uiso   1.00
O933   O     0.20490   0.89441   0.75000   0.00000  Uiso   1.00
O934   O     0.12843   0.77226   0.75000   0.00000  Uiso   1.00
C935   C     0.16667   0.91336   0.75003   0.00000  Uiso   1.00
C936   C     0.16666   0.75331   0.74997   0.00000  Uiso   1.00
O937   O     0.10661   0.83334   0.81612   0.00000  Uiso   1.00
O938   O     0.22672   0.83333   0.68387   0.00000  Uiso   1.00
O939   O     0.18305   0.83333   0.81612   0.00000  Uiso   1.00
O940   O     0.15028   0.83334   0.68388   0.00000  Uiso   1.00
C941   C     0.13594   0.83285   0.83815   0.00000  Uiso   1.00
C942   C     0.19739   0.83382   0.66185   0.00000  Uiso   1.00
Zn943  Zn    0.11562   0.83334   0.75000   0.00000  Uiso   1.00
Zn944  Zn    0.21771   0.83333   0.75000   0.00000  Uiso   1.00
C945   C     0.11656   0.82826   0.88897   0.00000  Uiso   1.00
C946   C     0.21678   0.83842   0.61103   0.00000  Uiso   1.00
C947   C     0.06013   0.79693   0.96100   0.00000  Uiso   1.00
C948   C     0.27320   0.86974   0.53900   0.00000  Uiso   1.00
C949   C     0.07438   0.80527   0.91303   0.00000  Uiso   1.00
C950   C     0.25895   0.86140   0.58697   0.00000  Uiso   1.00
C951   C     0.14566   0.84147   0.91207   0.00000  Uiso   1.00
C952   C     0.18768   0.82521   0.58793   0.00000  Uiso   1.00
C953   C     0.13729   0.82767   0.95715   0.00000  Uiso   1.00
C954   C     0.19604   0.83901   0.54285   0.00000  Uiso   1.00
C955   C     0.09078   0.81012   0.98485   0.00000  Uiso   1.00
C956   C     0.24255   0.85656   0.51515   0.00000  Uiso   1.00
C957   C     0.17378   0.83351   0.97560   0.00000  Uiso   1.00
C958   C     0.15956   0.83317   0.52440   0.00000  Uiso   1.00
C959   C     0.10922   0.82726   0.55326   0.00000  Uiso   1.00
C960   C     0.22412   0.83942   0.94673   0.00000  Uiso   1.00
C961   C     0.07710   0.80992   0.53435   0.00000  Uiso   1.00
C962   C     0.25624   0.85676   0.96565   0.00000  Uiso   1.00
H963   H     0.15698   0.80495   0.60623   0.00000  Uiso   1.00
H964   H     0.17635   0.86173   0.89377   0.00000  Uiso   1.00
H965   H     0.28067   0.87323   0.60568   0.00000  Uiso   1.00
H966   H     0.05267   0.79345   0.89433   0.00000  Uiso   1.00
C967   C     0.21052   0.97870   0.74152   0.00000  Uiso   1.00
C968   C     0.12282   0.68797   0.75848   0.00000  Uiso   1.00
H969   H     0.24472   0.96248   0.73464   0.00000  Uiso   1.00
H970   H     0.08861   0.70419   0.76536   0.00000  Uiso   1.00
C971   C     0.21052   0.68797   0.74148   0.00000  Uiso   1.00
C972   C     0.12282   0.97870   0.75852   0.00000  Uiso   1.00
H973   H     0.24473   0.70418   0.73456   0.00000  Uiso   1.00
H974   H     0.08861   0.96248   0.76544   0.00000  Uiso   1.00
C975   C     0.16667   0.70915   0.74996   0.00000  Uiso   1.00
C976   C     0.16667   0.95752   0.75004   0.00000  Uiso   1.00
C977   C     0.31864   0.80299   0.72695   0.00000  Uiso   1.00
C978   C     0.01469   0.86368   0.77304   0.00000  Uiso   1.00
H979   H     0.30803   0.77878   0.70837   0.00000  Uiso   1.00
H980   H     0.02531   0.88789   0.79163   0.00000  Uiso   1.00
C981   C     0.03318   0.80295   0.72705   0.00000  Uiso   1.00
C982   C     0.30015   0.86371   0.77295   0.00000  Uiso   1.00
H983   H     0.05873   0.77872   0.70851   0.00000  Uiso   1.00
H984   H     0.27460   0.88794   0.79149   0.00000  Uiso   1.00
N985   N     0.04759   0.83334   0.75001   0.00000  Uiso   1.00
N986   N     0.28574   0.83332   0.74999   0.00000  Uiso   1.00
Br987  Br    0.01489   0.79072   0.57937   0.00000  Uiso   1.00
Br988  Br    0.31845   0.87596   0.92064   0.00000  Uiso   1.00
Br989  Br    0.00137   0.76416   0.98651   0.00000  Uiso   1.00
Br990  Br    0.33196   0.90252   0.51350   0.00000  Uiso   1.00
Br991  Br    0.08041   0.85351   0.61463   0.00000  Uiso   1.00
Br992  Br    0.25293   0.81318   0.88537   0.00000  Uiso   1.00
O993   O     0.46179   0.89442   0.75000   0.00000  Uiso   1.00
O994   O     0.53821   0.77225   0.74999   0.00000  Uiso   1.00
O995   O     0.53823   0.89441   0.75000   0.00000  Uiso   1.00
O996   O     0.46177   0.77226   0.75000   0.00000  Uiso   1.00
C997   C     0.50001   0.91336   0.75003   0.00000  Uiso   1.00
C998   C     0.49999   0.75331   0.74997   0.00000  Uiso   1.00
O999   O     0.43994   0.83334   0.81612   0.00000  Uiso   1.00
O1000  O     0.56006   0.83333   0.68387   0.00000  Uiso   1.00
O1001  O     0.51639   0.83333   0.81612   0.00000  Uiso   1.00
O1002  O     0.48361   0.83334   0.68388   0.00000  Uiso   1.00
C1003  C     0.46927   0.83285   0.83815   0.00000  Uiso   1.00
C1004  C     0.53073   0.83382   0.66185   0.00000  Uiso   1.00
Zn1005 Zn    0.44896   0.83334   0.75000   0.00000  Uiso   1.00
Zn1006 Zn    0.55104   0.83333   0.75000   0.00000  Uiso   1.00
C1007  C     0.44989   0.82826   0.88897   0.00000  Uiso   1.00
C1008  C     0.55011   0.83842   0.61103   0.00000  Uiso   1.00
C1009  C     0.39347   0.79693   0.96100   0.00000  Uiso   1.00
C1010  C     0.60653   0.86974   0.53900   0.00000  Uiso   1.00
C1011  C     0.40771   0.80527   0.91303   0.00000  Uiso   1.00
C1012  C     0.59229   0.86140   0.58697   0.00000  Uiso   1.00
C1013  C     0.47899   0.84147   0.91207   0.00000  Uiso   1.00
C1014  C     0.52101   0.82521   0.58793   0.00000  Uiso   1.00
C1015  C     0.47063   0.82767   0.95715   0.00000  Uiso   1.00
C1016  C     0.52937   0.83901   0.54285   0.00000  Uiso   1.00
C1017  C     0.42411   0.81012   0.98485   0.00000  Uiso   1.00
C1018  C     0.57589   0.85656   0.51515   0.00000  Uiso   1.00
C1019  C     0.50711   0.83351   0.97560   0.00000  Uiso   1.00
C1020  C     0.49289   0.83317   0.52440   0.00000  Uiso   1.00
C1021  C     0.44255   0.82726   0.55326   0.00000  Uiso   1.00
C1022  C     0.55745   0.83942   0.94673   0.00000  Uiso   1.00
C1023  C     0.41043   0.80992   0.53435   0.00000  Uiso   1.00
C1024  C     0.58957   0.85676   0.96565   0.00000  Uiso   1.00
H1025  H     0.49031   0.80495   0.60623   0.00000  Uiso   1.00
H1026  H     0.50969   0.86173   0.89377   0.00000  Uiso   1.00
H1027  H     0.61400   0.87323   0.60568   0.00000  Uiso   1.00
H1028  H     0.38600   0.79345   0.89433   0.00000  Uiso   1.00
C1029  C     0.54385   0.97870   0.74152   0.00000  Uiso   1.00
C1030  C     0.45615   0.68797   0.75848   0.00000  Uiso   1.00
H1031  H     0.57806   0.96248   0.73464   0.00000  Uiso   1.00
H1032  H     0.42195   0.70419   0.76536   0.00000  Uiso   1.00
C1033  C     0.54385   0.68797   0.74148   0.00000  Uiso   1.00
C1034  C     0.45615   0.97870   0.75852   0.00000  Uiso   1.00
H1035  H     0.57806   0.70418   0.73456   0.00000  Uiso   1.00
H1036  H     0.42194   0.96248   0.76544   0.00000  Uiso   1.00
C1037  C     0.50000   0.70915   0.74996   0.00000  Uiso   1.00
C1038  C     0.50000   0.95752   0.75004   0.00000  Uiso   1.00
C1039  C     0.65197   0.80299   0.72695   0.00000  Uiso   1.00
C1040  C     0.34803   0.86368   0.77304   0.00000  Uiso   1.00
H1041  H     0.64136   0.77878   0.70837   0.00000  Uiso   1.00
H1042  H     0.35864   0.88789   0.79163   0.00000  Uiso   1.00
C1043  C     0.36652   0.80295   0.72705   0.00000  Uiso   1.00
C1044  C     0.63348   0.86371   0.77295   0.00000  Uiso   1.00
H1045  H     0.39207   0.77872   0.70851   0.00000  Uiso   1.00
H1046  H     0.60793   0.88794   0.79149   0.00000  Uiso   1.00
N1047  N     0.38093   0.83334   0.75001   0.00000  Uiso   1.00
N1048  N     0.61907   0.83332   0.74999   0.00000  Uiso   1.00
Br1049 Br    0.34822   0.79072   0.57937   0.00000  Uiso   1.00
Br1050 Br    0.65179   0.87596   0.92064   0.00000  Uiso   1.00
Br1051 Br    0.33470   0.76416   0.98651   0.00000  Uiso   1.00
Br1052 Br    0.66530   0.90252   0.51350   0.00000  Uiso   1.00
Br1053 Br    0.41374   0.85351   0.61463   0.00000  Uiso   1.00
Br1054 Br    0.58626   0.81318   0.88537   0.00000  Uiso   1.00
O1055  O     0.79512   0.89442   0.75000   0.00000  Uiso   1.00
O1056  O     0.87154   0.77225   0.74999   0.00000  Uiso   1.00
O1057  O     0.87157   0.89441   0.75000   0.00000  Uiso   1.00
O1058  O     0.79510   0.77226   0.75000   0.00000  Uiso   1.00
C1059  C     0.83334   0.91336   0.75003   0.00000  Uiso   1.00
C1060  C     0.83333   0.75331   0.74997   0.00000  Uiso   1.00
O1061  O     0.77328   0.83334   0.81612   0.00000  Uiso   1.00
O1062  O     0.89339   0.83333   0.68387   0.00000  Uiso   1.00
O1063  O     0.84972   0.83333   0.81612   0.00000  Uiso   1.00
O1064  O     0.81695   0.83334   0.68388   0.00000  Uiso   1.00
C1065  C     0.80261   0.83285   0.83815   0.00000  Uiso   1.00
C1066  C     0.86406   0.83382   0.66185   0.00000  Uiso   1.00
Zn1067 Zn    0.78229   0.83334   0.75000   0.00000  Uiso   1.00
Zn1068 Zn    0.88438   0.83333   0.75000   0.00000  Uiso   1.00
C1069  C     0.78322   0.82826   0.88897   0.00000  Uiso   1.00
C1070  C     0.88344   0.83842   0.61103   0.00000  Uiso   1.00
C1071  C     0.72680   0.79693   0.96100   0.00000  Uiso   1.00
C1072  C     0.93987   0.86974   0.53900   0.00000  Uiso   1.00
C1073  C     0.74105   0.80527   0.91303   0.00000  Uiso   1.00
C1074  C     0.92562   0.86140   0.58697   0.00000  Uiso   1.00
C1075  C     0.81233   0.84147   0.91207   0.00000  Uiso   1.00
C1076  C     0.85434   0.82521   0.58793   0.00000  Uiso   1.00
C1077  C     0.80396   0.82767   0.95715   0.00000  Uiso   1.00
C1078  C     0.86271   0.83901   0.54285   0.00000  Uiso   1.00
C1079  C     0.75745   0.81012   0.98485   0.00000  Uiso   1.00
C1080  C     0.90922   0.85656   0.51515   0.00000  Uiso   1.00
C1081  C     0.84045   0.83351   0.97560   0.00000  Uiso   1.00
C1082  C     0.82622   0.83317   0.52440   0.00000  Uiso   1.00
C1083  C     0.77588   0.82726   0.55326   0.00000  Uiso   1.00
C1084  C     0.89079   0.83942   0.94673   0.00000  Uiso   1.00
C1085  C     0.74377   0.80992   0.53435   0.00000  Uiso   1.00
C1086  C     0.92290   0.85676   0.96565   0.00000  Uiso   1.00
H1087  H     0.82365   0.80495   0.60623   0.00000  Uiso   1.00
H1088  H     0.84302   0.86173   0.89377   0.00000  Uiso   1.00
H1089  H     0.94733   0.87323   0.60568   0.00000  Uiso   1.00
H1090  H     0.71933   0.79345   0.89433   0.00000  Uiso   1.00
C1091  C     0.87718   0.97870   0.74152   0.00000  Uiso   1.00
C1092  C     0.78948   0.68797   0.75848   0.00000  Uiso   1.00
H1093  H     0.91139   0.96248   0.73464   0.00000  Uiso   1.00
H1094  H     0.75528   0.70419   0.76536   0.00000  Uiso   1.00
C1095  C     0.87719   0.68797   0.74148   0.00000  Uiso   1.00
C1096  C     0.78948   0.97870   0.75852   0.00000  Uiso   1.00
H1097  H     0.91139   0.70418   0.73456   0.00000  Uiso   1.00
H1098  H     0.75527   0.96248   0.76544   0.00000  Uiso   1.00
C1099  C     0.83333   0.70915   0.74996   0.00000  Uiso   1.00
C1100  C     0.83334   0.95752   0.75004   0.00000  Uiso   1.00
C1101  C     0.98531   0.80299   0.72695   0.00000  Uiso   1.00
C1102  C     0.68136   0.86368   0.77304   0.00000  Uiso   1.00
H1103  H     0.97469   0.77878   0.70837   0.00000  Uiso   1.00
H1104  H     0.69198   0.88789   0.79163   0.00000  Uiso   1.00
C1105  C     0.69985   0.80295   0.72705   0.00000  Uiso   1.00
C1106  C     0.96682   0.86371   0.77295   0.00000  Uiso   1.00
H1107  H     0.72540   0.77872   0.70851   0.00000  Uiso   1.00
H1108  H     0.94127   0.88794   0.79149   0.00000  Uiso   1.00
N1109  N     0.71426   0.83334   0.75001   0.00000  Uiso   1.00
N1110  N     0.95241   0.83332   0.74999   0.00000  Uiso   1.00
Br1111 Br    0.68155   0.79072   0.57937   0.00000  Uiso   1.00
Br1112 Br    0.98512   0.87596   0.92064   0.00000  Uiso   1.00
Br1113 Br    0.66803   0.76416   0.98651   0.00000  Uiso   1.00
Br1114 Br    0.99863   0.90252   0.51350   0.00000  Uiso   1.00
Br1115 Br    0.74708   0.85351   0.61463   0.00000  Uiso   1.00
Br1116 Br    0.91959   0.81318   0.88537   0.00000  Uiso   1.00
loop_
_geom_bond_atom_site_label_1
_geom_bond_atom_site_label_2
_geom_bond_distance
_geom_bond_site_symmetry_2
_ccdc_geom_bond_type
O1     C5      1.284   .     A
O1     Zn13    2.000   .     S
O2     C6      1.284   .     A
O2     Zn14    2.000   .     S
O3     C5      1.284   .     A
O3     Zn14    2.000   .     S
O4     C6      1.284   .     A
O4     Zn13    2.000   .     S
C5     C46     1.420   .     S
C6     C45     1.420   .     S
O7     C11     1.292   .     A
O7     Zn13    1.953   .     S
O8     C12     1.292   .     A
O8     Zn14    1.953   .     S
O9     Zn14    1.898   .     S
O9     C11     1.294   .     A
O10    C12     1.294   .     A
O10    Zn13    1.898   .     S
C11    C15     1.455   .     S
C12    C16     1.455   .     S
Zn13   N55     2.012   .     S
Zn14   N56     2.012   .     S
C15    C21     1.379   .     A
C15    C19     1.393   .     A
C16    C20     1.393   .     A
C16    C22     1.379   .     A
C17    C25     1.434   .     A
C17    Br59    1.923   .     S
C17    C19     1.400   .     A
C18    C26     1.434   .     A
C18    Br60    1.923   .     S
C18    C20     1.400   .     A
C19    H36     1.084   .     S
C20    H35     1.084   .     S
C21    C23     1.389   .     A
C21    H34     1.083   .     S
C22    C24     1.389   .     A
C22    H33     1.083   .     S
C23    C27     1.413   .     A
C23    C25     1.427   .     A
C24    C26     1.427   .     A
C24    C28     1.413   .     A
C25    C589    1.422   .     S
C26    C590    1.422   1_554 S
C27    C30     1.423   .     A
C27    C586    1.399   .     S
C28    C29     1.423   .     A
C28    C585    1.399   1_554 S
C29    Br61    1.943   .     S
C29    C31     1.407   .     A
C30    C32     1.407   .     A
C30    Br62    1.943   .     S
C31    Br57    1.931   .     S
C31    C583    1.422   1_554 S
C32    Br58    1.931   .     S
C32    C584    1.422   .     S
C37    H39     1.084   .     S
C37    C46     1.397   .     A
C37    C227    1.370   .     S
C38    H40     1.084   .     S
C38    C45     1.397   .     A
C38    C414    1.370   1_545 S
C41    H43     1.084   .     S
C41    C45     1.397   .     A
C41    C409    1.370   1_545 S
C42    H44     1.084   .     S
C42    C46     1.397   .     A
C42    C224    1.370   .     S
C47    H49     1.082   .     S
C47    N56     1.367   .     A
C47    C113    1.417   .     S
C48    N55     1.367   .     A
C48    H50     1.082   .     S
C48    C176    1.417   1_455 S
C51    N55     1.367   .     A
C51    H53     1.082   .     S
C51    C171    1.417   1_455 S
C52    H54     1.082   .     S
C52    N56     1.367   .     A
C52    C110    1.417   .     S
O63    C67     1.284   .     A
O63    Zn75    2.000   .     S
O64    C68     1.284   .     A
O64    Zn76    2.000   .     S
O65    C67     1.284   .     A
O65    Zn76    2.000   .     S
O66    C68     1.284   .     A
O66    Zn75    2.000   .     S
C67    C108    1.420   .     S
C68    C107    1.420   .     S
O69    C73     1.292   .     A
O69    Zn75    1.953   .     S
O70    C74     1.292   .     A
O70    Zn76    1.953   .     S
O71    Zn76    1.898   .     S
O71    C73     1.294   .     A
O72    C74     1.294   .     A
O72    Zn75    1.898   .     S
C73    C77     1.455   .     S
C74    C78     1.455   .     S
Zn75   N117    2.012   .     S
Zn76   N118    2.012   .     S
C77    C83     1.379   .     A
C77    C81     1.393   .     A
C78    C82     1.393   .     A
C78    C84     1.379   .     A
C79    C87     1.434   .     A
C79    Br121   1.923   .     S
C79    C81     1.400   .     A
C80    C88     1.434   .     A
C80    Br122   1.923   .     S
C80    C82     1.400   .     A
C81    H98     1.084   .     S
C82    H97     1.084   .     S
C83    C85     1.389   .     A
C83    H96     1.083   .     S
C84    C86     1.389   .     A
C84    H95     1.083   .     S
C85    C89     1.413   .     A
C85    C87     1.427   .     A
C86    C88     1.427   .     A
C86    C90     1.413   .     A
C87    C651    1.422   .     S
C88    C652    1.422   1_554 S
C89    C92     1.423   .     A
C89    C648    1.399   .     S
C90    C91     1.423   .     A
C90    C647    1.399   1_554 S
C91    Br123   1.943   .     S
C91    C93     1.407   .     A
C92    C94     1.407   .     A
C92    Br124   1.943   .     S
C93    Br119   1.931   .     S
C93    C645    1.422   1_554 S
C94    Br120   1.931   .     S
C94    C646    1.422   .     S
C99    H101    1.084   .     S
C99    C108    1.397   .     A
C99    C289    1.370   .     S
C100   H102    1.084   .     S
C100   C107    1.397   .     A
C100   C476    1.370   1_545 S
C103   H105    1.084   .     S
C103   C107    1.397   .     A
C103   C471    1.370   1_545 S
C104   H106    1.084   .     S
C104   C108    1.397   .     A
C104   C286    1.370   .     S
C109   H111    1.082   .     S
C109   N118    1.367   .     A
C109   C175    1.417   .     S
C110   N117    1.367   .     A
C110   H112    1.082   .     S
C113   N117    1.367   .     A
C113   H115    1.082   .     S
C114   H116    1.082   .     S
C114   N118    1.367   .     A
C114   C172    1.417   .     S
O125   C129    1.284   .     A
O125   Zn137   2.000   .     S
O126   C130    1.284   .     A
O126   Zn138   2.000   .     S
O127   C129    1.284   .     A
O127   Zn138   2.000   .     S
O128   C130    1.284   .     A
O128   Zn137   2.000   .     S
C129   C170    1.420   .     S
C130   C169    1.420   .     S
O131   C135    1.292   .     A
O131   Zn137   1.953   .     S
O132   C136    1.292   .     A
O132   Zn138   1.953   .     S
O133   Zn138   1.898   .     S
O133   C135    1.294   .     A
O134   C136    1.294   .     A
O134   Zn137   1.898   .     S
C135   C139    1.455   .     S
C136   C140    1.455   .     S
Zn137  N179    2.012   .     S
Zn138  N180    2.012   .     S
C139   C145    1.379   .     A
C139   C143    1.393   .     A
C140   C144    1.393   .     A
C140   C146    1.379   .     A
C141   C149    1.434   .     A
C141   Br183   1.923   .     S
C141   C143    1.400   .     A
C142   C150    1.434   .     A
C142   Br184   1.923   .     S
C142   C144    1.400   .     A
C143   H160    1.084   .     S
C144   H159    1.084   .     S
C145   C147    1.389   .     A
C145   H158    1.083   .     S
C146   C148    1.389   .     A
C146   H157    1.083   .     S
C147   C151    1.413   .     A
C147   C149    1.427   .     A
C148   C150    1.427   .     A
C148   C152    1.413   .     A
C149   C713    1.422   .     S
C150   C714    1.422   1_554 S
C151   C154    1.423   .     A
C151   C710    1.399   .     S
C152   C153    1.423   .     A
C152   C709    1.399   1_554 S
C153   Br185   1.943   .     S
C153   C155    1.407   .     A
C154   C156    1.407   .     A
C154   Br186   1.943   .     S
C155   Br181   1.931   .     S
C155   C707    1.422   1_554 S
C156   Br182   1.931   .     S
C156   C708    1.422   .     S
C161   H163    1.084   .     S
C161   C170    1.397   .     A
C161   C351    1.370   .     S
C162   H164    1.084   .     S
C162   C169    1.397   .     A
C162   C538    1.370   1_545 S
C165   H167    1.084   .     S
C165   C169    1.397   .     A
C165   C533    1.370   1_545 S
C166   H168    1.084   .     S
C166   C170    1.397   .     A
C166   C348    1.370   .     S
C171   H173    1.082   .     S
C171   N180    1.367   .     A
C171   C51     1.417   1_655 S
C172   N179    1.367   .     A
C172   H174    1.082   .     S
C175   N179    1.367   .     A
C175   H177    1.082   .     S
C176   H178    1.082   .     S
C176   N180    1.367   .     A
C176   C48     1.417   1_655 S
O187   C191    1.284   .     A
O187   Zn199   2.000   .     S
O188   C192    1.284   .     A
O188   Zn200   2.000   .     S
O189   C191    1.284   .     A
O189   Zn200   2.000   .     S
O190   C192    1.284   .     A
O190   Zn199   2.000   .     S
C191   C232    1.420   .     S
C192   C231    1.420   .     S
O193   C197    1.292   .     A
O193   Zn199   1.953   .     S
O194   C198    1.292   .     A
O194   Zn200   1.953   .     S
O195   Zn200   1.898   .     S
O195   C197    1.294   .     A
O196   C198    1.294   .     A
O196   Zn199   1.898   .     S
C197   C201    1.455   .     S
C198   C202    1.455   .     S
Zn199  N241    2.012   .     S
Zn200  N242    2.012   .     S
C201   C207    1.379   .     A
C201   C205    1.393   .     A
C202   C206    1.393   .     A
C202   C208    1.379   .     A
C203   C211    1.434   .     A
C203   Br245   1.923   .     S
C203   C205    1.400   .     A
C204   C212    1.434   .     A
C204   Br246   1.923   .     S
C204   C206    1.400   .     A
C205   H222    1.084   .     S
C206   H221    1.084   .     S
C207   C209    1.389   .     A
C207   H220    1.083   .     S
C208   C210    1.389   .     A
C208   H219    1.083   .     S
C209   C213    1.413   .     A
C209   C211    1.427   .     A
C210   C212    1.427   .     A
C210   C214    1.413   .     A
C211   C775    1.422   .     S
C212   C776    1.422   1_554 S
C213   C216    1.423   .     A
C213   C772    1.399   .     S
C214   C215    1.423   .     A
C214   C771    1.399   1_554 S
C215   Br247   1.943   .     S
C215   C217    1.407   .     A
C216   C218    1.407   .     A
C216   Br248   1.943   .     S
C217   Br243   1.931   .     S
C217   C769    1.422   1_554 S
C218   Br244   1.931   .     S
C218   C770    1.422   .     S
C223   H225    1.084   .     S
C223   C232    1.397   .     A
C223   C413    1.370   .     S
C224   H226    1.084   .     S
C224   C231    1.397   .     A
C227   H229    1.084   .     S
C227   C231    1.397   .     A
C228   H230    1.084   .     S
C228   C232    1.397   .     A
C228   C410    1.370   .     S
C233   H235    1.082   .     S
C233   N242    1.367   .     A
C233   C299    1.417   .     S
C234   N241    1.367   .     A
C234   H236    1.082   .     S
C234   C362    1.417   1_455 S
C237   N241    1.367   .     A
C237   H239    1.082   .     S
C237   C357    1.417   1_455 S
C238   H240    1.082   .     S
C238   N242    1.367   .     A
C238   C296    1.417   .     S
O249   C253    1.284   .     A
O249   Zn261   2.000   .     S
O250   C254    1.284   .     A
O250   Zn262   2.000   .     S
O251   C253    1.284   .     A
O251   Zn262   2.000   .     S
O252   C254    1.284   .     A
O252   Zn261   2.000   .     S
C253   C294    1.420   .     S
C254   C293    1.420   .     S
O255   C259    1.292   .     A
O255   Zn261   1.953   .     S
O256   C260    1.292   .     A
O256   Zn262   1.953   .     S
O257   Zn262   1.898   .     S
O257   C259    1.294   .     A
O258   C260    1.294   .     A
O258   Zn261   1.898   .     S
C259   C263    1.455   .     S
C260   C264    1.455   .     S
Zn261  N303    2.012   .     S
Zn262  N304    2.012   .     S
C263   C269    1.379   .     A
C263   C267    1.393   .     A
C264   C268    1.393   .     A
C264   C270    1.379   .     A
C265   C273    1.434   .     A
C265   Br307   1.923   .     S
C265   C267    1.400   .     A
C266   C274    1.434   .     A
C266   Br308   1.923   .     S
C266   C268    1.400   .     A
C267   H284    1.084   .     S
C268   H283    1.084   .     S
C269   C271    1.389   .     A
C269   H282    1.083   .     S
C270   C272    1.389   .     A
C270   H281    1.083   .     S
C271   C275    1.413   .     A
C271   C273    1.427   .     A
C272   C274    1.427   .     A
C272   C276    1.413   .     A
C273   C837    1.422   .     S
C274   C838    1.422   1_554 S
C275   C278    1.423   .     A
C275   C834    1.399   .     S
C276   C277    1.423   .     A
C276   C833    1.399   1_554 S
C277   Br309   1.943   .     S
C277   C279    1.407   .     A
C278   C280    1.407   .     A
C278   Br310   1.943   .     S
C279   Br305   1.931   .     S
C279   C831    1.422   1_554 S
C280   Br306   1.931   .     S
C280   C832    1.422   .     S
C285   H287    1.084   .     S
C285   C294    1.397   .     A
C285   C475    1.370   .     S
C286   H288    1.084   .     S
C286   C293    1.397   .     A
C289   H291    1.084   .     S
C289   C293    1.397   .     A
C290   H292    1.084   .     S
C290   C294    1.397   .     A
C290   C472    1.370   .     S
C295   H297    1.082   .     S
C295   N304    1.367   .     A
C295   C361    1.417   .     S
C296   N303    1.367   .     A
C296   H298    1.082   .     S
C299   N303    1.367   .     A
C299   H301    1.082   .     S
C300   H302    1.082   .     S
C300   N304    1.367   .     A
C300   C358    1.417   .     S
O311   C315    1.284   .     A
O311   Zn323   2.000   .     S
O312   C316    1.284   .     A
O312   Zn324   2.000   .     S
O313   C315    1.284   .     A
O313   Zn324   2.000   .     S
O314   C316    1.284   .     A
O314   Zn323   2.000   .     S
C315   C356    1.420   .     S
C316   C355    1.420   .     S
O317   C321    1.292   .     A
O317   Zn323   1.953   .     S
O318   C322    1.292   .     A
O318   Zn324   1.953   .     S
O319   Zn324   1.898   .     S
O319   C321    1.294   .     A
O320   C322    1.294   .     A
O320   Zn323   1.898   .     S
C321   C325    1.455   .     S
C322   C326    1.455   .     S
Zn323  N365    2.012   .     S
Zn324  N366    2.012   .     S
C325   C331    1.379   .     A
C325   C329    1.393   .     A
C326   C330    1.393   .     A
C326   C332    1.379   .     A
C327   C335    1.434   .     A
C327   Br369   1.923   .     S
C327   C329    1.400   .     A
C328   C336    1.434   .     A
C328   Br370   1.923   .     S
C328   C330    1.400   .     A
C329   H346    1.084   .     S
C330   H345    1.084   .     S
C331   C333    1.389   .     A
C331   H344    1.083   .     S
C332   C334    1.389   .     A
C332   H343    1.083   .     S
C333   C337    1.413   .     A
C333   C335    1.427   .     A
C334   C336    1.427   .     A
C334   C338    1.413   .     A
C335   C899    1.422   .     S
C336   C900    1.422   1_554 S
C337   C340    1.423   .     A
C337   C896    1.399   .     S
C338   C339    1.423   .     A
C338   C895    1.399   1_554 S
C339   Br371   1.943   .     S
C339   C341    1.407   .     A
C340   C342    1.407   .     A
C340   Br372   1.943   .     S
C341   Br367   1.931   .     S
C341   C893    1.422   1_554 S
C342   Br368   1.931   .     S
C342   C894    1.422   .     S
C347   H349    1.084   .     S
C347   C356    1.397   .     A
C347   C537    1.370   .     S
C348   H350    1.084   .     S
C348   C355    1.397   .     A
C351   H353    1.084   .     S
C351   C355    1.397   .     A
C352   H354    1.084   .     S
C352   C356    1.397   .     A
C352   C534    1.370   .     S
C357   H359    1.082   .     S
C357   N366    1.367   .     A
C357   C237    1.417   1_655 S
C358   N365    1.367   .     A
C358   H360    1.082   .     S
C361   N365    1.367   .     A
C361   H363    1.082   .     S
C362   H364    1.082   .     S
C362   N366    1.367   .     A
C362   C234    1.417   1_655 S
O373   C377    1.284   .     A
O373   Zn385   2.000   .     S
O374   C378    1.284   .     A
O374   Zn386   2.000   .     S
O375   C377    1.284   .     A
O375   Zn386   2.000   .     S
O376   C378    1.284   .     A
O376   Zn385   2.000   .     S
C377   C418    1.420   .     S
C378   C417    1.420   .     S
O379   C383    1.292   .     A
O379   Zn385   1.953   .     S
O380   C384    1.292   .     A
O380   Zn386   1.953   .     S
O381   Zn386   1.898   .     S
O381   C383    1.294   .     A
O382   C384    1.294   .     A
O382   Zn385   1.898   .     S
C383   C387    1.455   .     S
C384   C388    1.455   .     S
Zn385  N427    2.012   .     S
Zn386  N428    2.012   .     S
C387   C393    1.379   .     A
C387   C391    1.393   .     A
C388   C392    1.393   .     A
C388   C394    1.379   .     A
C389   C397    1.434   .     A
C389   Br431   1.923   .     S
C389   C391    1.400   .     A
C390   C398    1.434   .     A
C390   Br432   1.923   .     S
C390   C392    1.400   .     A
C391   H408    1.084   .     S
C392   H407    1.084   .     S
C393   C395    1.389   .     A
C393   H406    1.083   .     S
C394   C396    1.389   .     A
C394   H405    1.083   .     S
C395   C399    1.413   .     A
C395   C397    1.427   .     A
C396   C398    1.427   .     A
C396   C400    1.413   .     A
C397   C961    1.422   .     S
C398   C962    1.422   1_554 S
C399   C402    1.423   .     A
C399   C958    1.399   .     S
C400   C401    1.423   .     A
C400   C957    1.399   1_554 S
C401   Br433   1.943   .     S
C401   C403    1.407   .     A
C402   C404    1.407   .     A
C402   Br434   1.943   .     S
C403   Br429   1.931   .     S
C403   C955    1.422   1_554 S
C404   Br430   1.931   .     S
C404   C956    1.422   .     S
C409   H411    1.084   .     S
C409   C418    1.397   .     A
C409   C41     1.370   1_565 S
C410   H412    1.084   .     S
C410   C417    1.397   .     A
C413   H415    1.084   .     S
C413   C417    1.397   .     A
C414   H416    1.084   .     S
C414   C418    1.397   .     A
C414   C38     1.370   1_565 S
C419   H421    1.082   .     S
C419   N428    1.367   .     A
C419   C485    1.417   .     S
C420   N427    1.367   .     A
C420   H422    1.082   .     S
C420   C548    1.417   1_455 S
C423   N427    1.367   .     A
C423   H425    1.082   .     S
C423   C543    1.417   1_455 S
C424   H426    1.082   .     S
C424   N428    1.367   .     A
C424   C482    1.417   .     S
O435   C439    1.284   .     A
O435   Zn447   2.000   .     S
O436   C440    1.284   .     A
O436   Zn448   2.000   .     S
O437   C439    1.284   .     A
O437   Zn448   2.000   .     S
O438   C440    1.284   .     A
O438   Zn447   2.000   .     S
C439   C480    1.420   .     S
C440   C479    1.420   .     S
O441   C445    1.292   .     A
O441   Zn447   1.953   .     S
O442   C446    1.292   .     A
O442   Zn448   1.953   .     S
O443   Zn448   1.898   .     S
O443   C445    1.294   .     A
O444   C446    1.294   .     A
O444   Zn447   1.898   .     S
C445   C449    1.455   .     S
C446   C450    1.455   .     S
Zn447  N489    2.012   .     S
Zn448  N490    2.012   .     S
C449   C455    1.379   .     A
C449   C453    1.393   .     A
C450   C454    1.393   .     A
C450   C456    1.379   .     A
C451   C459    1.434   .     A
C451   Br493   1.923   .     S
C451   C453    1.400   .     A
C452   C460    1.434   .     A
C452   Br494   1.923   .     S
C452   C454    1.400   .     A
C453   H470    1.084   .     S
C454   H469    1.084   .     S
C455   C457    1.389   .     A
C455   H468    1.083   .     S
C456   C458    1.389   .     A
C456   H467    1.083   .     S
C457   C461    1.413   .     A
C457   C459    1.427   .     A
C458   C460    1.427   .     A
C458   C462    1.413   .     A
C459   C1023   1.422   .     S
C460   C1024   1.422   1_554 S
C461   C464    1.423   .     A
C461   C1020   1.399   .     S
C462   C463    1.423   .     A
C462   C1019   1.399   1_554 S
C463   Br495   1.943   .     S
C463   C465    1.407   .     A
C464   C466    1.407   .     A
C464   Br496   1.943   .     S
C465   Br491   1.931   .     S
C465   C1017   1.422   1_554 S
C466   Br492   1.931   .     S
C466   C1018   1.422   .     S
C471   H473    1.084   .     S
C471   C480    1.397   .     A
C471   C103    1.370   1_565 S
C472   H474    1.084   .     S
C472   C479    1.397   .     A
C475   H477    1.084   .     S
C475   C479    1.397   .     A
C476   H478    1.084   .     S
C476   C480    1.397   .     A
C476   C100    1.370   1_565 S
C481   H483    1.082   .     S
C481   N490    1.367   .     A
C481   C547    1.417   .     S
C482   N489    1.367   .     A
C482   H484    1.082   .     S
C485   N489    1.367   .     A
C485   H487    1.082   .     S
C486   H488    1.082   .     S
C486   N490    1.367   .     A
C486   C544    1.417   .     S
O497   C501    1.284   .     A
O497   Zn509   2.000   .     S
O498   C502    1.284   .     A
O498   Zn510   2.000   .     S
O499   C501    1.284   .     A
O499   Zn510   2.000   .     S
O500   C502    1.284   .     A
O500   Zn509   2.000   .     S
C501   C542    1.420   .     S
C502   C541    1.420   .     S
O503   C507    1.292   .     A
O503   Zn509   1.953   .     S
O504   C508    1.292   .     A
O504   Zn510   1.953   .     S
O505   Zn510   1.898   .     S
O505   C507    1.294   .     A
O506   C508    1.294   .     A
O506   Zn509   1.898   .     S
C507   C511    1.455   .     S
C508   C512    1.455   .     S
Zn509  N551    2.012   .     S
Zn510  N552    2.012   .     S
C511   C517    1.379   .     A
C511   C515    1.393   .     A
C512   C516    1.393   .     A
C512   C518    1.379   .     A
C513   C521    1.434   .     A
C513   Br555   1.923   .     S
C513   C515    1.400   .     A
C514   C522    1.434   .     A
C514   Br556   1.923   .     S
C514   C516    1.400   .     A
C515   H532    1.084   .     S
C516   H531    1.084   .     S
C517   C519    1.389   .     A
C517   H530    1.083   .     S
C518   C520    1.389   .     A
C518   H529    1.083   .     S
C519   C523    1.413   .     A
C519   C521    1.427   .     A
C520   C522    1.427   .     A
C520   C524    1.413   .     A
C521   C1085   1.422   .     S
C522   C1086   1.422   1_554 S
C523   C526    1.423   .     A
C523   C1082   1.399   .     S
C524   C525    1.423   .     A
C524   C1081   1.399   1_554 S
C525   Br557   1.943   .     S
C525   C527    1.407   .     A
C526   C528    1.407   .     A
C526   Br558   1.943   .     S
C527   Br553   1.931   .     S
C527   C1079   1.422   1_554 S
C528   Br554   1.931   .     S
C528   C1080   1.422   .     S
C533   H535    1.084   .     S
C533   C542    1.397   .     A
C533   C165    1.370   1_565 S
C534   H536    1.084   .     S
C534   C541    1.397   .     A
C537   H539    1.084   .     S
C537   C541    1.397   .     A
C538   H540    1.084   .     S
C538   C542    1.397   .     A
C538   C162    1.370   1_565 S
C543   H545    1.082   .     S
C543   N552    1.367   .     A
C543   C423    1.417   1_655 S
C544   N551    1.367   .     A
C544   H546    1.082   .     S
C547   N551    1.367   .     A
C547   H549    1.082   .     S
C548   H550    1.082   .     S
C548   N552    1.367   .     A
C548   C420    1.417   1_655 S
O559   C563    1.284   .     A
O559   Zn571   2.000   .     S
O560   C564    1.284   .     A
O560   Zn572   2.000   .     S
O561   C563    1.284   .     A
O561   Zn572   2.000   .     S
O562   C564    1.284   .     A
O562   Zn571   2.000   .     S
C563   C604    1.420   .     S
C564   C603    1.420   .     S
O565   C569    1.292   .     A
O565   Zn571   1.953   .     S
O566   C570    1.292   .     A
O566   Zn572   1.953   .     S
O567   Zn572   1.898   .     S
O567   C569    1.294   .     A
O568   C570    1.294   .     A
O568   Zn571   1.898   .     S
C569   C573    1.455   .     S
C570   C574    1.455   .     S
Zn571  N613    2.012   .     S
Zn572  N614    2.012   .     S
C573   C579    1.379   .     A
C573   C577    1.393   .     A
C574   C578    1.393   .     A
C574   C580    1.379   .     A
C575   C583    1.434   .     A
C575   Br617   1.923   .     S
C575   C577    1.400   .     A
C576   C584    1.434   .     A
C576   Br618   1.923   .     S
C576   C578    1.400   .     A
C577   H594    1.084   .     S
C578   H593    1.084   .     S
C579   C581    1.389   .     A
C579   H592    1.083   .     S
C580   C582    1.389   .     A
C580   H591    1.083   .     S
C581   C585    1.413   .     A
C581   C583    1.427   .     A
C582   C584    1.427   .     A
C582   C586    1.413   .     A
C583   C31     1.422   1_556 S
C585   C588    1.423   .     A
C585   C28     1.399   1_556 S
C586   C587    1.423   .     A
C587   Br619   1.943   .     S
C587   C589    1.407   .     A
C588   C590    1.407   .     A
C588   Br620   1.943   .     S
C589   Br615   1.931   .     S
C590   Br616   1.931   .     S
C590   C26     1.422   1_556 S
C595   H597    1.084   .     S
C595   C604    1.397   .     A
C595   C785    1.370   .     S
C596   H598    1.084   .     S
C596   C603    1.397   .     A
C596   C972    1.370   1_545 S
C599   H601    1.084   .     S
C599   C603    1.397   .     A
C599   C967    1.370   1_545 S
C600   H602    1.084   .     S
C600   C604    1.397   .     A
C600   C782    1.370   .     S
C605   H607    1.082   .     S
C605   N614    1.367   .     A
C605   C671    1.417   .     S
C606   N613    1.367   .     A
C606   H608    1.082   .     S
C606   C734    1.417   1_455 S
C609   N613    1.367   .     A
C609   H611    1.082   .     S
C609   C729    1.417   1_455 S
C610   H612    1.082   .     S
C610   N614    1.367   .     A
C610   C668    1.417   .     S
O621   C625    1.284   .     A
O621   Zn633   2.000   .     S
O622   C626    1.284   .     A
O622   Zn634   2.000   .     S
O623   C625    1.284   .     A
O623   Zn634   2.000   .     S
O624   C626    1.284   .     A
O624   Zn633   2.000   .     S
C625   C666    1.420   .     S
C626   C665    1.420   .     S
O627   C631    1.292   .     A
O627   Zn633   1.953   .     S
O628   C632    1.292   .     A
O628   Zn634   1.953   .     S
O629   Zn634   1.898   .     S
O629   C631    1.294   .     A
O630   C632    1.294   .     A
O630   Zn633   1.898   .     S
C631   C635    1.455   .     S
C632   C636    1.455   .     S
Zn633  N675    2.012   .     S
Zn634  N676    2.012   .     S
C635   C641    1.379   .     A
C635   C639    1.393   .     A
C636   C640    1.393   .     A
C636   C642    1.379   .     A
C637   C645    1.434   .     A
C637   Br679   1.923   .     S
C637   C639    1.400   .     A
C638   C646    1.434   .     A
C638   Br680   1.923   .     S
C638   C640    1.400   .     A
C639   H656    1.084   .     S
C640   H655    1.084   .     S
C641   C643    1.389   .     A
C641   H654    1.083   .     S
C642   C644    1.389   .     A
C642   H653    1.083   .     S
C643   C647    1.413   .     A
C643   C645    1.427   .     A
C644   C646    1.427   .     A
C644   C648    1.413   .     A
C645   C93     1.422   1_556 S
C647   C650    1.423   .     A
C647   C90     1.399   1_556 S
C648   C649    1.423   .     A
C649   Br681   1.943   .     S
C649   C651    1.407   .     A
C650   C652    1.407   .     A
C650   Br682   1.943   .     S
C651   Br677   1.931   .     S
C652   Br678   1.931   .     S
C652   C88     1.422   1_556 S
C657   H659    1.084   .     S
C657   C666    1.397   .     A
C657   C847    1.370   .     S
C658   H660    1.084   .     S
C658   C665    1.397   .     A
C658   C1034   1.370   1_545 S
C661   H663    1.084   .     S
C661   C665    1.397   .     A
C661   C1029   1.370   1_545 S
C662   H664    1.084   .     S
C662   C666    1.397   .     A
C662   C844    1.370   .     S
C667   H669    1.082   .     S
C667   N676    1.367   .     A
C667   C733    1.417   .     S
C668   N675    1.367   .     A
C668   H670    1.082   .     S
C671   N675    1.367   .     A
C671   H673    1.082   .     S
C672   H674    1.082   .     S
C672   N676    1.367   .     A
C672   C730    1.417   .     S
O683   C687    1.284   .     A
O683   Zn695   2.000   .     S
O684   C688    1.284   .     A
O684   Zn696   2.000   .     S
O685   C687    1.284   .     A
O685   Zn696   2.000   .     S
O686   C688    1.284   .     A
O686   Zn695   2.000   .     S
C687   C728    1.420   .     S
C688   C727    1.420   .     S
O689   C693    1.292   .     A
O689   Zn695   1.953   .     S
O690   C694    1.292   .     A
O690   Zn696   1.953   .     S
O691   Zn696   1.898   .     S
O691   C693    1.294   .     A
O692   C694    1.294   .     A
O692   Zn695   1.898   .     S
C693   C697    1.455   .     S
C694   C698    1.455   .     S
Zn695  N737    2.012   .     S
Zn696  N738    2.012   .     S
C697   C703    1.379   .     A
C697   C701    1.393   .     A
C698   C702    1.393   .     A
C698   C704    1.379   .     A
C699   C707    1.434   .     A
C699   Br741   1.923   .     S
C699   C701    1.400   .     A
C700   C708    1.434   .     A
C700   Br742   1.923   .     S
C700   C702    1.400   .     A
C701   H718    1.084   .     S
C702   H717    1.084   .     S
C703   C705    1.389   .     A
C703   H716    1.083   .     S
C704   C706    1.389   .     A
C704   H715    1.083   .     S
C705   C709    1.413   .     A
C705   C707    1.427   .     A
C706   C708    1.427   .     A
C706   C710    1.413   .     A
C707   C155    1.422   1_556 S
C709   C712    1.423   .     A
C709   C152    1.399   1_556 S
C710   C711    1.423   .     A
C711   Br743   1.943   .     S
C711   C713    1.407   .     A
C712   C714    1.407   .     A
C712   Br744   1.943   .     S
C713   Br739   1.931   .     S
C714   Br740   1.931   .     S
C714   C150    1.422   1_556 S
C719   H721    1.084   .     S
C719   C728    1.397   .     A
C719   C909    1.370   .     S
C720   H722    1.084   .     S
C720   C727    1.397   .     A
C720   C1096   1.370   1_545 S
C723   H725    1.084   .     S
C723   C727    1.397   .     A
C723   C1091   1.370   1_545 S
C724   H726    1.084   .     S
C724   C728    1.397   .     A
C724   C906    1.370   .     S
C729   H731    1.082   .     S
C729   N738    1.367   .     A
C729   C609    1.417   1_655 S
C730   N737    1.367   .     A
C730   H732    1.082   .     S
C733   N737    1.367   .     A
C733   H735    1.082   .     S
C734   H736    1.082   .     S
C734   N738    1.367   .     A
C734   C606    1.417   1_655 S
O745   C749    1.284   .     A
O745   Zn757   2.000   .     S
O746   C750    1.284   .     A
O746   Zn758   2.000   .     S
O747   C749    1.284   .     A
O747   Zn758   2.000   .     S
O748   C750    1.284   .     A
O748   Zn757   2.000   .     S
C749   C790    1.420   .     S
C750   C789    1.420   .     S
O751   C755    1.292   .     A
O751   Zn757   1.953   .     S
O752   C756    1.292   .     A
O752   Zn758   1.953   .     S
O753   Zn758   1.898   .     S
O753   C755    1.294   .     A
O754   C756    1.294   .     A
O754   Zn757   1.898   .     S
C755   C759    1.455   .     S
C756   C760    1.455   .     S
Zn757  N799    2.012   .     S
Zn758  N800    2.012   .     S
C759   C765    1.379   .     A
C759   C763    1.393   .     A
C760   C764    1.393   .     A
C760   C766    1.379   .     A
C761   C769    1.434   .     A
C761   Br803   1.923   .     S
C761   C763    1.400   .     A
C762   C770    1.434   .     A
C762   Br804   1.923   .     S
C762   C764    1.400   .     A
C763   H780    1.084   .     S
C764   H779    1.084   .     S
C765   C767    1.389   .     A
C765   H778    1.083   .     S
C766   C768    1.389   .     A
C766   H777    1.083   .     S
C767   C771    1.413   .     A
C767   C769    1.427   .     A
C768   C770    1.427   .     A
C768   C772    1.413   .     A
C769   C217    1.422   1_556 S
C771   C774    1.423   .     A
C771   C214    1.399   1_556 S
C772   C773    1.423   .     A
C773   Br805   1.943   .     S
C773   C775    1.407   .     A
C774   C776    1.407   .     A
C774   Br806   1.943   .     S
C775   Br801   1.931   .     S
C776   Br802   1.931   .     S
C776   C212    1.422   1_556 S
C781   H783    1.084   .     S
C781   C790    1.397   .     A
C781   C971    1.370   .     S
C782   H784    1.084   .     S
C782   C789    1.397   .     A
C785   H787    1.084   .     S
C785   C789    1.397   .     A
C786   H788    1.084   .     S
C786   C790    1.397   .     A
C786   C968    1.370   .     S
C791   H793    1.082   .     S
C791   N800    1.367   .     A
C791   C857    1.417   .     S
C792   N799    1.367   .     A
C792   H794    1.082   .     S
C792   C920    1.417   1_455 S
C795   N799    1.367   .     A
C795   H797    1.082   .     S
C795   C915    1.417   1_455 S
C796   H798    1.082   .     S
C796   N800    1.367   .     A
C796   C854    1.417   .     S
O807   C811    1.284   .     A
O807   Zn819   2.000   .     S
O808   C812    1.284   .     A
O808   Zn820   2.000   .     S
O809   C811    1.284   .     A
O809   Zn820   2.000   .     S
O810   C812    1.284   .     A
O810   Zn819   2.000   .     S
C811   C852    1.420   .     S
C812   C851    1.420   .     S
O813   C817    1.292   .     A
O813   Zn819   1.953   .     S
O814   C818    1.292   .     A
O814   Zn820   1.953   .     S
O815   Zn820   1.898   .     S
O815   C817    1.294   .     A
O816   C818    1.294   .     A
O816   Zn819   1.898   .     S
C817   C821    1.455   .     S
C818   C822    1.455   .     S
Zn819  N861    2.012   .     S
Zn820  N862    2.012   .     S
C821   C827    1.379   .     A
C821   C825    1.393   .     A
C822   C826    1.393   .     A
C822   C828    1.379   .     A
C823   C831    1.434   .     A
C823   Br865   1.923   .     S
C823   C825    1.400   .     A
C824   C832    1.434   .     A
C824   Br866   1.923   .     S
C824   C826    1.400   .     A
C825   H842    1.084   .     S
C826   H841    1.084   .     S
C827   C829    1.389   .     A
C827   H840    1.083   .     S
C828   C830    1.389   .     A
C828   H839    1.083   .     S
C829   C833    1.413   .     A
C829   C831    1.427   .     A
C830   C832    1.427   .     A
C830   C834    1.413   .     A
C831   C279    1.422   1_556 S
C833   C836    1.423   .     A
C833   C276    1.399   1_556 S
C834   C835    1.423   .     A
C835   Br867   1.943   .     S
C835   C837    1.407   .     A
C836   C838    1.407   .     A
C836   Br868   1.943   .     S
C837   Br863   1.931   .     S
C838   Br864   1.931   .     S
C838   C274    1.422   1_556 S
C843   H845    1.084   .     S
C843   C852    1.397   .     A
C843   C1033   1.370   .     S
C844   H846    1.084   .     S
C844   C851    1.397   .     A
C847   H849    1.084   .     S
C847   C851    1.397   .     A
C848   H850    1.084   .     S
C848   C852    1.397   .     A
C848   C1030   1.370   .     S
C853   H855    1.082   .     S
C853   N862    1.367   .     A
C853   C919    1.417   .     S
C854   N861    1.367   .     A
C854   H856    1.082   .     S
C857   N861    1.367   .     A
C857   H859    1.082   .     S
C858   H860    1.082   .     S
C858   N862    1.367   .     A
C858   C916    1.417   .     S
O869   C873    1.284   .     A
O869   Zn881   2.000   .     S
O870   C874    1.284   .     A
O870   Zn882   2.000   .     S
O871   C873    1.284   .     A
O871   Zn882   2.000   .     S
O872   C874    1.284   .     A
O872   Zn881   2.000   .     S
C873   C914    1.420   .     S
C874   C913    1.420   .     S
O875   C879    1.292   .     A
O875   Zn881   1.953   .     S
O876   C880    1.292   .     A
O876   Zn882   1.953   .     S
O877   Zn882   1.898   .     S
O877   C879    1.294   .     A
O878   C880    1.294   .     A
O878   Zn881   1.898   .     S
C879   C883    1.455   .     S
C880   C884    1.455   .     S
Zn881  N923    2.012   .     S
Zn882  N924    2.012   .     S
C883   C889    1.379   .     A
C883   C887    1.393   .     A
C884   C888    1.393   .     A
C884   C890    1.379   .     A
C885   C893    1.434   .     A
C885   Br927   1.923   .     S
C885   C887    1.400   .     A
C886   C894    1.434   .     A
C886   Br928   1.923   .     S
C886   C888    1.400   .     A
C887   H904    1.084   .     S
C888   H903    1.084   .     S
C889   C891    1.389   .     A
C889   H902    1.083   .     S
C890   C892    1.389   .     A
C890   H901    1.083   .     S
C891   C895    1.413   .     A
C891   C893    1.427   .     A
C892   C894    1.427   .     A
C892   C896    1.413   .     A
C893   C341    1.422   1_556 S
C895   C898    1.423   .     A
C895   C338    1.399   1_556 S
C896   C897    1.423   .     A
C897   Br929   1.943   .     S
C897   C899    1.407   .     A
C898   C900    1.407   .     A
C898   Br930   1.943   .     S
C899   Br925   1.931   .     S
C900   Br926   1.931   .     S
C900   C336    1.422   1_556 S
C905   H907    1.084   .     S
C905   C914    1.397   .     A
C905   C1095   1.370   .     S
C906   H908    1.084   .     S
C906   C913    1.397   .     A
C909   H911    1.084   .     S
C909   C913    1.397   .     A
C910   H912    1.084   .     S
C910   C914    1.397   .     A
C910   C1092   1.370   .     S
C915   H917    1.082   .     S
C915   N924    1.367   .     A
C915   C795    1.417   1_655 S
C916   N923    1.367   .     A
C916   H918    1.082   .     S
C919   N923    1.367   .     A
C919   H921    1.082   .     S
C920   H922    1.082   .     S
C920   N924    1.367   .     A
C920   C792    1.417   1_655 S
O931   C935    1.284   .     A
O931   Zn943   2.000   .     S
O932   C936    1.284   .     A
O932   Zn944   2.000   .     S
O933   C935    1.284   .     A
O933   Zn944   2.000   .     S
O934   C936    1.284   .     A
O934   Zn943   2.000   .     S
C935   C976    1.420   .     S
C936   C975    1.420   .     S
O937   C941    1.292   .     A
O937   Zn943   1.953   .     S
O938   C942    1.292   .     A
O938   Zn944   1.953   .     S
O939   Zn944   1.898   .     S
O939   C941    1.294   .     A
O940   C942    1.294   .     A
O940   Zn943   1.898   .     S
C941   C945    1.455   .     S
C942   C946    1.455   .     S
Zn943  N985    2.012   .     S
Zn944  N986    2.012   .     S
C945   C951    1.379   .     A
C945   C949    1.393   .     A
C946   C950    1.393   .     A
C946   C952    1.379   .     A
C947   C955    1.434   .     A
C947   Br989   1.923   .     S
C947   C949    1.400   .     A
C948   C956    1.434   .     A
C948   Br990   1.923   .     S
C948   C950    1.400   .     A
C949   H966    1.084   .     S
C950   H965    1.084   .     S
C951   C953    1.389   .     A
C951   H964    1.083   .     S
C952   C954    1.389   .     A
C952   H963    1.083   .     S
C953   C957    1.413   .     A
C953   C955    1.427   .     A
C954   C956    1.427   .     A
C954   C958    1.413   .     A
C955   C403    1.422   1_556 S
C957   C960    1.423   .     A
C957   C400    1.399   1_556 S
C958   C959    1.423   .     A
C959   Br991   1.943   .     S
C959   C961    1.407   .     A
C960   C962    1.407   .     A
C960   Br992   1.943   .     S
C961   Br987   1.931   .     S
C962   Br988   1.931   .     S
C962   C398    1.422   1_556 S
C967   H969    1.084   .     S
C967   C976    1.397   .     A
C967   C599    1.370   1_565 S
C968   H970    1.084   .     S
C968   C975    1.397   .     A
C971   H973    1.084   .     S
C971   C975    1.397   .     A
C972   H974    1.084   .     S
C972   C976    1.397   .     A
C972   C596    1.370   1_565 S
C977   H979    1.082   .     S
C977   N986    1.367   .     A
C977   C1043   1.417   .     S
C978   N985    1.367   .     A
C978   H980    1.082   .     S
C978   C1106   1.417   1_455 S
C981   N985    1.367   .     A
C981   H983    1.082   .     S
C981   C1101   1.417   1_455 S
C982   H984    1.082   .     S
C982   N986    1.367   .     A
C982   C1040   1.417   .     S
O993   C997    1.284   .     A
O993   Zn1005  2.000   .     S
O994   C998    1.284   .     A
O994   Zn1006  2.000   .     S
O995   C997    1.284   .     A
O995   Zn1006  2.000   .     S
O996   C998    1.284   .     A
O996   Zn1005  2.000   .     S
C997   C1038   1.420   .     S
C998   C1037   1.420   .     S
O999   C1003   1.292   .     A
O999   Zn1005  1.953   .     S
O1000  C1004   1.292   .     A
O1000  Zn1006  1.953   .     S
O1001  Zn1006  1.898   .     S
O1001  C1003   1.294   .     A
O1002  C1004   1.294   .     A
O1002  Zn1005  1.898   .     S
C1003  C1007   1.455   .     S
C1004  C1008   1.455   .     S
Zn1005 N1047   2.012   .     S
Zn1006 N1048   2.012   .     S
C1007  C1013   1.379   .     A
C1007  C1011   1.393   .     A
C1008  C1012   1.393   .     A
C1008  C1014   1.379   .     A
C1009  C1017   1.434   .     A
C1009  Br1051  1.923   .     S
C1009  C1011   1.400   .     A
C1010  C1018   1.434   .     A
C1010  Br1052  1.923   .     S
C1010  C1012   1.400   .     A
C1011  H1028   1.084   .     S
C1012  H1027   1.084   .     S
C1013  C1015   1.389   .     A
C1013  H1026   1.083   .     S
C1014  C1016   1.389   .     A
C1014  H1025   1.083   .     S
C1015  C1019   1.413   .     A
C1015  C1017   1.427   .     A
C1016  C1018   1.427   .     A
C1016  C1020   1.413   .     A
C1017  C465    1.422   1_556 S
C1019  C1022   1.423   .     A
C1019  C462    1.399   1_556 S
C1020  C1021   1.423   .     A
C1021  Br1053  1.943   .     S
C1021  C1023   1.407   .     A
C1022  C1024   1.407   .     A
C1022  Br1054  1.943   .     S
C1023  Br1049  1.931   .     S
C1024  Br1050  1.931   .     S
C1024  C460    1.422   1_556 S
C1029  H1031   1.084   .     S
C1029  C1038   1.397   .     A
C1029  C661    1.370   1_565 S
C1030  H1032   1.084   .     S
C1030  C1037   1.397   .     A
C1033  H1035   1.084   .     S
C1033  C1037   1.397   .     A
C1034  H1036   1.084   .     S
C1034  C1038   1.397   .     A
C1034  C658    1.370   1_565 S
C1039  H1041   1.082   .     S
C1039  N1048   1.367   .     A
C1039  C1105   1.417   .     S
C1040  N1047   1.367   .     A
C1040  H1042   1.082   .     S
C1043  N1047   1.367   .     A
C1043  H1045   1.082   .     S
C1044  H1046   1.082   .     S
C1044  N1048   1.367   .     A
C1044  C1102   1.417   .     S
O1055  C1059   1.284   .     A
O1055  Zn1067  2.000   .     S
O1056  C1060   1.284   .     A
O1056  Zn1068  2.000   .     S
O1057  C1059   1.284   .     A
O1057  Zn1068  2.000   .     S
O1058  C1060   1.284   .     A
O1058  Zn1067  2.000   .     S
C1059  C1100   1.420   .     S
C1060  C1099   1.420   .     S
O1061  C1065   1.292   .     A
O1061  Zn1067  1.953   .     S
O1062  C1066   1.292   .     A
O1062  Zn1068  1.953   .     S
O1063  Zn1068  1.898   .     S
O1063  C1065   1.294   .     A
O1064  C1066   1.294   .     A
O1064  Zn1067  1.898   .     S
C1065  C1069   1.455   .     S
C1066  C1070   1.455   .     S
Zn1067 N1109   2.012   .     S
Zn1068 N1110   2.012   .     S
C1069  C1075   1.379   .     A
C1069  C1073   1.393   .     A
C1070  C1074   1.393   .     A
C1070  C1076   1.379   .     A
C1071  C1079   1.434   .     A
C1071  Br1113  1.923   .     S
C1071  C1073   1.400   .     A
C1072  C1080   1.434   .     A
C1072  Br1114  1.923   .     S
C1072  C1074   1.400   .     A
C1073  H1090   1.084   .     S
C1074  H1089   1.084   .     S
C1075  C1077   1.389   .     A
C1075  H1088   1.083   .     S
C1076  C1078   1.389   .     A
C1076  H1087   1.083   .     S
C1077  C1081   1.413   .     A
C1077  C1079   1.427   .     A
C1078  C1080   1.427   .     A
C1078  C1082   1.413   .     A
C1079  C527    1.422   1_556 S
C1081  C1084   1.423   .     A
C1081  C524    1.399   1_556 S
C1082  C1083   1.423   .     A
C1083  Br1115  1.943   .     S
C1083  C1085   1.407   .     A
C1084  C1086   1.407   .     A
C1084  Br1116  1.943   .     S
C1085  Br1111  1.931   .     S
C1086  Br1112  1.931   .     S
C1086  C522    1.422   1_556 S
C1091  H1093   1.084   .     S
C1091  C1100   1.397   .     A
C1091  C723    1.370   1_565 S
C1092  H1094   1.084   .     S
C1092  C1099   1.397   .     A
C1095  H1097   1.084   .     S
C1095  C1099   1.397   .     A
C1096  H1098   1.084   .     S
C1096  C1100   1.397   .     A
C1096  C720    1.370   1_565 S
C1101  H1103   1.082   .     S
C1101  N1110   1.367   .     A
C1101  C981    1.417   1_655 S
C1102  N1109   1.367   .     A
C1102  H1104   1.082   .     S
C1105  N1109   1.367   .     A
C1105  H1107   1.082   .     S
C1106  H1108   1.082   .     S
C1106  N1110   1.367   .     A
C1106  C978    1.417   1_655 S
