data_str_m3_o10_o17_pcu_sym.170
_audit_creation_date              2020-01-03
_audit_creation_method            'Materials Studio'
_symmetry_space_group_name_H-M    'P1'
_symmetry_Int_Tables_number       1
_symmetry_cell_setting            triclinic
loop_
_symmetry_equiv_pos_as_xyz
  x,y,z
_cell_length_a                    23.3574
_cell_length_b                    25.7304
_cell_length_c                    29.7217
_cell_angle_alpha                 91.7807
_cell_angle_beta                  86.9839
_cell_angle_gamma                 93.1329
loop_
_atom_site_label
_atom_site_type_symbol
_atom_site_fract_x
_atom_site_fract_y
_atom_site_fract_z
_atom_site_U_iso_or_equiv
_atom_site_adp_type
_atom_site_occupancy
C1     C     0.18177   0.26483   0.24917   0.00000  Uiso   1.00
C2     C     0.15159   0.06851   0.25121   0.00000  Uiso   1.00
C3     C     0.23331   0.24242   0.47492   0.00000  Uiso   1.00
C4     C     0.13338   0.07312   0.02417   0.00000  Uiso   1.00
C5     C     0.18981   0.31924   0.24890   0.00000  Uiso   1.00
C6     C     0.14359   0.01414   0.25217   0.00000  Uiso   1.00
C7     C     0.16801   0.16673   0.33638   0.00000  Uiso   1.00
C8     C     0.16536   0.16607   0.16365   0.00000  Uiso   1.00
C9     C     0.14614   0.12162   0.09335   0.00000  Uiso   1.00
C10    C     0.20229   0.20203   0.40618   0.00000  Uiso   1.00
C11    C     0.16359   0.16718   0.11591   0.00000  Uiso   1.00
C12    C     0.17137   0.16261   0.38390   0.00000  Uiso   1.00
C13    C     0.18680   0.21090   0.09328   0.00000  Uiso   1.00
C14    C     0.14752   0.11847   0.40594   0.00000  Uiso   1.00
C15    C     0.19906   0.20664   0.04646   0.00000  Uiso   1.00
C16    C     0.15488   0.11436   0.45254   0.00000  Uiso   1.00
C17    C     0.17665   0.16139   0.02310   0.00000  Uiso   1.00
C18    C     0.17907   0.15880   0.47600   0.00000  Uiso   1.00
C19    C     0.15083   0.11898   0.04684   0.00000  Uiso   1.00
C20    C     0.20481   0.20128   0.45236   0.00000  Uiso   1.00
C21    C     0.23283   0.24485   0.02186   0.00000  Uiso   1.00
C22    C     0.13822   0.06899   0.47722   0.00000  Uiso   1.00
H23    H     0.12932   0.08818   0.11224   0.00000  Uiso   1.00
H24    H     0.22192   0.23465   0.38759   0.00000  Uiso   1.00
H25    H     0.25675   0.27267   0.45579   0.00000  Uiso   1.00
H26    H     0.11838   0.03936   0.04332   0.00000  Uiso   1.00
H27    H     0.23360   0.00255   0.24565   0.00000  Uiso   1.00
H28    H     0.09979   0.33083   0.25544   0.00000  Uiso   1.00
H29    H     0.00430   0.12747   0.21582   0.00000  Uiso   1.00
H30    H     0.32903   0.20585   0.28419   0.00000  Uiso   1.00
N31    N     0.31678   0.15265   0.23783   0.00000  Uiso   1.00
N32    N     0.01656   0.18068   0.26217   0.00000  Uiso   1.00
O33    O     0.12975   0.24619   0.25299   0.00000  Uiso   1.00
O34    O     0.20358   0.08714   0.24702   0.00000  Uiso   1.00
O35    O     0.22613   0.23721   0.24519   0.00000  Uiso   1.00
O36    O     0.10720   0.09613   0.25482   0.00000  Uiso   1.00
O37    O     0.11847   0.17117   0.31998   0.00000  Uiso   1.00
O38    O     0.21486   0.16216   0.18003   0.00000  Uiso   1.00
O39    O     0.21485   0.16219   0.31218   0.00000  Uiso   1.00
O40    O     0.11848   0.17115   0.18783   0.00000  Uiso   1.00
Zn41   Zn    0.10231   0.17266   0.25521   0.00000  Uiso   1.00
Zn42   Zn    0.23102   0.16067   0.24479   0.00000  Uiso   1.00
C43    C     0.19031   0.26037   0.11813   0.00000  Uiso   1.00
N44    N     0.19266   0.29961   0.13824   0.00000  Uiso   1.00
C45    C     0.11207   0.08118   0.38057   0.00000  Uiso   1.00
N46    N     0.08397   0.05196   0.35971   0.00000  Uiso   1.00
C47    C     0.27559   0.28357   0.04290   0.00000  Uiso   1.00
C48    C     0.25686   0.00633   0.04086   0.00000  Uiso   1.00
C49    C     0.29643   0.04457   0.06642   0.00000  Uiso   1.00
H50    H     0.29593   0.03457   0.10253   0.00000  Uiso   1.00
H51    H     0.00768   0.04389   0.05168   0.00000  Uiso   1.00
H52    H     0.28144   0.08459   0.06413   0.00000  Uiso   1.00
H53    H     0.25705   0.01816   0.00520   0.00000  Uiso   1.00
H54    H     0.21263   0.00865   0.05590   0.00000  Uiso   1.00
H55    H     0.28475   0.27363   0.07768   0.00000  Uiso   1.00
H56    H     0.31737   0.28001   0.02421   0.00000  Uiso   1.00
C57    C     0.13436   0.01434   0.45657   0.00000  Uiso   1.00
C58    C     0.07232   0.32532   0.45678   0.00000  Uiso   1.00
C59    C     0.06893   0.27030   0.43602   0.00000  Uiso   1.00
H60    H     0.08789   0.27010   0.40095   0.00000  Uiso   1.00
H61    H     0.09214   0.24369   0.45644   0.00000  Uiso   1.00
H62    H     0.02343   0.25566   0.43530   0.00000  Uiso   1.00
H63    H     0.04510   0.01723   0.43835   0.00000  Uiso   1.00
H64    H     0.05519   0.32418   0.49208   0.00000  Uiso   1.00
H65    H     0.15570   0.01209   0.42243   0.00000  Uiso   1.00
H66    H     0.15914   0.32233   0.47700   0.00000  Uiso   1.00
C67    C     0.51510   0.26483   0.24917   0.00000  Uiso   1.00
C68    C     0.48492   0.06851   0.25121   0.00000  Uiso   1.00
C69    C     0.56664   0.24242   0.47492   0.00000  Uiso   1.00
C70    C     0.46671   0.07312   0.02417   0.00000  Uiso   1.00
C71    C     0.52314   0.31924   0.24890   0.00000  Uiso   1.00
C72    C     0.47692   0.01414   0.25217   0.00000  Uiso   1.00
C73    C     0.50135   0.16673   0.33638   0.00000  Uiso   1.00
C74    C     0.49869   0.16607   0.16365   0.00000  Uiso   1.00
C75    C     0.47947   0.12162   0.09335   0.00000  Uiso   1.00
C76    C     0.53563   0.20203   0.40618   0.00000  Uiso   1.00
C77    C     0.49693   0.16718   0.11591   0.00000  Uiso   1.00
C78    C     0.50471   0.16261   0.38390   0.00000  Uiso   1.00
C79    C     0.52013   0.21090   0.09328   0.00000  Uiso   1.00
C80    C     0.48085   0.11847   0.40594   0.00000  Uiso   1.00
C81    C     0.53240   0.20664   0.04646   0.00000  Uiso   1.00
C82    C     0.48821   0.11436   0.45254   0.00000  Uiso   1.00
C83    C     0.50999   0.16139   0.02310   0.00000  Uiso   1.00
C84    C     0.51240   0.15880   0.47600   0.00000  Uiso   1.00
C85    C     0.48416   0.11898   0.04684   0.00000  Uiso   1.00
C86    C     0.53814   0.20128   0.45236   0.00000  Uiso   1.00
C87    C     0.56617   0.24485   0.02186   0.00000  Uiso   1.00
C88    C     0.47155   0.06899   0.47722   0.00000  Uiso   1.00
H89    H     0.46265   0.08818   0.11224   0.00000  Uiso   1.00
H90    H     0.55525   0.23465   0.38759   0.00000  Uiso   1.00
H91    H     0.59008   0.27267   0.45579   0.00000  Uiso   1.00
H92    H     0.45171   0.03936   0.04332   0.00000  Uiso   1.00
H93    H     0.56694   0.00255   0.24565   0.00000  Uiso   1.00
H94    H     0.43313   0.33083   0.25544   0.00000  Uiso   1.00
H95    H     0.33763   0.12747   0.21582   0.00000  Uiso   1.00
H96    H     0.66237   0.20585   0.28419   0.00000  Uiso   1.00
N97    N     0.65011   0.15265   0.23783   0.00000  Uiso   1.00
N98    N     0.34989   0.18068   0.26217   0.00000  Uiso   1.00
O99    O     0.46308   0.24619   0.25299   0.00000  Uiso   1.00
O100   O     0.53692   0.08714   0.24702   0.00000  Uiso   1.00
O101   O     0.55946   0.23721   0.24519   0.00000  Uiso   1.00
O102   O     0.44054   0.09613   0.25482   0.00000  Uiso   1.00
O103   O     0.45181   0.17117   0.31998   0.00000  Uiso   1.00
O104   O     0.54819   0.16216   0.18003   0.00000  Uiso   1.00
O105   O     0.54819   0.16219   0.31218   0.00000  Uiso   1.00
O106   O     0.45181   0.17115   0.18783   0.00000  Uiso   1.00
Zn107  Zn    0.43565   0.17266   0.25521   0.00000  Uiso   1.00
Zn108  Zn    0.56435   0.16067   0.24479   0.00000  Uiso   1.00
C109   C     0.52365   0.26037   0.11813   0.00000  Uiso   1.00
N110   N     0.52600   0.29961   0.13824   0.00000  Uiso   1.00
C111   C     0.44540   0.08118   0.38057   0.00000  Uiso   1.00
N112   N     0.41730   0.05196   0.35971   0.00000  Uiso   1.00
C113   C     0.60892   0.28357   0.04290   0.00000  Uiso   1.00
C114   C     0.59020   0.00633   0.04086   0.00000  Uiso   1.00
C115   C     0.62976   0.04457   0.06642   0.00000  Uiso   1.00
H116   H     0.62926   0.03457   0.10253   0.00000  Uiso   1.00
H117   H     0.34102   0.04389   0.05168   0.00000  Uiso   1.00
H118   H     0.61477   0.08459   0.06413   0.00000  Uiso   1.00
H119   H     0.59038   0.01816   0.00520   0.00000  Uiso   1.00
H120   H     0.54597   0.00865   0.05590   0.00000  Uiso   1.00
H121   H     0.61808   0.27363   0.07768   0.00000  Uiso   1.00
H122   H     0.65071   0.28001   0.02421   0.00000  Uiso   1.00
C123   C     0.46770   0.01434   0.45657   0.00000  Uiso   1.00
C124   C     0.40565   0.32532   0.45678   0.00000  Uiso   1.00
C125   C     0.40226   0.27030   0.43602   0.00000  Uiso   1.00
H126   H     0.42122   0.27010   0.40095   0.00000  Uiso   1.00
H127   H     0.42547   0.24369   0.45644   0.00000  Uiso   1.00
H128   H     0.35677   0.25566   0.43530   0.00000  Uiso   1.00
H129   H     0.37843   0.01723   0.43835   0.00000  Uiso   1.00
H130   H     0.38852   0.32418   0.49208   0.00000  Uiso   1.00
H131   H     0.48904   0.01209   0.42243   0.00000  Uiso   1.00
H132   H     0.49248   0.32233   0.47700   0.00000  Uiso   1.00
C133   C     0.84843   0.26483   0.24917   0.00000  Uiso   1.00
C134   C     0.81826   0.06851   0.25121   0.00000  Uiso   1.00
C135   C     0.89997   0.24242   0.47492   0.00000  Uiso   1.00
C136   C     0.80004   0.07312   0.02417   0.00000  Uiso   1.00
C137   C     0.85647   0.31924   0.24890   0.00000  Uiso   1.00
C138   C     0.81026   0.01414   0.25217   0.00000  Uiso   1.00
C139   C     0.83468   0.16673   0.33638   0.00000  Uiso   1.00
C140   C     0.83202   0.16607   0.16365   0.00000  Uiso   1.00
C141   C     0.81281   0.12162   0.09335   0.00000  Uiso   1.00
C142   C     0.86896   0.20203   0.40618   0.00000  Uiso   1.00
C143   C     0.83026   0.16718   0.11591   0.00000  Uiso   1.00
C144   C     0.83804   0.16261   0.38390   0.00000  Uiso   1.00
C145   C     0.85347   0.21090   0.09328   0.00000  Uiso   1.00
C146   C     0.81418   0.11847   0.40594   0.00000  Uiso   1.00
C147   C     0.86573   0.20664   0.04646   0.00000  Uiso   1.00
C148   C     0.82155   0.11436   0.45254   0.00000  Uiso   1.00
C149   C     0.84332   0.16139   0.02310   0.00000  Uiso   1.00
C150   C     0.84574   0.15880   0.47600   0.00000  Uiso   1.00
C151   C     0.81750   0.11898   0.04684   0.00000  Uiso   1.00
C152   C     0.87147   0.20128   0.45236   0.00000  Uiso   1.00
C153   C     0.89950   0.24485   0.02186   0.00000  Uiso   1.00
C154   C     0.80488   0.06899   0.47722   0.00000  Uiso   1.00
H155   H     0.79599   0.08818   0.11224   0.00000  Uiso   1.00
H156   H     0.88859   0.23465   0.38759   0.00000  Uiso   1.00
H157   H     0.92342   0.27267   0.45579   0.00000  Uiso   1.00
H158   H     0.78504   0.03936   0.04332   0.00000  Uiso   1.00
H159   H     0.90027   0.00255   0.24565   0.00000  Uiso   1.00
H160   H     0.76646   0.33083   0.25544   0.00000  Uiso   1.00
H161   H     0.67096   0.12747   0.21582   0.00000  Uiso   1.00
H162   H     0.99570   0.20585   0.28419   0.00000  Uiso   1.00
N163   N     0.98344   0.15265   0.23783   0.00000  Uiso   1.00
N164   N     0.68322   0.18068   0.26217   0.00000  Uiso   1.00
O165   O     0.79642   0.24619   0.25299   0.00000  Uiso   1.00
O166   O     0.87025   0.08714   0.24702   0.00000  Uiso   1.00
O167   O     0.89280   0.23721   0.24519   0.00000  Uiso   1.00
O168   O     0.77387   0.09613   0.25482   0.00000  Uiso   1.00
O169   O     0.78514   0.17117   0.31998   0.00000  Uiso   1.00
O170   O     0.88153   0.16216   0.18003   0.00000  Uiso   1.00
O171   O     0.88152   0.16219   0.31218   0.00000  Uiso   1.00
O172   O     0.78515   0.17115   0.18783   0.00000  Uiso   1.00
Zn173  Zn    0.76898   0.17266   0.25521   0.00000  Uiso   1.00
Zn174  Zn    0.89769   0.16067   0.24479   0.00000  Uiso   1.00
C175   C     0.85698   0.26037   0.11813   0.00000  Uiso   1.00
N176   N     0.85933   0.29961   0.13824   0.00000  Uiso   1.00
C177   C     0.77873   0.08118   0.38057   0.00000  Uiso   1.00
N178   N     0.75064   0.05196   0.35971   0.00000  Uiso   1.00
C179   C     0.94225   0.28357   0.04290   0.00000  Uiso   1.00
C180   C     0.92353   0.00633   0.04086   0.00000  Uiso   1.00
C181   C     0.96310   0.04457   0.06642   0.00000  Uiso   1.00
H182   H     0.96259   0.03457   0.10253   0.00000  Uiso   1.00
H183   H     0.67435   0.04389   0.05168   0.00000  Uiso   1.00
H184   H     0.94810   0.08459   0.06413   0.00000  Uiso   1.00
H185   H     0.92372   0.01816   0.00520   0.00000  Uiso   1.00
H186   H     0.87930   0.00865   0.05590   0.00000  Uiso   1.00
H187   H     0.95142   0.27363   0.07768   0.00000  Uiso   1.00
H188   H     0.98404   0.28001   0.02421   0.00000  Uiso   1.00
C189   C     0.80103   0.01434   0.45657   0.00000  Uiso   1.00
C190   C     0.73899   0.32532   0.45678   0.00000  Uiso   1.00
C191   C     0.73559   0.27030   0.43602   0.00000  Uiso   1.00
H192   H     0.75456   0.27010   0.40095   0.00000  Uiso   1.00
H193   H     0.75881   0.24369   0.45644   0.00000  Uiso   1.00
H194   H     0.69010   0.25566   0.43530   0.00000  Uiso   1.00
H195   H     0.71177   0.01723   0.43835   0.00000  Uiso   1.00
H196   H     0.72185   0.32418   0.49208   0.00000  Uiso   1.00
H197   H     0.82237   0.01209   0.42243   0.00000  Uiso   1.00
H198   H     0.82581   0.32233   0.47700   0.00000  Uiso   1.00
C199   C     0.18177   0.59816   0.24917   0.00000  Uiso   1.00
C200   C     0.15159   0.40185   0.25121   0.00000  Uiso   1.00
C201   C     0.23331   0.57576   0.47492   0.00000  Uiso   1.00
C202   C     0.13338   0.40645   0.02417   0.00000  Uiso   1.00
C203   C     0.18981   0.65257   0.24890   0.00000  Uiso   1.00
C204   C     0.14359   0.34747   0.25217   0.00000  Uiso   1.00
C205   C     0.16801   0.50007   0.33638   0.00000  Uiso   1.00
C206   C     0.16536   0.49941   0.16365   0.00000  Uiso   1.00
C207   C     0.14614   0.45495   0.09335   0.00000  Uiso   1.00
C208   C     0.20229   0.53537   0.40618   0.00000  Uiso   1.00
C209   C     0.16359   0.50052   0.11591   0.00000  Uiso   1.00
C210   C     0.17137   0.49594   0.38390   0.00000  Uiso   1.00
C211   C     0.18680   0.54423   0.09328   0.00000  Uiso   1.00
C212   C     0.14752   0.45180   0.40594   0.00000  Uiso   1.00
C213   C     0.19906   0.53998   0.04646   0.00000  Uiso   1.00
C214   C     0.15488   0.44769   0.45254   0.00000  Uiso   1.00
C215   C     0.17665   0.49473   0.02310   0.00000  Uiso   1.00
C216   C     0.17907   0.49213   0.47600   0.00000  Uiso   1.00
C217   C     0.15083   0.45231   0.04684   0.00000  Uiso   1.00
C218   C     0.20481   0.53462   0.45236   0.00000  Uiso   1.00
C219   C     0.23283   0.57819   0.02186   0.00000  Uiso   1.00
C220   C     0.13822   0.40232   0.47722   0.00000  Uiso   1.00
H221   H     0.12932   0.42151   0.11224   0.00000  Uiso   1.00
H222   H     0.22192   0.56799   0.38759   0.00000  Uiso   1.00
H223   H     0.25675   0.60600   0.45579   0.00000  Uiso   1.00
H224   H     0.11838   0.37269   0.04332   0.00000  Uiso   1.00
H225   H     0.23360   0.33588   0.24565   0.00000  Uiso   1.00
H226   H     0.09979   0.66416   0.25544   0.00000  Uiso   1.00
H227   H     0.00430   0.46080   0.21582   0.00000  Uiso   1.00
H228   H     0.32903   0.53919   0.28419   0.00000  Uiso   1.00
N229   N     0.31678   0.48598   0.23783   0.00000  Uiso   1.00
N230   N     0.01656   0.51402   0.26217   0.00000  Uiso   1.00
O231   O     0.12975   0.57952   0.25299   0.00000  Uiso   1.00
O232   O     0.20358   0.42048   0.24702   0.00000  Uiso   1.00
O233   O     0.22613   0.57054   0.24519   0.00000  Uiso   1.00
O234   O     0.10720   0.42946   0.25482   0.00000  Uiso   1.00
O235   O     0.11847   0.50450   0.31998   0.00000  Uiso   1.00
O236   O     0.21486   0.49550   0.18003   0.00000  Uiso   1.00
O237   O     0.21485   0.49552   0.31218   0.00000  Uiso   1.00
O238   O     0.11848   0.50448   0.18783   0.00000  Uiso   1.00
Zn239  Zn    0.10231   0.50600   0.25521   0.00000  Uiso   1.00
Zn240  Zn    0.23102   0.49400   0.24479   0.00000  Uiso   1.00
C241   C     0.19031   0.59370   0.11813   0.00000  Uiso   1.00
N242   N     0.19266   0.63295   0.13824   0.00000  Uiso   1.00
C243   C     0.11207   0.41451   0.38057   0.00000  Uiso   1.00
N244   N     0.08397   0.38530   0.35971   0.00000  Uiso   1.00
C245   C     0.27559   0.61691   0.04290   0.00000  Uiso   1.00
C246   C     0.25686   0.33966   0.04086   0.00000  Uiso   1.00
C247   C     0.29643   0.37790   0.06642   0.00000  Uiso   1.00
H248   H     0.29593   0.36790   0.10253   0.00000  Uiso   1.00
H249   H     0.00768   0.37722   0.05168   0.00000  Uiso   1.00
H250   H     0.28144   0.41792   0.06413   0.00000  Uiso   1.00
H251   H     0.25705   0.35149   0.00520   0.00000  Uiso   1.00
H252   H     0.21263   0.34199   0.05590   0.00000  Uiso   1.00
H253   H     0.28475   0.60697   0.07768   0.00000  Uiso   1.00
H254   H     0.31737   0.61335   0.02421   0.00000  Uiso   1.00
C255   C     0.13436   0.34767   0.45657   0.00000  Uiso   1.00
C256   C     0.07232   0.65865   0.45678   0.00000  Uiso   1.00
C257   C     0.06893   0.60363   0.43602   0.00000  Uiso   1.00
H258   H     0.08789   0.60344   0.40095   0.00000  Uiso   1.00
H259   H     0.09214   0.57702   0.45644   0.00000  Uiso   1.00
H260   H     0.02343   0.58900   0.43530   0.00000  Uiso   1.00
H261   H     0.04510   0.35056   0.43835   0.00000  Uiso   1.00
H262   H     0.05519   0.65751   0.49208   0.00000  Uiso   1.00
H263   H     0.15570   0.34543   0.42243   0.00000  Uiso   1.00
H264   H     0.15914   0.65566   0.47700   0.00000  Uiso   1.00
C265   C     0.51510   0.59816   0.24917   0.00000  Uiso   1.00
C266   C     0.48492   0.40185   0.25121   0.00000  Uiso   1.00
C267   C     0.56664   0.57576   0.47492   0.00000  Uiso   1.00
C268   C     0.46671   0.40645   0.02417   0.00000  Uiso   1.00
C269   C     0.52314   0.65257   0.24890   0.00000  Uiso   1.00
C270   C     0.47692   0.34747   0.25217   0.00000  Uiso   1.00
C271   C     0.50135   0.50007   0.33638   0.00000  Uiso   1.00
C272   C     0.49869   0.49941   0.16365   0.00000  Uiso   1.00
C273   C     0.47947   0.45495   0.09335   0.00000  Uiso   1.00
C274   C     0.53563   0.53537   0.40618   0.00000  Uiso   1.00
C275   C     0.49693   0.50052   0.11591   0.00000  Uiso   1.00
C276   C     0.50471   0.49594   0.38390   0.00000  Uiso   1.00
C277   C     0.52013   0.54423   0.09328   0.00000  Uiso   1.00
C278   C     0.48085   0.45180   0.40594   0.00000  Uiso   1.00
C279   C     0.53240   0.53998   0.04646   0.00000  Uiso   1.00
C280   C     0.48821   0.44769   0.45254   0.00000  Uiso   1.00
C281   C     0.50999   0.49473   0.02310   0.00000  Uiso   1.00
C282   C     0.51240   0.49213   0.47600   0.00000  Uiso   1.00
C283   C     0.48416   0.45231   0.04684   0.00000  Uiso   1.00
C284   C     0.53814   0.53462   0.45236   0.00000  Uiso   1.00
C285   C     0.56617   0.57819   0.02186   0.00000  Uiso   1.00
C286   C     0.47155   0.40232   0.47722   0.00000  Uiso   1.00
H287   H     0.46265   0.42151   0.11224   0.00000  Uiso   1.00
H288   H     0.55525   0.56799   0.38759   0.00000  Uiso   1.00
H289   H     0.59008   0.60600   0.45579   0.00000  Uiso   1.00
H290   H     0.45171   0.37269   0.04332   0.00000  Uiso   1.00
H291   H     0.56694   0.33588   0.24565   0.00000  Uiso   1.00
H292   H     0.43313   0.66416   0.25544   0.00000  Uiso   1.00
H293   H     0.33763   0.46080   0.21582   0.00000  Uiso   1.00
H294   H     0.66237   0.53919   0.28419   0.00000  Uiso   1.00
N295   N     0.65011   0.48598   0.23783   0.00000  Uiso   1.00
N296   N     0.34989   0.51402   0.26217   0.00000  Uiso   1.00
O297   O     0.46308   0.57952   0.25299   0.00000  Uiso   1.00
O298   O     0.53692   0.42048   0.24702   0.00000  Uiso   1.00
O299   O     0.55946   0.57054   0.24519   0.00000  Uiso   1.00
O300   O     0.44054   0.42946   0.25482   0.00000  Uiso   1.00
O301   O     0.45181   0.50450   0.31998   0.00000  Uiso   1.00
O302   O     0.54819   0.49550   0.18003   0.00000  Uiso   1.00
O303   O     0.54819   0.49552   0.31218   0.00000  Uiso   1.00
O304   O     0.45181   0.50448   0.18783   0.00000  Uiso   1.00
Zn305  Zn    0.43565   0.50600   0.25521   0.00000  Uiso   1.00
Zn306  Zn    0.56435   0.49400   0.24479   0.00000  Uiso   1.00
C307   C     0.52365   0.59370   0.11813   0.00000  Uiso   1.00
N308   N     0.52600   0.63295   0.13824   0.00000  Uiso   1.00
C309   C     0.44540   0.41451   0.38057   0.00000  Uiso   1.00
N310   N     0.41730   0.38530   0.35971   0.00000  Uiso   1.00
C311   C     0.60892   0.61691   0.04290   0.00000  Uiso   1.00
C312   C     0.59020   0.33966   0.04086   0.00000  Uiso   1.00
C313   C     0.62976   0.37790   0.06642   0.00000  Uiso   1.00
H314   H     0.62926   0.36790   0.10253   0.00000  Uiso   1.00
H315   H     0.34102   0.37722   0.05168   0.00000  Uiso   1.00
H316   H     0.61477   0.41792   0.06413   0.00000  Uiso   1.00
H317   H     0.59038   0.35149   0.00520   0.00000  Uiso   1.00
H318   H     0.54597   0.34199   0.05590   0.00000  Uiso   1.00
H319   H     0.61808   0.60697   0.07768   0.00000  Uiso   1.00
H320   H     0.65071   0.61335   0.02421   0.00000  Uiso   1.00
C321   C     0.46770   0.34767   0.45657   0.00000  Uiso   1.00
C322   C     0.40565   0.65865   0.45678   0.00000  Uiso   1.00
C323   C     0.40226   0.60363   0.43602   0.00000  Uiso   1.00
H324   H     0.42122   0.60344   0.40095   0.00000  Uiso   1.00
H325   H     0.42547   0.57702   0.45644   0.00000  Uiso   1.00
H326   H     0.35677   0.58900   0.43530   0.00000  Uiso   1.00
H327   H     0.37843   0.35056   0.43835   0.00000  Uiso   1.00
H328   H     0.38852   0.65751   0.49208   0.00000  Uiso   1.00
H329   H     0.48904   0.34543   0.42243   0.00000  Uiso   1.00
H330   H     0.49248   0.65566   0.47700   0.00000  Uiso   1.00
C331   C     0.84843   0.59816   0.24917   0.00000  Uiso   1.00
C332   C     0.81826   0.40185   0.25121   0.00000  Uiso   1.00
C333   C     0.89997   0.57576   0.47492   0.00000  Uiso   1.00
C334   C     0.80004   0.40645   0.02417   0.00000  Uiso   1.00
C335   C     0.85647   0.65257   0.24890   0.00000  Uiso   1.00
C336   C     0.81026   0.34747   0.25217   0.00000  Uiso   1.00
C337   C     0.83468   0.50007   0.33638   0.00000  Uiso   1.00
C338   C     0.83202   0.49941   0.16365   0.00000  Uiso   1.00
C339   C     0.81281   0.45495   0.09335   0.00000  Uiso   1.00
C340   C     0.86896   0.53537   0.40618   0.00000  Uiso   1.00
C341   C     0.83026   0.50052   0.11591   0.00000  Uiso   1.00
C342   C     0.83804   0.49594   0.38390   0.00000  Uiso   1.00
C343   C     0.85347   0.54423   0.09328   0.00000  Uiso   1.00
C344   C     0.81418   0.45180   0.40594   0.00000  Uiso   1.00
C345   C     0.86573   0.53998   0.04646   0.00000  Uiso   1.00
C346   C     0.82155   0.44769   0.45254   0.00000  Uiso   1.00
C347   C     0.84332   0.49473   0.02310   0.00000  Uiso   1.00
C348   C     0.84574   0.49213   0.47600   0.00000  Uiso   1.00
C349   C     0.81750   0.45231   0.04684   0.00000  Uiso   1.00
C350   C     0.87147   0.53462   0.45236   0.00000  Uiso   1.00
C351   C     0.89950   0.57819   0.02186   0.00000  Uiso   1.00
C352   C     0.80488   0.40232   0.47722   0.00000  Uiso   1.00
H353   H     0.79599   0.42151   0.11224   0.00000  Uiso   1.00
H354   H     0.88859   0.56799   0.38759   0.00000  Uiso   1.00
H355   H     0.92342   0.60600   0.45579   0.00000  Uiso   1.00
H356   H     0.78504   0.37269   0.04332   0.00000  Uiso   1.00
H357   H     0.90027   0.33588   0.24565   0.00000  Uiso   1.00
H358   H     0.76646   0.66416   0.25544   0.00000  Uiso   1.00
H359   H     0.67096   0.46080   0.21582   0.00000  Uiso   1.00
H360   H     0.99570   0.53919   0.28419   0.00000  Uiso   1.00
N361   N     0.98344   0.48598   0.23783   0.00000  Uiso   1.00
N362   N     0.68322   0.51402   0.26217   0.00000  Uiso   1.00
O363   O     0.79642   0.57952   0.25299   0.00000  Uiso   1.00
O364   O     0.87025   0.42048   0.24702   0.00000  Uiso   1.00
O365   O     0.89280   0.57054   0.24519   0.00000  Uiso   1.00
O366   O     0.77387   0.42946   0.25482   0.00000  Uiso   1.00
O367   O     0.78514   0.50450   0.31998   0.00000  Uiso   1.00
O368   O     0.88153   0.49550   0.18003   0.00000  Uiso   1.00
O369   O     0.88152   0.49552   0.31218   0.00000  Uiso   1.00
O370   O     0.78515   0.50448   0.18783   0.00000  Uiso   1.00
Zn371  Zn    0.76898   0.50600   0.25521   0.00000  Uiso   1.00
Zn372  Zn    0.89769   0.49400   0.24479   0.00000  Uiso   1.00
C373   C     0.85698   0.59370   0.11813   0.00000  Uiso   1.00
N374   N     0.85933   0.63295   0.13824   0.00000  Uiso   1.00
C375   C     0.77873   0.41451   0.38057   0.00000  Uiso   1.00
N376   N     0.75064   0.38530   0.35971   0.00000  Uiso   1.00
C377   C     0.94225   0.61691   0.04290   0.00000  Uiso   1.00
C378   C     0.92353   0.33966   0.04086   0.00000  Uiso   1.00
C379   C     0.96310   0.37790   0.06642   0.00000  Uiso   1.00
H380   H     0.96259   0.36790   0.10253   0.00000  Uiso   1.00
H381   H     0.67435   0.37722   0.05168   0.00000  Uiso   1.00
H382   H     0.94810   0.41792   0.06413   0.00000  Uiso   1.00
H383   H     0.92372   0.35149   0.00520   0.00000  Uiso   1.00
H384   H     0.87930   0.34199   0.05590   0.00000  Uiso   1.00
H385   H     0.95142   0.60697   0.07768   0.00000  Uiso   1.00
H386   H     0.98404   0.61335   0.02421   0.00000  Uiso   1.00
C387   C     0.80103   0.34767   0.45657   0.00000  Uiso   1.00
C388   C     0.73899   0.65865   0.45678   0.00000  Uiso   1.00
C389   C     0.73559   0.60363   0.43602   0.00000  Uiso   1.00
H390   H     0.75456   0.60344   0.40095   0.00000  Uiso   1.00
H391   H     0.75881   0.57702   0.45644   0.00000  Uiso   1.00
H392   H     0.69010   0.58900   0.43530   0.00000  Uiso   1.00
H393   H     0.71177   0.35056   0.43835   0.00000  Uiso   1.00
H394   H     0.72185   0.65751   0.49208   0.00000  Uiso   1.00
H395   H     0.82237   0.34543   0.42243   0.00000  Uiso   1.00
H396   H     0.82581   0.65566   0.47700   0.00000  Uiso   1.00
C397   C     0.18177   0.93150   0.24917   0.00000  Uiso   1.00
C398   C     0.15159   0.73518   0.25121   0.00000  Uiso   1.00
C399   C     0.23331   0.90909   0.47492   0.00000  Uiso   1.00
C400   C     0.13338   0.73978   0.02417   0.00000  Uiso   1.00
C401   C     0.18981   0.98590   0.24890   0.00000  Uiso   1.00
C402   C     0.14359   0.68081   0.25217   0.00000  Uiso   1.00
C403   C     0.16801   0.83340   0.33638   0.00000  Uiso   1.00
C404   C     0.16536   0.83274   0.16365   0.00000  Uiso   1.00
C405   C     0.14614   0.78829   0.09335   0.00000  Uiso   1.00
C406   C     0.20229   0.86870   0.40618   0.00000  Uiso   1.00
C407   C     0.16359   0.83385   0.11591   0.00000  Uiso   1.00
C408   C     0.17137   0.82928   0.38390   0.00000  Uiso   1.00
C409   C     0.18680   0.87757   0.09328   0.00000  Uiso   1.00
C410   C     0.14752   0.78513   0.40594   0.00000  Uiso   1.00
C411   C     0.19906   0.87331   0.04646   0.00000  Uiso   1.00
C412   C     0.15488   0.78102   0.45254   0.00000  Uiso   1.00
C413   C     0.17665   0.82806   0.02310   0.00000  Uiso   1.00
C414   C     0.17907   0.82546   0.47600   0.00000  Uiso   1.00
C415   C     0.15083   0.78564   0.04684   0.00000  Uiso   1.00
C416   C     0.20481   0.86795   0.45236   0.00000  Uiso   1.00
C417   C     0.23283   0.91152   0.02186   0.00000  Uiso   1.00
C418   C     0.13822   0.73565   0.47722   0.00000  Uiso   1.00
H419   H     0.12932   0.75484   0.11224   0.00000  Uiso   1.00
H420   H     0.22192   0.90132   0.38759   0.00000  Uiso   1.00
H421   H     0.25675   0.93933   0.45579   0.00000  Uiso   1.00
H422   H     0.11838   0.70603   0.04332   0.00000  Uiso   1.00
H423   H     0.23360   0.66922   0.24565   0.00000  Uiso   1.00
H424   H     0.09979   0.99749   0.25544   0.00000  Uiso   1.00
H425   H     0.00430   0.79414   0.21582   0.00000  Uiso   1.00
H426   H     0.32903   0.87252   0.28419   0.00000  Uiso   1.00
N427   N     0.31678   0.81932   0.23783   0.00000  Uiso   1.00
N428   N     0.01656   0.84735   0.26217   0.00000  Uiso   1.00
O429   O     0.12975   0.91286   0.25299   0.00000  Uiso   1.00
O430   O     0.20358   0.75381   0.24702   0.00000  Uiso   1.00
O431   O     0.22613   0.90387   0.24519   0.00000  Uiso   1.00
O432   O     0.10720   0.76279   0.25482   0.00000  Uiso   1.00
O433   O     0.11847   0.83784   0.31998   0.00000  Uiso   1.00
O434   O     0.21486   0.82883   0.18003   0.00000  Uiso   1.00
O435   O     0.21485   0.82885   0.31218   0.00000  Uiso   1.00
O436   O     0.11848   0.83781   0.18783   0.00000  Uiso   1.00
Zn437  Zn    0.10231   0.83933   0.25521   0.00000  Uiso   1.00
Zn438  Zn    0.23102   0.82734   0.24479   0.00000  Uiso   1.00
C439   C     0.19031   0.92704   0.11813   0.00000  Uiso   1.00
N440   N     0.19266   0.96628   0.13824   0.00000  Uiso   1.00
C441   C     0.11207   0.74785   0.38057   0.00000  Uiso   1.00
N442   N     0.08397   0.71863   0.35971   0.00000  Uiso   1.00
C443   C     0.27559   0.95024   0.04290   0.00000  Uiso   1.00
C444   C     0.25686   0.67299   0.04086   0.00000  Uiso   1.00
C445   C     0.29643   0.71124   0.06642   0.00000  Uiso   1.00
H446   H     0.29593   0.70123   0.10253   0.00000  Uiso   1.00
H447   H     0.00768   0.71056   0.05168   0.00000  Uiso   1.00
H448   H     0.28144   0.75126   0.06413   0.00000  Uiso   1.00
H449   H     0.25705   0.68482   0.00520   0.00000  Uiso   1.00
H450   H     0.21263   0.67532   0.05590   0.00000  Uiso   1.00
H451   H     0.28475   0.94030   0.07768   0.00000  Uiso   1.00
H452   H     0.31737   0.94668   0.02421   0.00000  Uiso   1.00
C453   C     0.13436   0.68100   0.45657   0.00000  Uiso   1.00
C454   C     0.07232   0.99199   0.45678   0.00000  Uiso   1.00
C455   C     0.06893   0.93696   0.43602   0.00000  Uiso   1.00
H456   H     0.08789   0.93677   0.40095   0.00000  Uiso   1.00
H457   H     0.09214   0.91035   0.45644   0.00000  Uiso   1.00
H458   H     0.02343   0.92233   0.43530   0.00000  Uiso   1.00
H459   H     0.04510   0.68389   0.43835   0.00000  Uiso   1.00
H460   H     0.05519   0.99084   0.49208   0.00000  Uiso   1.00
H461   H     0.15570   0.67876   0.42243   0.00000  Uiso   1.00
H462   H     0.15914   0.98899   0.47700   0.00000  Uiso   1.00
C463   C     0.51510   0.93150   0.24917   0.00000  Uiso   1.00
C464   C     0.48492   0.73518   0.25121   0.00000  Uiso   1.00
C465   C     0.56664   0.90909   0.47492   0.00000  Uiso   1.00
C466   C     0.46671   0.73978   0.02417   0.00000  Uiso   1.00
C467   C     0.52314   0.98590   0.24890   0.00000  Uiso   1.00
C468   C     0.47692   0.68081   0.25217   0.00000  Uiso   1.00
C469   C     0.50135   0.83340   0.33638   0.00000  Uiso   1.00
C470   C     0.49869   0.83274   0.16365   0.00000  Uiso   1.00
C471   C     0.47947   0.78829   0.09335   0.00000  Uiso   1.00
C472   C     0.53563   0.86870   0.40618   0.00000  Uiso   1.00
C473   C     0.49693   0.83385   0.11591   0.00000  Uiso   1.00
C474   C     0.50471   0.82928   0.38390   0.00000  Uiso   1.00
C475   C     0.52013   0.87757   0.09328   0.00000  Uiso   1.00
C476   C     0.48085   0.78513   0.40594   0.00000  Uiso   1.00
C477   C     0.53240   0.87331   0.04646   0.00000  Uiso   1.00
C478   C     0.48821   0.78102   0.45254   0.00000  Uiso   1.00
C479   C     0.50999   0.82806   0.02310   0.00000  Uiso   1.00
C480   C     0.51240   0.82546   0.47600   0.00000  Uiso   1.00
C481   C     0.48416   0.78564   0.04684   0.00000  Uiso   1.00
C482   C     0.53814   0.86795   0.45236   0.00000  Uiso   1.00
C483   C     0.56617   0.91152   0.02186   0.00000  Uiso   1.00
C484   C     0.47155   0.73565   0.47722   0.00000  Uiso   1.00
H485   H     0.46265   0.75484   0.11224   0.00000  Uiso   1.00
H486   H     0.55525   0.90132   0.38759   0.00000  Uiso   1.00
H487   H     0.59008   0.93933   0.45579   0.00000  Uiso   1.00
H488   H     0.45171   0.70603   0.04332   0.00000  Uiso   1.00
H489   H     0.56694   0.66922   0.24565   0.00000  Uiso   1.00
H490   H     0.43313   0.99749   0.25544   0.00000  Uiso   1.00
H491   H     0.33763   0.79414   0.21582   0.00000  Uiso   1.00
H492   H     0.66237   0.87252   0.28419   0.00000  Uiso   1.00
N493   N     0.65011   0.81932   0.23783   0.00000  Uiso   1.00
N494   N     0.34989   0.84735   0.26217   0.00000  Uiso   1.00
O495   O     0.46308   0.91286   0.25299   0.00000  Uiso   1.00
O496   O     0.53692   0.75381   0.24702   0.00000  Uiso   1.00
O497   O     0.55946   0.90387   0.24519   0.00000  Uiso   1.00
O498   O     0.44054   0.76279   0.25482   0.00000  Uiso   1.00
O499   O     0.45181   0.83784   0.31998   0.00000  Uiso   1.00
O500   O     0.54819   0.82883   0.18003   0.00000  Uiso   1.00
O501   O     0.54819   0.82885   0.31218   0.00000  Uiso   1.00
O502   O     0.45181   0.83781   0.18783   0.00000  Uiso   1.00
Zn503  Zn    0.43565   0.83933   0.25521   0.00000  Uiso   1.00
Zn504  Zn    0.56435   0.82734   0.24479   0.00000  Uiso   1.00
C505   C     0.52365   0.92704   0.11813   0.00000  Uiso   1.00
N506   N     0.52600   0.96628   0.13824   0.00000  Uiso   1.00
C507   C     0.44540   0.74785   0.38057   0.00000  Uiso   1.00
N508   N     0.41730   0.71863   0.35971   0.00000  Uiso   1.00
C509   C     0.60892   0.95024   0.04290   0.00000  Uiso   1.00
C510   C     0.59020   0.67299   0.04086   0.00000  Uiso   1.00
C511   C     0.62976   0.71124   0.06642   0.00000  Uiso   1.00
H512   H     0.62926   0.70123   0.10253   0.00000  Uiso   1.00
H513   H     0.34102   0.71056   0.05168   0.00000  Uiso   1.00
H514   H     0.61477   0.75126   0.06413   0.00000  Uiso   1.00
H515   H     0.59038   0.68482   0.00520   0.00000  Uiso   1.00
H516   H     0.54597   0.67532   0.05590   0.00000  Uiso   1.00
H517   H     0.61808   0.94030   0.07768   0.00000  Uiso   1.00
H518   H     0.65071   0.94668   0.02421   0.00000  Uiso   1.00
C519   C     0.46770   0.68100   0.45657   0.00000  Uiso   1.00
C520   C     0.40565   0.99199   0.45678   0.00000  Uiso   1.00
C521   C     0.40226   0.93696   0.43602   0.00000  Uiso   1.00
H522   H     0.42122   0.93677   0.40095   0.00000  Uiso   1.00
H523   H     0.42547   0.91035   0.45644   0.00000  Uiso   1.00
H524   H     0.35677   0.92233   0.43530   0.00000  Uiso   1.00
H525   H     0.37843   0.68389   0.43835   0.00000  Uiso   1.00
H526   H     0.38852   0.99084   0.49208   0.00000  Uiso   1.00
H527   H     0.48904   0.67876   0.42243   0.00000  Uiso   1.00
H528   H     0.49248   0.98899   0.47700   0.00000  Uiso   1.00
C529   C     0.84843   0.93150   0.24917   0.00000  Uiso   1.00
C530   C     0.81826   0.73518   0.25121   0.00000  Uiso   1.00
C531   C     0.89997   0.90909   0.47492   0.00000  Uiso   1.00
C532   C     0.80004   0.73978   0.02417   0.00000  Uiso   1.00
C533   C     0.85647   0.98590   0.24890   0.00000  Uiso   1.00
C534   C     0.81026   0.68081   0.25217   0.00000  Uiso   1.00
C535   C     0.83468   0.83340   0.33638   0.00000  Uiso   1.00
C536   C     0.83202   0.83274   0.16365   0.00000  Uiso   1.00
C537   C     0.81281   0.78829   0.09335   0.00000  Uiso   1.00
C538   C     0.86896   0.86870   0.40618   0.00000  Uiso   1.00
C539   C     0.83026   0.83385   0.11591   0.00000  Uiso   1.00
C540   C     0.83804   0.82928   0.38390   0.00000  Uiso   1.00
C541   C     0.85347   0.87757   0.09328   0.00000  Uiso   1.00
C542   C     0.81418   0.78513   0.40594   0.00000  Uiso   1.00
C543   C     0.86573   0.87331   0.04646   0.00000  Uiso   1.00
C544   C     0.82155   0.78102   0.45254   0.00000  Uiso   1.00
C545   C     0.84332   0.82806   0.02310   0.00000  Uiso   1.00
C546   C     0.84574   0.82546   0.47600   0.00000  Uiso   1.00
C547   C     0.81750   0.78564   0.04684   0.00000  Uiso   1.00
C548   C     0.87147   0.86795   0.45236   0.00000  Uiso   1.00
C549   C     0.89950   0.91152   0.02186   0.00000  Uiso   1.00
C550   C     0.80488   0.73565   0.47722   0.00000  Uiso   1.00
H551   H     0.79599   0.75484   0.11224   0.00000  Uiso   1.00
H552   H     0.88859   0.90132   0.38759   0.00000  Uiso   1.00
H553   H     0.92342   0.93933   0.45579   0.00000  Uiso   1.00
H554   H     0.78504   0.70603   0.04332   0.00000  Uiso   1.00
H555   H     0.90027   0.66922   0.24565   0.00000  Uiso   1.00
H556   H     0.76646   0.99749   0.25544   0.00000  Uiso   1.00
H557   H     0.67096   0.79414   0.21582   0.00000  Uiso   1.00
H558   H     0.99570   0.87252   0.28419   0.00000  Uiso   1.00
N559   N     0.98344   0.81932   0.23783   0.00000  Uiso   1.00
N560   N     0.68322   0.84735   0.26217   0.00000  Uiso   1.00
O561   O     0.79642   0.91286   0.25299   0.00000  Uiso   1.00
O562   O     0.87025   0.75381   0.24702   0.00000  Uiso   1.00
O563   O     0.89280   0.90387   0.24519   0.00000  Uiso   1.00
O564   O     0.77387   0.76279   0.25482   0.00000  Uiso   1.00
O565   O     0.78514   0.83784   0.31998   0.00000  Uiso   1.00
O566   O     0.88153   0.82883   0.18003   0.00000  Uiso   1.00
O567   O     0.88152   0.82885   0.31218   0.00000  Uiso   1.00
O568   O     0.78515   0.83781   0.18783   0.00000  Uiso   1.00
Zn569  Zn    0.76898   0.83933   0.25521   0.00000  Uiso   1.00
Zn570  Zn    0.89769   0.82734   0.24479   0.00000  Uiso   1.00
C571   C     0.85698   0.92704   0.11813   0.00000  Uiso   1.00
N572   N     0.85933   0.96628   0.13824   0.00000  Uiso   1.00
C573   C     0.77873   0.74785   0.38057   0.00000  Uiso   1.00
N574   N     0.75064   0.71863   0.35971   0.00000  Uiso   1.00
C575   C     0.94225   0.95024   0.04290   0.00000  Uiso   1.00
C576   C     0.92353   0.67299   0.04086   0.00000  Uiso   1.00
C577   C     0.96310   0.71124   0.06642   0.00000  Uiso   1.00
H578   H     0.96259   0.70123   0.10253   0.00000  Uiso   1.00
H579   H     0.67435   0.71056   0.05168   0.00000  Uiso   1.00
H580   H     0.94810   0.75126   0.06413   0.00000  Uiso   1.00
H581   H     0.92372   0.68482   0.00520   0.00000  Uiso   1.00
H582   H     0.87930   0.67532   0.05590   0.00000  Uiso   1.00
H583   H     0.95142   0.94030   0.07768   0.00000  Uiso   1.00
H584   H     0.98404   0.94668   0.02421   0.00000  Uiso   1.00
C585   C     0.80103   0.68100   0.45657   0.00000  Uiso   1.00
C586   C     0.73899   0.99199   0.45678   0.00000  Uiso   1.00
C587   C     0.73559   0.93696   0.43602   0.00000  Uiso   1.00
H588   H     0.75456   0.93677   0.40095   0.00000  Uiso   1.00
H589   H     0.75881   0.91035   0.45644   0.00000  Uiso   1.00
H590   H     0.69010   0.92233   0.43530   0.00000  Uiso   1.00
H591   H     0.71177   0.68389   0.43835   0.00000  Uiso   1.00
H592   H     0.72185   0.99084   0.49208   0.00000  Uiso   1.00
H593   H     0.82237   0.67876   0.42243   0.00000  Uiso   1.00
H594   H     0.82581   0.98899   0.47700   0.00000  Uiso   1.00
C595   C     0.18177   0.26483   0.74917   0.00000  Uiso   1.00
C596   C     0.15159   0.06851   0.75121   0.00000  Uiso   1.00
C597   C     0.23331   0.24242   0.97492   0.00000  Uiso   1.00
C598   C     0.13338   0.07312   0.52417   0.00000  Uiso   1.00
C599   C     0.18981   0.31924   0.74890   0.00000  Uiso   1.00
C600   C     0.14359   0.01414   0.75217   0.00000  Uiso   1.00
C601   C     0.16801   0.16673   0.83638   0.00000  Uiso   1.00
C602   C     0.16536   0.16607   0.66365   0.00000  Uiso   1.00
C603   C     0.14614   0.12162   0.59335   0.00000  Uiso   1.00
C604   C     0.20229   0.20203   0.90618   0.00000  Uiso   1.00
C605   C     0.16359   0.16718   0.61591   0.00000  Uiso   1.00
C606   C     0.17137   0.16261   0.88390   0.00000  Uiso   1.00
C607   C     0.18680   0.21090   0.59328   0.00000  Uiso   1.00
C608   C     0.14752   0.11847   0.90594   0.00000  Uiso   1.00
C609   C     0.19906   0.20664   0.54646   0.00000  Uiso   1.00
C610   C     0.15488   0.11436   0.95254   0.00000  Uiso   1.00
C611   C     0.17665   0.16139   0.52310   0.00000  Uiso   1.00
C612   C     0.17907   0.15880   0.97600   0.00000  Uiso   1.00
C613   C     0.15083   0.11898   0.54684   0.00000  Uiso   1.00
C614   C     0.20481   0.20128   0.95236   0.00000  Uiso   1.00
C615   C     0.23283   0.24485   0.52186   0.00000  Uiso   1.00
C616   C     0.13822   0.06899   0.97722   0.00000  Uiso   1.00
H617   H     0.12932   0.08818   0.61224   0.00000  Uiso   1.00
H618   H     0.22192   0.23465   0.88759   0.00000  Uiso   1.00
H619   H     0.25675   0.27267   0.95579   0.00000  Uiso   1.00
H620   H     0.11838   0.03936   0.54332   0.00000  Uiso   1.00
H621   H     0.23360   0.00255   0.74565   0.00000  Uiso   1.00
H622   H     0.09979   0.33083   0.75544   0.00000  Uiso   1.00
H623   H     0.00430   0.12747   0.71582   0.00000  Uiso   1.00
H624   H     0.32903   0.20585   0.78419   0.00000  Uiso   1.00
N625   N     0.31678   0.15265   0.73783   0.00000  Uiso   1.00
N626   N     0.01656   0.18068   0.76217   0.00000  Uiso   1.00
O627   O     0.12975   0.24619   0.75299   0.00000  Uiso   1.00
O628   O     0.20358   0.08714   0.74702   0.00000  Uiso   1.00
O629   O     0.22613   0.23721   0.74519   0.00000  Uiso   1.00
O630   O     0.10720   0.09613   0.75482   0.00000  Uiso   1.00
O631   O     0.11847   0.17117   0.81998   0.00000  Uiso   1.00
O632   O     0.21486   0.16216   0.68003   0.00000  Uiso   1.00
O633   O     0.21485   0.16219   0.81218   0.00000  Uiso   1.00
O634   O     0.11848   0.17115   0.68783   0.00000  Uiso   1.00
Zn635  Zn    0.10231   0.17266   0.75521   0.00000  Uiso   1.00
Zn636  Zn    0.23102   0.16067   0.74479   0.00000  Uiso   1.00
C637   C     0.19031   0.26037   0.61813   0.00000  Uiso   1.00
N638   N     0.19266   0.29961   0.63824   0.00000  Uiso   1.00
C639   C     0.11207   0.08118   0.88057   0.00000  Uiso   1.00
N640   N     0.08397   0.05196   0.85971   0.00000  Uiso   1.00
C641   C     0.27559   0.28357   0.54290   0.00000  Uiso   1.00
C642   C     0.25686   0.00633   0.54086   0.00000  Uiso   1.00
C643   C     0.29643   0.04457   0.56642   0.00000  Uiso   1.00
H644   H     0.29593   0.03457   0.60253   0.00000  Uiso   1.00
H645   H     0.00768   0.04389   0.55168   0.00000  Uiso   1.00
H646   H     0.28144   0.08459   0.56413   0.00000  Uiso   1.00
H647   H     0.25705   0.01816   0.50520   0.00000  Uiso   1.00
H648   H     0.21263   0.00865   0.55590   0.00000  Uiso   1.00
H649   H     0.28475   0.27363   0.57768   0.00000  Uiso   1.00
H650   H     0.31737   0.28001   0.52421   0.00000  Uiso   1.00
C651   C     0.13436   0.01434   0.95657   0.00000  Uiso   1.00
C652   C     0.07232   0.32532   0.95678   0.00000  Uiso   1.00
C653   C     0.06893   0.27030   0.93602   0.00000  Uiso   1.00
H654   H     0.08789   0.27010   0.90095   0.00000  Uiso   1.00
H655   H     0.09214   0.24369   0.95644   0.00000  Uiso   1.00
H656   H     0.02343   0.25566   0.93530   0.00000  Uiso   1.00
H657   H     0.04510   0.01723   0.93835   0.00000  Uiso   1.00
H658   H     0.05519   0.32418   0.99208   0.00000  Uiso   1.00
H659   H     0.15570   0.01209   0.92243   0.00000  Uiso   1.00
H660   H     0.15914   0.32233   0.97700   0.00000  Uiso   1.00
C661   C     0.51510   0.26483   0.74917   0.00000  Uiso   1.00
C662   C     0.48492   0.06851   0.75121   0.00000  Uiso   1.00
C663   C     0.56664   0.24242   0.97492   0.00000  Uiso   1.00
C664   C     0.46671   0.07312   0.52417   0.00000  Uiso   1.00
C665   C     0.52314   0.31924   0.74890   0.00000  Uiso   1.00
C666   C     0.47692   0.01414   0.75217   0.00000  Uiso   1.00
C667   C     0.50135   0.16673   0.83638   0.00000  Uiso   1.00
C668   C     0.49869   0.16607   0.66365   0.00000  Uiso   1.00
C669   C     0.47947   0.12162   0.59335   0.00000  Uiso   1.00
C670   C     0.53563   0.20203   0.90618   0.00000  Uiso   1.00
C671   C     0.49693   0.16718   0.61591   0.00000  Uiso   1.00
C672   C     0.50471   0.16261   0.88390   0.00000  Uiso   1.00
C673   C     0.52013   0.21090   0.59328   0.00000  Uiso   1.00
C674   C     0.48085   0.11847   0.90594   0.00000  Uiso   1.00
C675   C     0.53240   0.20664   0.54646   0.00000  Uiso   1.00
C676   C     0.48821   0.11436   0.95254   0.00000  Uiso   1.00
C677   C     0.50999   0.16139   0.52310   0.00000  Uiso   1.00
C678   C     0.51240   0.15880   0.97600   0.00000  Uiso   1.00
C679   C     0.48416   0.11898   0.54684   0.00000  Uiso   1.00
C680   C     0.53814   0.20128   0.95236   0.00000  Uiso   1.00
C681   C     0.56617   0.24485   0.52186   0.00000  Uiso   1.00
C682   C     0.47155   0.06899   0.97722   0.00000  Uiso   1.00
H683   H     0.46265   0.08818   0.61224   0.00000  Uiso   1.00
H684   H     0.55525   0.23465   0.88759   0.00000  Uiso   1.00
H685   H     0.59008   0.27267   0.95579   0.00000  Uiso   1.00
H686   H     0.45171   0.03936   0.54332   0.00000  Uiso   1.00
H687   H     0.56694   0.00255   0.74565   0.00000  Uiso   1.00
H688   H     0.43313   0.33083   0.75544   0.00000  Uiso   1.00
H689   H     0.33763   0.12747   0.71582   0.00000  Uiso   1.00
H690   H     0.66237   0.20585   0.78419   0.00000  Uiso   1.00
N691   N     0.65011   0.15265   0.73783   0.00000  Uiso   1.00
N692   N     0.34989   0.18068   0.76217   0.00000  Uiso   1.00
O693   O     0.46308   0.24619   0.75299   0.00000  Uiso   1.00
O694   O     0.53692   0.08714   0.74702   0.00000  Uiso   1.00
O695   O     0.55946   0.23721   0.74519   0.00000  Uiso   1.00
O696   O     0.44054   0.09613   0.75482   0.00000  Uiso   1.00
O697   O     0.45181   0.17117   0.81998   0.00000  Uiso   1.00
O698   O     0.54819   0.16216   0.68003   0.00000  Uiso   1.00
O699   O     0.54819   0.16219   0.81218   0.00000  Uiso   1.00
O700   O     0.45181   0.17115   0.68783   0.00000  Uiso   1.00
Zn701  Zn    0.43565   0.17266   0.75521   0.00000  Uiso   1.00
Zn702  Zn    0.56435   0.16067   0.74479   0.00000  Uiso   1.00
C703   C     0.52365   0.26037   0.61813   0.00000  Uiso   1.00
N704   N     0.52600   0.29961   0.63824   0.00000  Uiso   1.00
C705   C     0.44540   0.08118   0.88057   0.00000  Uiso   1.00
N706   N     0.41730   0.05196   0.85971   0.00000  Uiso   1.00
C707   C     0.60892   0.28357   0.54290   0.00000  Uiso   1.00
C708   C     0.59020   0.00633   0.54086   0.00000  Uiso   1.00
C709   C     0.62976   0.04457   0.56642   0.00000  Uiso   1.00
H710   H     0.62926   0.03457   0.60253   0.00000  Uiso   1.00
H711   H     0.34102   0.04389   0.55168   0.00000  Uiso   1.00
H712   H     0.61477   0.08459   0.56413   0.00000  Uiso   1.00
H713   H     0.59038   0.01816   0.50520   0.00000  Uiso   1.00
H714   H     0.54597   0.00865   0.55590   0.00000  Uiso   1.00
H715   H     0.61808   0.27363   0.57768   0.00000  Uiso   1.00
H716   H     0.65071   0.28001   0.52421   0.00000  Uiso   1.00
C717   C     0.46770   0.01434   0.95657   0.00000  Uiso   1.00
C718   C     0.40565   0.32532   0.95678   0.00000  Uiso   1.00
C719   C     0.40226   0.27030   0.93602   0.00000  Uiso   1.00
H720   H     0.42122   0.27010   0.90095   0.00000  Uiso   1.00
H721   H     0.42547   0.24369   0.95644   0.00000  Uiso   1.00
H722   H     0.35677   0.25566   0.93530   0.00000  Uiso   1.00
H723   H     0.37843   0.01723   0.93835   0.00000  Uiso   1.00
H724   H     0.38852   0.32418   0.99208   0.00000  Uiso   1.00
H725   H     0.48904   0.01209   0.92243   0.00000  Uiso   1.00
H726   H     0.49248   0.32233   0.97700   0.00000  Uiso   1.00
C727   C     0.84843   0.26483   0.74917   0.00000  Uiso   1.00
C728   C     0.81826   0.06851   0.75121   0.00000  Uiso   1.00
C729   C     0.89997   0.24242   0.97492   0.00000  Uiso   1.00
C730   C     0.80004   0.07312   0.52417   0.00000  Uiso   1.00
C731   C     0.85647   0.31924   0.74890   0.00000  Uiso   1.00
C732   C     0.81026   0.01414   0.75217   0.00000  Uiso   1.00
C733   C     0.83468   0.16673   0.83638   0.00000  Uiso   1.00
C734   C     0.83202   0.16607   0.66365   0.00000  Uiso   1.00
C735   C     0.81281   0.12162   0.59335   0.00000  Uiso   1.00
C736   C     0.86896   0.20203   0.90618   0.00000  Uiso   1.00
C737   C     0.83026   0.16718   0.61591   0.00000  Uiso   1.00
C738   C     0.83804   0.16261   0.88390   0.00000  Uiso   1.00
C739   C     0.85347   0.21090   0.59328   0.00000  Uiso   1.00
C740   C     0.81418   0.11847   0.90594   0.00000  Uiso   1.00
C741   C     0.86573   0.20664   0.54646   0.00000  Uiso   1.00
C742   C     0.82155   0.11436   0.95254   0.00000  Uiso   1.00
C743   C     0.84332   0.16139   0.52310   0.00000  Uiso   1.00
C744   C     0.84574   0.15880   0.97600   0.00000  Uiso   1.00
C745   C     0.81750   0.11898   0.54684   0.00000  Uiso   1.00
C746   C     0.87147   0.20128   0.95236   0.00000  Uiso   1.00
C747   C     0.89950   0.24485   0.52186   0.00000  Uiso   1.00
C748   C     0.80488   0.06899   0.97722   0.00000  Uiso   1.00
H749   H     0.79599   0.08818   0.61224   0.00000  Uiso   1.00
H750   H     0.88859   0.23465   0.88759   0.00000  Uiso   1.00
H751   H     0.92342   0.27267   0.95579   0.00000  Uiso   1.00
H752   H     0.78504   0.03936   0.54332   0.00000  Uiso   1.00
H753   H     0.90027   0.00255   0.74565   0.00000  Uiso   1.00
H754   H     0.76646   0.33083   0.75544   0.00000  Uiso   1.00
H755   H     0.67096   0.12747   0.71582   0.00000  Uiso   1.00
H756   H     0.99570   0.20585   0.78419   0.00000  Uiso   1.00
N757   N     0.98344   0.15265   0.73783   0.00000  Uiso   1.00
N758   N     0.68322   0.18068   0.76217   0.00000  Uiso   1.00
O759   O     0.79642   0.24619   0.75299   0.00000  Uiso   1.00
O760   O     0.87025   0.08714   0.74702   0.00000  Uiso   1.00
O761   O     0.89280   0.23721   0.74519   0.00000  Uiso   1.00
O762   O     0.77387   0.09613   0.75482   0.00000  Uiso   1.00
O763   O     0.78514   0.17117   0.81998   0.00000  Uiso   1.00
O764   O     0.88153   0.16216   0.68003   0.00000  Uiso   1.00
O765   O     0.88152   0.16219   0.81218   0.00000  Uiso   1.00
O766   O     0.78515   0.17115   0.68783   0.00000  Uiso   1.00
Zn767  Zn    0.76898   0.17266   0.75521   0.00000  Uiso   1.00
Zn768  Zn    0.89769   0.16067   0.74479   0.00000  Uiso   1.00
C769   C     0.85698   0.26037   0.61813   0.00000  Uiso   1.00
N770   N     0.85933   0.29961   0.63824   0.00000  Uiso   1.00
C771   C     0.77873   0.08118   0.88057   0.00000  Uiso   1.00
N772   N     0.75064   0.05196   0.85971   0.00000  Uiso   1.00
C773   C     0.94225   0.28357   0.54290   0.00000  Uiso   1.00
C774   C     0.92353   0.00633   0.54086   0.00000  Uiso   1.00
C775   C     0.96310   0.04457   0.56642   0.00000  Uiso   1.00
H776   H     0.96259   0.03457   0.60253   0.00000  Uiso   1.00
H777   H     0.67435   0.04389   0.55168   0.00000  Uiso   1.00
H778   H     0.94810   0.08459   0.56413   0.00000  Uiso   1.00
H779   H     0.92372   0.01816   0.50520   0.00000  Uiso   1.00
H780   H     0.87930   0.00865   0.55590   0.00000  Uiso   1.00
H781   H     0.95142   0.27363   0.57768   0.00000  Uiso   1.00
H782   H     0.98404   0.28001   0.52421   0.00000  Uiso   1.00
C783   C     0.80103   0.01434   0.95657   0.00000  Uiso   1.00
C784   C     0.73899   0.32532   0.95678   0.00000  Uiso   1.00
C785   C     0.73559   0.27030   0.93602   0.00000  Uiso   1.00
H786   H     0.75456   0.27010   0.90095   0.00000  Uiso   1.00
H787   H     0.75881   0.24369   0.95644   0.00000  Uiso   1.00
H788   H     0.69010   0.25566   0.93530   0.00000  Uiso   1.00
H789   H     0.71177   0.01723   0.93835   0.00000  Uiso   1.00
H790   H     0.72185   0.32418   0.99208   0.00000  Uiso   1.00
H791   H     0.82237   0.01209   0.92243   0.00000  Uiso   1.00
H792   H     0.82581   0.32233   0.97700   0.00000  Uiso   1.00
C793   C     0.18177   0.59816   0.74917   0.00000  Uiso   1.00
C794   C     0.15159   0.40185   0.75121   0.00000  Uiso   1.00
C795   C     0.23331   0.57576   0.97492   0.00000  Uiso   1.00
C796   C     0.13338   0.40645   0.52417   0.00000  Uiso   1.00
C797   C     0.18981   0.65257   0.74890   0.00000  Uiso   1.00
C798   C     0.14359   0.34747   0.75217   0.00000  Uiso   1.00
C799   C     0.16801   0.50007   0.83638   0.00000  Uiso   1.00
C800   C     0.16536   0.49941   0.66365   0.00000  Uiso   1.00
C801   C     0.14614   0.45495   0.59335   0.00000  Uiso   1.00
C802   C     0.20229   0.53537   0.90618   0.00000  Uiso   1.00
C803   C     0.16359   0.50052   0.61591   0.00000  Uiso   1.00
C804   C     0.17137   0.49594   0.88390   0.00000  Uiso   1.00
C805   C     0.18680   0.54423   0.59328   0.00000  Uiso   1.00
C806   C     0.14752   0.45180   0.90594   0.00000  Uiso   1.00
C807   C     0.19906   0.53998   0.54646   0.00000  Uiso   1.00
C808   C     0.15488   0.44769   0.95254   0.00000  Uiso   1.00
C809   C     0.17665   0.49473   0.52310   0.00000  Uiso   1.00
C810   C     0.17907   0.49213   0.97600   0.00000  Uiso   1.00
C811   C     0.15083   0.45231   0.54684   0.00000  Uiso   1.00
C812   C     0.20481   0.53462   0.95236   0.00000  Uiso   1.00
C813   C     0.23283   0.57819   0.52186   0.00000  Uiso   1.00
C814   C     0.13822   0.40232   0.97722   0.00000  Uiso   1.00
H815   H     0.12932   0.42151   0.61224   0.00000  Uiso   1.00
H816   H     0.22192   0.56799   0.88759   0.00000  Uiso   1.00
H817   H     0.25675   0.60600   0.95579   0.00000  Uiso   1.00
H818   H     0.11838   0.37269   0.54332   0.00000  Uiso   1.00
H819   H     0.23360   0.33588   0.74565   0.00000  Uiso   1.00
H820   H     0.09979   0.66416   0.75544   0.00000  Uiso   1.00
H821   H     0.00430   0.46080   0.71582   0.00000  Uiso   1.00
H822   H     0.32903   0.53919   0.78419   0.00000  Uiso   1.00
N823   N     0.31678   0.48598   0.73783   0.00000  Uiso   1.00
N824   N     0.01656   0.51402   0.76217   0.00000  Uiso   1.00
O825   O     0.12975   0.57952   0.75299   0.00000  Uiso   1.00
O826   O     0.20358   0.42048   0.74702   0.00000  Uiso   1.00
O827   O     0.22613   0.57054   0.74519   0.00000  Uiso   1.00
O828   O     0.10720   0.42946   0.75482   0.00000  Uiso   1.00
O829   O     0.11847   0.50450   0.81998   0.00000  Uiso   1.00
O830   O     0.21486   0.49550   0.68003   0.00000  Uiso   1.00
O831   O     0.21485   0.49552   0.81218   0.00000  Uiso   1.00
O832   O     0.11848   0.50448   0.68783   0.00000  Uiso   1.00
Zn833  Zn    0.10231   0.50600   0.75521   0.00000  Uiso   1.00
Zn834  Zn    0.23102   0.49400   0.74479   0.00000  Uiso   1.00
C835   C     0.19031   0.59370   0.61813   0.00000  Uiso   1.00
N836   N     0.19266   0.63295   0.63824   0.00000  Uiso   1.00
C837   C     0.11207   0.41451   0.88057   0.00000  Uiso   1.00
N838   N     0.08397   0.38530   0.85971   0.00000  Uiso   1.00
C839   C     0.27559   0.61691   0.54290   0.00000  Uiso   1.00
C840   C     0.25686   0.33966   0.54086   0.00000  Uiso   1.00
C841   C     0.29643   0.37790   0.56642   0.00000  Uiso   1.00
H842   H     0.29593   0.36790   0.60253   0.00000  Uiso   1.00
H843   H     0.00768   0.37722   0.55168   0.00000  Uiso   1.00
H844   H     0.28144   0.41792   0.56413   0.00000  Uiso   1.00
H845   H     0.25705   0.35149   0.50520   0.00000  Uiso   1.00
H846   H     0.21263   0.34199   0.55590   0.00000  Uiso   1.00
H847   H     0.28475   0.60697   0.57768   0.00000  Uiso   1.00
H848   H     0.31737   0.61335   0.52421   0.00000  Uiso   1.00
C849   C     0.13436   0.34767   0.95657   0.00000  Uiso   1.00
C850   C     0.07232   0.65865   0.95678   0.00000  Uiso   1.00
C851   C     0.06893   0.60363   0.93602   0.00000  Uiso   1.00
H852   H     0.08789   0.60344   0.90095   0.00000  Uiso   1.00
H853   H     0.09214   0.57702   0.95644   0.00000  Uiso   1.00
H854   H     0.02343   0.58900   0.93530   0.00000  Uiso   1.00
H855   H     0.04510   0.35056   0.93835   0.00000  Uiso   1.00
H856   H     0.05519   0.65751   0.99208   0.00000  Uiso   1.00
H857   H     0.15570   0.34543   0.92243   0.00000  Uiso   1.00
H858   H     0.15914   0.65566   0.97700   0.00000  Uiso   1.00
C859   C     0.51510   0.59816   0.74917   0.00000  Uiso   1.00
C860   C     0.48492   0.40185   0.75121   0.00000  Uiso   1.00
C861   C     0.56664   0.57576   0.97492   0.00000  Uiso   1.00
C862   C     0.46671   0.40645   0.52417   0.00000  Uiso   1.00
C863   C     0.52314   0.65257   0.74890   0.00000  Uiso   1.00
C864   C     0.47692   0.34747   0.75217   0.00000  Uiso   1.00
C865   C     0.50135   0.50007   0.83638   0.00000  Uiso   1.00
C866   C     0.49869   0.49941   0.66365   0.00000  Uiso   1.00
C867   C     0.47947   0.45495   0.59335   0.00000  Uiso   1.00
C868   C     0.53563   0.53537   0.90618   0.00000  Uiso   1.00
C869   C     0.49693   0.50052   0.61591   0.00000  Uiso   1.00
C870   C     0.50471   0.49594   0.88390   0.00000  Uiso   1.00
C871   C     0.52013   0.54423   0.59328   0.00000  Uiso   1.00
C872   C     0.48085   0.45180   0.90594   0.00000  Uiso   1.00
C873   C     0.53240   0.53998   0.54646   0.00000  Uiso   1.00
C874   C     0.48821   0.44769   0.95254   0.00000  Uiso   1.00
C875   C     0.50999   0.49473   0.52310   0.00000  Uiso   1.00
C876   C     0.51240   0.49213   0.97600   0.00000  Uiso   1.00
C877   C     0.48416   0.45231   0.54684   0.00000  Uiso   1.00
C878   C     0.53814   0.53462   0.95236   0.00000  Uiso   1.00
C879   C     0.56617   0.57819   0.52186   0.00000  Uiso   1.00
C880   C     0.47155   0.40232   0.97722   0.00000  Uiso   1.00
H881   H     0.46265   0.42151   0.61224   0.00000  Uiso   1.00
H882   H     0.55525   0.56799   0.88759   0.00000  Uiso   1.00
H883   H     0.59008   0.60600   0.95579   0.00000  Uiso   1.00
H884   H     0.45171   0.37269   0.54332   0.00000  Uiso   1.00
H885   H     0.56694   0.33588   0.74565   0.00000  Uiso   1.00
H886   H     0.43313   0.66416   0.75544   0.00000  Uiso   1.00
H887   H     0.33763   0.46080   0.71582   0.00000  Uiso   1.00
H888   H     0.66237   0.53919   0.78419   0.00000  Uiso   1.00
N889   N     0.65011   0.48598   0.73783   0.00000  Uiso   1.00
N890   N     0.34989   0.51402   0.76217   0.00000  Uiso   1.00
O891   O     0.46308   0.57952   0.75299   0.00000  Uiso   1.00
O892   O     0.53692   0.42048   0.74702   0.00000  Uiso   1.00
O893   O     0.55946   0.57054   0.74519   0.00000  Uiso   1.00
O894   O     0.44054   0.42946   0.75482   0.00000  Uiso   1.00
O895   O     0.45181   0.50450   0.81998   0.00000  Uiso   1.00
O896   O     0.54819   0.49550   0.68003   0.00000  Uiso   1.00
O897   O     0.54819   0.49552   0.81218   0.00000  Uiso   1.00
O898   O     0.45181   0.50448   0.68783   0.00000  Uiso   1.00
Zn899  Zn    0.43565   0.50600   0.75521   0.00000  Uiso   1.00
Zn900  Zn    0.56435   0.49400   0.74479   0.00000  Uiso   1.00
C901   C     0.52365   0.59370   0.61813   0.00000  Uiso   1.00
N902   N     0.52600   0.63295   0.63824   0.00000  Uiso   1.00
C903   C     0.44540   0.41451   0.88057   0.00000  Uiso   1.00
N904   N     0.41730   0.38530   0.85971   0.00000  Uiso   1.00
C905   C     0.60892   0.61691   0.54290   0.00000  Uiso   1.00
C906   C     0.59020   0.33966   0.54086   0.00000  Uiso   1.00
C907   C     0.62976   0.37790   0.56642   0.00000  Uiso   1.00
H908   H     0.62926   0.36790   0.60253   0.00000  Uiso   1.00
H909   H     0.34102   0.37722   0.55168   0.00000  Uiso   1.00
H910   H     0.61477   0.41792   0.56413   0.00000  Uiso   1.00
H911   H     0.59038   0.35149   0.50520   0.00000  Uiso   1.00
H912   H     0.54597   0.34199   0.55590   0.00000  Uiso   1.00
H913   H     0.61808   0.60697   0.57768   0.00000  Uiso   1.00
H914   H     0.65071   0.61335   0.52421   0.00000  Uiso   1.00
C915   C     0.46770   0.34767   0.95657   0.00000  Uiso   1.00
C916   C     0.40565   0.65865   0.95678   0.00000  Uiso   1.00
C917   C     0.40226   0.60363   0.93602   0.00000  Uiso   1.00
H918   H     0.42122   0.60344   0.90095   0.00000  Uiso   1.00
H919   H     0.42547   0.57702   0.95644   0.00000  Uiso   1.00
H920   H     0.35677   0.58900   0.93530   0.00000  Uiso   1.00
H921   H     0.37843   0.35056   0.93835   0.00000  Uiso   1.00
H922   H     0.38852   0.65751   0.99208   0.00000  Uiso   1.00
H923   H     0.48904   0.34543   0.92243   0.00000  Uiso   1.00
H924   H     0.49248   0.65566   0.97700   0.00000  Uiso   1.00
C925   C     0.84843   0.59816   0.74917   0.00000  Uiso   1.00
C926   C     0.81826   0.40185   0.75121   0.00000  Uiso   1.00
C927   C     0.89997   0.57576   0.97492   0.00000  Uiso   1.00
C928   C     0.80004   0.40645   0.52417   0.00000  Uiso   1.00
C929   C     0.85647   0.65257   0.74890   0.00000  Uiso   1.00
C930   C     0.81026   0.34747   0.75217   0.00000  Uiso   1.00
C931   C     0.83468   0.50007   0.83638   0.00000  Uiso   1.00
C932   C     0.83202   0.49941   0.66365   0.00000  Uiso   1.00
C933   C     0.81281   0.45495   0.59335   0.00000  Uiso   1.00
C934   C     0.86896   0.53537   0.90618   0.00000  Uiso   1.00
C935   C     0.83026   0.50052   0.61591   0.00000  Uiso   1.00
C936   C     0.83804   0.49594   0.88390   0.00000  Uiso   1.00
C937   C     0.85347   0.54423   0.59328   0.00000  Uiso   1.00
C938   C     0.81418   0.45180   0.90594   0.00000  Uiso   1.00
C939   C     0.86573   0.53998   0.54646   0.00000  Uiso   1.00
C940   C     0.82155   0.44769   0.95254   0.00000  Uiso   1.00
C941   C     0.84332   0.49473   0.52310   0.00000  Uiso   1.00
C942   C     0.84574   0.49213   0.97600   0.00000  Uiso   1.00
C943   C     0.81750   0.45231   0.54684   0.00000  Uiso   1.00
C944   C     0.87147   0.53462   0.95236   0.00000  Uiso   1.00
C945   C     0.89950   0.57819   0.52186   0.00000  Uiso   1.00
C946   C     0.80488   0.40232   0.97722   0.00000  Uiso   1.00
H947   H     0.79599   0.42151   0.61224   0.00000  Uiso   1.00
H948   H     0.88859   0.56799   0.88759   0.00000  Uiso   1.00
H949   H     0.92342   0.60600   0.95579   0.00000  Uiso   1.00
H950   H     0.78504   0.37269   0.54332   0.00000  Uiso   1.00
H951   H     0.90027   0.33588   0.74565   0.00000  Uiso   1.00
H952   H     0.76646   0.66416   0.75544   0.00000  Uiso   1.00
H953   H     0.67096   0.46080   0.71582   0.00000  Uiso   1.00
H954   H     0.99570   0.53919   0.78419   0.00000  Uiso   1.00
N955   N     0.98344   0.48598   0.73783   0.00000  Uiso   1.00
N956   N     0.68322   0.51402   0.76217   0.00000  Uiso   1.00
O957   O     0.79642   0.57952   0.75299   0.00000  Uiso   1.00
O958   O     0.87025   0.42048   0.74702   0.00000  Uiso   1.00
O959   O     0.89280   0.57054   0.74519   0.00000  Uiso   1.00
O960   O     0.77387   0.42946   0.75482   0.00000  Uiso   1.00
O961   O     0.78514   0.50450   0.81998   0.00000  Uiso   1.00
O962   O     0.88153   0.49550   0.68003   0.00000  Uiso   1.00
O963   O     0.88152   0.49552   0.81218   0.00000  Uiso   1.00
O964   O     0.78515   0.50448   0.68783   0.00000  Uiso   1.00
Zn965  Zn    0.76898   0.50600   0.75521   0.00000  Uiso   1.00
Zn966  Zn    0.89769   0.49400   0.74479   0.00000  Uiso   1.00
C967   C     0.85698   0.59370   0.61813   0.00000  Uiso   1.00
N968   N     0.85933   0.63295   0.63824   0.00000  Uiso   1.00
C969   C     0.77873   0.41451   0.88057   0.00000  Uiso   1.00
N970   N     0.75064   0.38530   0.85971   0.00000  Uiso   1.00
C971   C     0.94225   0.61691   0.54290   0.00000  Uiso   1.00
C972   C     0.92353   0.33966   0.54086   0.00000  Uiso   1.00
C973   C     0.96310   0.37790   0.56642   0.00000  Uiso   1.00
H974   H     0.96259   0.36790   0.60253   0.00000  Uiso   1.00
H975   H     0.67435   0.37722   0.55168   0.00000  Uiso   1.00
H976   H     0.94810   0.41792   0.56413   0.00000  Uiso   1.00
H977   H     0.92372   0.35149   0.50520   0.00000  Uiso   1.00
H978   H     0.87930   0.34199   0.55590   0.00000  Uiso   1.00
H979   H     0.95142   0.60697   0.57768   0.00000  Uiso   1.00
H980   H     0.98404   0.61335   0.52421   0.00000  Uiso   1.00
C981   C     0.80103   0.34767   0.95657   0.00000  Uiso   1.00
C982   C     0.73899   0.65865   0.95678   0.00000  Uiso   1.00
C983   C     0.73559   0.60363   0.93602   0.00000  Uiso   1.00
H984   H     0.75456   0.60344   0.90095   0.00000  Uiso   1.00
H985   H     0.75881   0.57702   0.95644   0.00000  Uiso   1.00
H986   H     0.69010   0.58900   0.93530   0.00000  Uiso   1.00
H987   H     0.71177   0.35056   0.93835   0.00000  Uiso   1.00
H988   H     0.72185   0.65751   0.99208   0.00000  Uiso   1.00
H989   H     0.82237   0.34543   0.92243   0.00000  Uiso   1.00
H990   H     0.82581   0.65566   0.97700   0.00000  Uiso   1.00
C991   C     0.18177   0.93150   0.74917   0.00000  Uiso   1.00
C992   C     0.15159   0.73518   0.75121   0.00000  Uiso   1.00
C993   C     0.23331   0.90909   0.97492   0.00000  Uiso   1.00
C994   C     0.13338   0.73978   0.52417   0.00000  Uiso   1.00
C995   C     0.18981   0.98590   0.74890   0.00000  Uiso   1.00
C996   C     0.14359   0.68081   0.75217   0.00000  Uiso   1.00
C997   C     0.16801   0.83340   0.83638   0.00000  Uiso   1.00
C998   C     0.16536   0.83274   0.66365   0.00000  Uiso   1.00
C999   C     0.14614   0.78829   0.59335   0.00000  Uiso   1.00
C1000  C     0.20229   0.86870   0.90618   0.00000  Uiso   1.00
C1001  C     0.16359   0.83385   0.61591   0.00000  Uiso   1.00
C1002  C     0.17137   0.82928   0.88390   0.00000  Uiso   1.00
C1003  C     0.18680   0.87757   0.59328   0.00000  Uiso   1.00
C1004  C     0.14752   0.78513   0.90594   0.00000  Uiso   1.00
C1005  C     0.19906   0.87331   0.54646   0.00000  Uiso   1.00
C1006  C     0.15488   0.78102   0.95254   0.00000  Uiso   1.00
C1007  C     0.17665   0.82806   0.52310   0.00000  Uiso   1.00
C1008  C     0.17907   0.82546   0.97600   0.00000  Uiso   1.00
C1009  C     0.15083   0.78564   0.54684   0.00000  Uiso   1.00
C1010  C     0.20481   0.86795   0.95236   0.00000  Uiso   1.00
C1011  C     0.23283   0.91152   0.52186   0.00000  Uiso   1.00
C1012  C     0.13822   0.73565   0.97722   0.00000  Uiso   1.00
H1013  H     0.12932   0.75484   0.61224   0.00000  Uiso   1.00
H1014  H     0.22192   0.90132   0.88759   0.00000  Uiso   1.00
H1015  H     0.25675   0.93933   0.95579   0.00000  Uiso   1.00
H1016  H     0.11838   0.70603   0.54332   0.00000  Uiso   1.00
H1017  H     0.23360   0.66922   0.74565   0.00000  Uiso   1.00
H1018  H     0.09979   0.99749   0.75544   0.00000  Uiso   1.00
H1019  H     0.00430   0.79414   0.71582   0.00000  Uiso   1.00
H1020  H     0.32903   0.87252   0.78419   0.00000  Uiso   1.00
N1021  N     0.31678   0.81932   0.73783   0.00000  Uiso   1.00
N1022  N     0.01656   0.84735   0.76217   0.00000  Uiso   1.00
O1023  O     0.12975   0.91286   0.75299   0.00000  Uiso   1.00
O1024  O     0.20358   0.75381   0.74702   0.00000  Uiso   1.00
O1025  O     0.22613   0.90387   0.74519   0.00000  Uiso   1.00
O1026  O     0.10720   0.76279   0.75482   0.00000  Uiso   1.00
O1027  O     0.11847   0.83784   0.81998   0.00000  Uiso   1.00
O1028  O     0.21486   0.82883   0.68003   0.00000  Uiso   1.00
O1029  O     0.21485   0.82885   0.81218   0.00000  Uiso   1.00
O1030  O     0.11848   0.83781   0.68783   0.00000  Uiso   1.00
Zn1031 Zn    0.10231   0.83933   0.75521   0.00000  Uiso   1.00
Zn1032 Zn    0.23102   0.82734   0.74479   0.00000  Uiso   1.00
C1033  C     0.19031   0.92704   0.61813   0.00000  Uiso   1.00
N1034  N     0.19266   0.96628   0.63824   0.00000  Uiso   1.00
C1035  C     0.11207   0.74785   0.88057   0.00000  Uiso   1.00
N1036  N     0.08397   0.71863   0.85971   0.00000  Uiso   1.00
C1037  C     0.27559   0.95024   0.54290   0.00000  Uiso   1.00
C1038  C     0.25686   0.67299   0.54086   0.00000  Uiso   1.00
C1039  C     0.29643   0.71124   0.56642   0.00000  Uiso   1.00
H1040  H     0.29593   0.70123   0.60253   0.00000  Uiso   1.00
H1041  H     0.00768   0.71056   0.55168   0.00000  Uiso   1.00
H1042  H     0.28144   0.75126   0.56413   0.00000  Uiso   1.00
H1043  H     0.25705   0.68482   0.50520   0.00000  Uiso   1.00
H1044  H     0.21263   0.67532   0.55590   0.00000  Uiso   1.00
H1045  H     0.28475   0.94030   0.57768   0.00000  Uiso   1.00
H1046  H     0.31737   0.94668   0.52421   0.00000  Uiso   1.00
C1047  C     0.13436   0.68100   0.95657   0.00000  Uiso   1.00
C1048  C     0.07232   0.99199   0.95678   0.00000  Uiso   1.00
C1049  C     0.06893   0.93696   0.93602   0.00000  Uiso   1.00
H1050  H     0.08789   0.93677   0.90095   0.00000  Uiso   1.00
H1051  H     0.09214   0.91035   0.95644   0.00000  Uiso   1.00
H1052  H     0.02343   0.92233   0.93530   0.00000  Uiso   1.00
H1053  H     0.04510   0.68389   0.93835   0.00000  Uiso   1.00
H1054  H     0.05519   0.99084   0.99208   0.00000  Uiso   1.00
H1055  H     0.15570   0.67876   0.92243   0.00000  Uiso   1.00
H1056  H     0.15914   0.98899   0.97700   0.00000  Uiso   1.00
C1057  C     0.51510   0.93150   0.74917   0.00000  Uiso   1.00
C1058  C     0.48492   0.73518   0.75121   0.00000  Uiso   1.00
C1059  C     0.56664   0.90909   0.97492   0.00000  Uiso   1.00
C1060  C     0.46671   0.73978   0.52417   0.00000  Uiso   1.00
C1061  C     0.52314   0.98590   0.74890   0.00000  Uiso   1.00
C1062  C     0.47692   0.68081   0.75217   0.00000  Uiso   1.00
C1063  C     0.50135   0.83340   0.83638   0.00000  Uiso   1.00
C1064  C     0.49869   0.83274   0.66365   0.00000  Uiso   1.00
C1065  C     0.47947   0.78829   0.59335   0.00000  Uiso   1.00
C1066  C     0.53563   0.86870   0.90618   0.00000  Uiso   1.00
C1067  C     0.49693   0.83385   0.61591   0.00000  Uiso   1.00
C1068  C     0.50471   0.82928   0.88390   0.00000  Uiso   1.00
C1069  C     0.52013   0.87757   0.59328   0.00000  Uiso   1.00
C1070  C     0.48085   0.78513   0.90594   0.00000  Uiso   1.00
C1071  C     0.53240   0.87331   0.54646   0.00000  Uiso   1.00
C1072  C     0.48821   0.78102   0.95254   0.00000  Uiso   1.00
C1073  C     0.50999   0.82806   0.52310   0.00000  Uiso   1.00
C1074  C     0.51240   0.82546   0.97600   0.00000  Uiso   1.00
C1075  C     0.48416   0.78564   0.54684   0.00000  Uiso   1.00
C1076  C     0.53814   0.86795   0.95236   0.00000  Uiso   1.00
C1077  C     0.56617   0.91152   0.52186   0.00000  Uiso   1.00
C1078  C     0.47155   0.73565   0.97722   0.00000  Uiso   1.00
H1079  H     0.46265   0.75484   0.61224   0.00000  Uiso   1.00
H1080  H     0.55525   0.90132   0.88759   0.00000  Uiso   1.00
H1081  H     0.59008   0.93933   0.95579   0.00000  Uiso   1.00
H1082  H     0.45171   0.70603   0.54332   0.00000  Uiso   1.00
H1083  H     0.56694   0.66922   0.74565   0.00000  Uiso   1.00
H1084  H     0.43313   0.99749   0.75544   0.00000  Uiso   1.00
H1085  H     0.33763   0.79414   0.71582   0.00000  Uiso   1.00
H1086  H     0.66237   0.87252   0.78419   0.00000  Uiso   1.00
N1087  N     0.65011   0.81932   0.73783   0.00000  Uiso   1.00
N1088  N     0.34989   0.84735   0.76217   0.00000  Uiso   1.00
O1089  O     0.46308   0.91286   0.75299   0.00000  Uiso   1.00
O1090  O     0.53692   0.75381   0.74702   0.00000  Uiso   1.00
O1091  O     0.55946   0.90387   0.74519   0.00000  Uiso   1.00
O1092  O     0.44054   0.76279   0.75482   0.00000  Uiso   1.00
O1093  O     0.45181   0.83784   0.81998   0.00000  Uiso   1.00
O1094  O     0.54819   0.82883   0.68003   0.00000  Uiso   1.00
O1095  O     0.54819   0.82885   0.81218   0.00000  Uiso   1.00
O1096  O     0.45181   0.83781   0.68783   0.00000  Uiso   1.00
Zn1097 Zn    0.43565   0.83933   0.75521   0.00000  Uiso   1.00
Zn1098 Zn    0.56435   0.82734   0.74479   0.00000  Uiso   1.00
C1099  C     0.52365   0.92704   0.61813   0.00000  Uiso   1.00
N1100  N     0.52600   0.96628   0.63824   0.00000  Uiso   1.00
C1101  C     0.44540   0.74785   0.88057   0.00000  Uiso   1.00
N1102  N     0.41730   0.71863   0.85971   0.00000  Uiso   1.00
C1103  C     0.60892   0.95024   0.54290   0.00000  Uiso   1.00
C1104  C     0.59020   0.67299   0.54086   0.00000  Uiso   1.00
C1105  C     0.62976   0.71124   0.56642   0.00000  Uiso   1.00
H1106  H     0.62926   0.70123   0.60253   0.00000  Uiso   1.00
H1107  H     0.34102   0.71056   0.55168   0.00000  Uiso   1.00
H1108  H     0.61477   0.75126   0.56413   0.00000  Uiso   1.00
H1109  H     0.59038   0.68482   0.50520   0.00000  Uiso   1.00
H1110  H     0.54597   0.67532   0.55590   0.00000  Uiso   1.00
H1111  H     0.61808   0.94030   0.57768   0.00000  Uiso   1.00
H1112  H     0.65071   0.94668   0.52421   0.00000  Uiso   1.00
C1113  C     0.46770   0.68100   0.95657   0.00000  Uiso   1.00
C1114  C     0.40565   0.99199   0.95678   0.00000  Uiso   1.00
C1115  C     0.40226   0.93696   0.93602   0.00000  Uiso   1.00
H1116  H     0.42122   0.93677   0.90095   0.00000  Uiso   1.00
H1117  H     0.42547   0.91035   0.95644   0.00000  Uiso   1.00
H1118  H     0.35677   0.92233   0.93530   0.00000  Uiso   1.00
H1119  H     0.37843   0.68389   0.93835   0.00000  Uiso   1.00
H1120  H     0.38852   0.99084   0.99208   0.00000  Uiso   1.00
H1121  H     0.48904   0.67876   0.92243   0.00000  Uiso   1.00
H1122  H     0.49248   0.98899   0.97700   0.00000  Uiso   1.00
C1123  C     0.84843   0.93150   0.74917   0.00000  Uiso   1.00
C1124  C     0.81826   0.73518   0.75121   0.00000  Uiso   1.00
C1125  C     0.89997   0.90909   0.97492   0.00000  Uiso   1.00
C1126  C     0.80004   0.73978   0.52417   0.00000  Uiso   1.00
C1127  C     0.85647   0.98590   0.74890   0.00000  Uiso   1.00
C1128  C     0.81026   0.68081   0.75217   0.00000  Uiso   1.00
C1129  C     0.83468   0.83340   0.83638   0.00000  Uiso   1.00
C1130  C     0.83202   0.83274   0.66365   0.00000  Uiso   1.00
C1131  C     0.81281   0.78829   0.59335   0.00000  Uiso   1.00
C1132  C     0.86896   0.86870   0.90618   0.00000  Uiso   1.00
C1133  C     0.83026   0.83385   0.61591   0.00000  Uiso   1.00
C1134  C     0.83804   0.82928   0.88390   0.00000  Uiso   1.00
C1135  C     0.85347   0.87757   0.59328   0.00000  Uiso   1.00
C1136  C     0.81418   0.78513   0.90594   0.00000  Uiso   1.00
C1137  C     0.86573   0.87331   0.54646   0.00000  Uiso   1.00
C1138  C     0.82155   0.78102   0.95254   0.00000  Uiso   1.00
C1139  C     0.84332   0.82806   0.52310   0.00000  Uiso   1.00
C1140  C     0.84574   0.82546   0.97600   0.00000  Uiso   1.00
C1141  C     0.81750   0.78564   0.54684   0.00000  Uiso   1.00
C1142  C     0.87147   0.86795   0.95236   0.00000  Uiso   1.00
C1143  C     0.89950   0.91152   0.52186   0.00000  Uiso   1.00
C1144  C     0.80488   0.73565   0.97722   0.00000  Uiso   1.00
H1145  H     0.79599   0.75484   0.61224   0.00000  Uiso   1.00
H1146  H     0.88859   0.90132   0.88759   0.00000  Uiso   1.00
H1147  H     0.92342   0.93933   0.95579   0.00000  Uiso   1.00
H1148  H     0.78504   0.70603   0.54332   0.00000  Uiso   1.00
H1149  H     0.90027   0.66922   0.74565   0.00000  Uiso   1.00
H1150  H     0.76646   0.99749   0.75544   0.00000  Uiso   1.00
H1151  H     0.67096   0.79414   0.71582   0.00000  Uiso   1.00
H1152  H     0.99570   0.87252   0.78419   0.00000  Uiso   1.00
N1153  N     0.98344   0.81932   0.73783   0.00000  Uiso   1.00
N1154  N     0.68322   0.84735   0.76217   0.00000  Uiso   1.00
O1155  O     0.79642   0.91286   0.75299   0.00000  Uiso   1.00
O1156  O     0.87025   0.75381   0.74702   0.00000  Uiso   1.00
O1157  O     0.89280   0.90387   0.74519   0.00000  Uiso   1.00
O1158  O     0.77387   0.76279   0.75482   0.00000  Uiso   1.00
O1159  O     0.78514   0.83784   0.81998   0.00000  Uiso   1.00
O1160  O     0.88153   0.82883   0.68003   0.00000  Uiso   1.00
O1161  O     0.88152   0.82885   0.81218   0.00000  Uiso   1.00
O1162  O     0.78515   0.83781   0.68783   0.00000  Uiso   1.00
Zn1163 Zn    0.76898   0.83933   0.75521   0.00000  Uiso   1.00
Zn1164 Zn    0.89769   0.82734   0.74479   0.00000  Uiso   1.00
C1165  C     0.85698   0.92704   0.61813   0.00000  Uiso   1.00
N1166  N     0.85933   0.96628   0.63824   0.00000  Uiso   1.00
C1167  C     0.77873   0.74785   0.88057   0.00000  Uiso   1.00
N1168  N     0.75064   0.71863   0.85971   0.00000  Uiso   1.00
C1169  C     0.94225   0.95024   0.54290   0.00000  Uiso   1.00
C1170  C     0.92353   0.67299   0.54086   0.00000  Uiso   1.00
C1171  C     0.96310   0.71124   0.56642   0.00000  Uiso   1.00
H1172  H     0.96259   0.70123   0.60253   0.00000  Uiso   1.00
H1173  H     0.67435   0.71056   0.55168   0.00000  Uiso   1.00
H1174  H     0.94810   0.75126   0.56413   0.00000  Uiso   1.00
H1175  H     0.92372   0.68482   0.50520   0.00000  Uiso   1.00
H1176  H     0.87930   0.67532   0.55590   0.00000  Uiso   1.00
H1177  H     0.95142   0.94030   0.57768   0.00000  Uiso   1.00
H1178  H     0.98404   0.94668   0.52421   0.00000  Uiso   1.00
C1179  C     0.80103   0.68100   0.95657   0.00000  Uiso   1.00
C1180  C     0.73899   0.99199   0.95678   0.00000  Uiso   1.00
C1181  C     0.73559   0.93696   0.93602   0.00000  Uiso   1.00
H1182  H     0.75456   0.93677   0.90095   0.00000  Uiso   1.00
H1183  H     0.75881   0.91035   0.95644   0.00000  Uiso   1.00
H1184  H     0.69010   0.92233   0.93530   0.00000  Uiso   1.00
H1185  H     0.71177   0.68389   0.93835   0.00000  Uiso   1.00
H1186  H     0.72185   0.99084   0.99208   0.00000  Uiso   1.00
H1187  H     0.82237   0.67876   0.92243   0.00000  Uiso   1.00
H1188  H     0.82581   0.98899   0.97700   0.00000  Uiso   1.00
loop_
_geom_bond_atom_site_label_1
_geom_bond_atom_site_label_2
_geom_bond_distance
_geom_bond_site_symmetry_2
_ccdc_geom_bond_type
C1     O33     1.282   .     A
C1     C5      1.402   .     S
C1     O35     1.287   .     A
C2     O34     1.282   .     A
C2     C6      1.402   .     S
C2     O36     1.287   .     A
C3     C20     1.392   .     A
C3     H25     1.085   .     S
C3     C615    1.394   .     S
C4     H26     1.085   .     S
C4     C19     1.393   .     A
C4     C616    1.395   1_554 S
C5     C204    1.331   .     S
C5     H225    1.088   .     S
C6     C401    1.331   1_545 S
C6     H424    1.088   1_545 S
C7     O37     1.291   .     A
C7     C12     1.426   .     S
C7     O39     1.286   .     A
C8     C11     1.423   .     S
C8     O38     1.288   .     A
C8     O40     1.288   .     A
C9     C11     1.385   .     A
C9     H23     1.086   .     S
C9     C19     1.381   .     A
C10    C12     1.385   .     A
C10    H24     1.086   .     S
C10    C20     1.378   .     A
C11    C13     1.398   .     A
C12    C14     1.403   .     A
C13    C43     1.452   .     S
C13    C15     1.408   .     A
C14    C45     1.452   .     S
C14    C16     1.413   .     A
C15    C21     1.422   .     A
C15    C17     1.426   .     A
C16    C18     1.426   .     A
C16    C22     1.423   .     A
C17    C19     1.409   .     A
C17    C612    1.398   1_554 S
C18    C20     1.408   .     A
C18    C611    1.398   .     S
C21    C47     1.516   .     S
C21    C597    1.394   1_554 S
C22    C57     1.517   .     S
C22    C598    1.395   .     S
H27    C401    1.088   1_545 S
H28    C204    1.088   .     S
H29    N163    1.029   1_455 S
H30    N98     1.029   .     S
N31    Zn42    2.024   .     S
N31    H95     1.029   .     S
N31    N98     1.268   .     S
N32    Zn41    2.024   .     S
N32    H162    1.029   1_455 S
N32    N163    1.268   1_455 S
O33    Zn41    1.966   .     S
O34    Zn42    1.966   .     S
O35    Zn42    1.978   .     S
O36    Zn41    1.978   .     S
O37    Zn41    1.983   .     S
O38    Zn42    1.983   .     S
O39    Zn42    2.018   .     S
O40    Zn41    2.018   .     S
C43    N44     1.158   .     T
C45    N46     1.158   .     T
C47    H55     1.107   .     S
C47    H56     1.104   .     S
C47    C246    1.535   .     S
C48    H54     1.108   .     S
C48    C49     1.526   .     S
C48    H53     1.111   .     S
C48    C443    1.535   1_545 S
C49    H52     1.111   .     S
C49    H50     1.111   .     S
C49    H117    1.109   .     S
H51    C181    1.109   1_455 S
C57    H65     1.108   .     S
C57    C454    1.529   1_545 S
C57    H462    1.110   1_545 S
C58    H64     1.104   .     S
C58    C59     1.527   .     S
C58    C255    1.529   .     S
C58    H261    1.109   .     S
C59    H60     1.111   .     S
C59    H61     1.110   .     S
C59    H62     1.109   .     S
H63    C454    1.109   1_545 S
H66    C255    1.110   .     S
C67    O99     1.282   .     A
C67    C71     1.402   .     S
C67    O101    1.287   .     A
C68    O100    1.282   .     A
C68    C72     1.402   .     S
C68    O102    1.287   .     A
C69    C86     1.392   .     A
C69    H91     1.085   .     S
C69    C681    1.394   .     S
C70    H92     1.085   .     S
C70    C85     1.393   .     A
C70    C682    1.395   1_554 S
C71    C270    1.331   .     S
C71    H291    1.088   .     S
C72    C467    1.331   1_545 S
C72    H490    1.088   1_545 S
C73    O103    1.291   .     A
C73    C78     1.426   .     S
C73    O105    1.286   .     A
C74    C77     1.423   .     S
C74    O104    1.288   .     A
C74    O106    1.288   .     A
C75    C77     1.385   .     A
C75    H89     1.086   .     S
C75    C85     1.381   .     A
C76    C78     1.385   .     A
C76    H90     1.086   .     S
C76    C86     1.378   .     A
C77    C79     1.398   .     A
C78    C80     1.403   .     A
C79    C109    1.452   .     S
C79    C81     1.408   .     A
C80    C111    1.452   .     S
C80    C82     1.413   .     A
C81    C87     1.422   .     A
C81    C83     1.426   .     A
C82    C84     1.426   .     A
C82    C88     1.423   .     A
C83    C85     1.409   .     A
C83    C678    1.398   1_554 S
C84    C86     1.408   .     A
C84    C677    1.398   .     S
C87    C113    1.516   .     S
C87    C663    1.394   1_554 S
C88    C123    1.517   .     S
C88    C664    1.395   .     S
H93    C467    1.088   1_545 S
H94    C270    1.088   .     S
H96    N164    1.029   .     S
N97    Zn108   2.024   .     S
N97    H161    1.029   .     S
N97    N164    1.268   .     S
N98    Zn107   2.024   .     S
O99    Zn107   1.966   .     S
O100   Zn108   1.966   .     S
O101   Zn108   1.978   .     S
O102   Zn107   1.978   .     S
O103   Zn107   1.983   .     S
O104   Zn108   1.983   .     S
O105   Zn108   2.018   .     S
O106   Zn107   2.018   .     S
C109   N110    1.158   .     T
C111   N112    1.158   .     T
C113   H121    1.107   .     S
C113   H122    1.104   .     S
C113   C312    1.535   .     S
C114   H120    1.108   .     S
C114   C115    1.526   .     S
C114   H119    1.111   .     S
C114   C509    1.535   1_545 S
C115   H118    1.111   .     S
C115   H116    1.111   .     S
C115   H183    1.109   .     S
C123   H131    1.108   .     S
C123   C520    1.529   1_545 S
C123   H528    1.110   1_545 S
C124   H130    1.104   .     S
C124   C125    1.527   .     S
C124   C321    1.529   .     S
C124   H327    1.109   .     S
C125   H126    1.111   .     S
C125   H127    1.110   .     S
C125   H128    1.109   .     S
H129   C520    1.109   1_545 S
H132   C321    1.110   .     S
C133   O165    1.282   .     A
C133   C137    1.402   .     S
C133   O167    1.287   .     A
C134   O166    1.282   .     A
C134   C138    1.402   .     S
C134   O168    1.287   .     A
C135   C152    1.392   .     A
C135   H157    1.085   .     S
C135   C747    1.394   .     S
C136   H158    1.085   .     S
C136   C151    1.393   .     A
C136   C748    1.395   1_554 S
C137   C336    1.331   .     S
C137   H357    1.088   .     S
C138   C533    1.331   1_545 S
C138   H556    1.088   1_545 S
C139   O169    1.291   .     A
C139   C144    1.426   .     S
C139   O171    1.286   .     A
C140   C143    1.423   .     S
C140   O170    1.288   .     A
C140   O172    1.288   .     A
C141   C143    1.385   .     A
C141   H155    1.086   .     S
C141   C151    1.381   .     A
C142   C144    1.385   .     A
C142   H156    1.086   .     S
C142   C152    1.378   .     A
C143   C145    1.398   .     A
C144   C146    1.403   .     A
C145   C175    1.452   .     S
C145   C147    1.408   .     A
C146   C177    1.452   .     S
C146   C148    1.413   .     A
C147   C153    1.422   .     A
C147   C149    1.426   .     A
C148   C150    1.426   .     A
C148   C154    1.423   .     A
C149   C151    1.409   .     A
C149   C744    1.398   1_554 S
C150   C152    1.408   .     A
C150   C743    1.398   .     S
C153   C179    1.516   .     S
C153   C729    1.394   1_554 S
C154   C189    1.517   .     S
C154   C730    1.395   .     S
H159   C533    1.088   1_545 S
H160   C336    1.088   .     S
H162   N32     1.029   1_655 S
N163   Zn174   2.024   .     S
N163   H29     1.029   1_655 S
N163   N32     1.268   1_655 S
N164   Zn173   2.024   .     S
O165   Zn173   1.966   .     S
O166   Zn174   1.966   .     S
O167   Zn174   1.978   .     S
O168   Zn173   1.978   .     S
O169   Zn173   1.983   .     S
O170   Zn174   1.983   .     S
O171   Zn174   2.018   .     S
O172   Zn173   2.018   .     S
C175   N176    1.158   .     T
C177   N178    1.158   .     T
C179   H187    1.107   .     S
C179   H188    1.104   .     S
C179   C378    1.535   .     S
C180   H186    1.108   .     S
C180   C181    1.526   .     S
C180   H185    1.111   .     S
C180   C575    1.535   1_545 S
C181   H184    1.111   .     S
C181   H182    1.111   .     S
C181   H51     1.109   1_655 S
C189   H197    1.108   .     S
C189   C586    1.529   1_545 S
C189   H594    1.110   1_545 S
C190   H196    1.104   .     S
C190   C191    1.527   .     S
C190   C387    1.529   .     S
C190   H393    1.109   .     S
C191   H192    1.111   .     S
C191   H193    1.110   .     S
C191   H194    1.109   .     S
H195   C586    1.109   1_545 S
H198   C387    1.110   .     S
C199   O231    1.282   .     A
C199   C203    1.402   .     S
C199   O233    1.287   .     A
C200   O232    1.282   .     A
C200   C204    1.402   .     S
C200   O234    1.287   .     A
C201   C218    1.392   .     A
C201   H223    1.085   .     S
C201   C813    1.394   .     S
C202   H224    1.085   .     S
C202   C217    1.393   .     A
C202   C814    1.395   1_554 S
C203   C402    1.331   .     S
C203   H423    1.088   .     S
C205   O235    1.291   .     A
C205   C210    1.426   .     S
C205   O237    1.286   .     A
C206   C209    1.423   .     S
C206   O236    1.288   .     A
C206   O238    1.288   .     A
C207   C209    1.385   .     A
C207   H221    1.086   .     S
C207   C217    1.381   .     A
C208   C210    1.385   .     A
C208   H222    1.086   .     S
C208   C218    1.378   .     A
C209   C211    1.398   .     A
C210   C212    1.403   .     A
C211   C241    1.452   .     S
C211   C213    1.408   .     A
C212   C243    1.452   .     S
C212   C214    1.413   .     A
C213   C219    1.422   .     A
C213   C215    1.426   .     A
C214   C216    1.426   .     A
C214   C220    1.423   .     A
C215   C217    1.409   .     A
C215   C810    1.398   1_554 S
C216   C218    1.408   .     A
C216   C809    1.398   .     S
C219   C245    1.516   .     S
C219   C795    1.394   1_554 S
C220   C255    1.517   .     S
C220   C796    1.395   .     S
H226   C402    1.088   .     S
H227   N361    1.029   1_455 S
H228   N296    1.029   .     S
N229   Zn240   2.024   .     S
N229   H293    1.029   .     S
N229   N296    1.268   .     S
N230   Zn239   2.024   .     S
N230   H360    1.029   1_455 S
N230   N361    1.268   1_455 S
O231   Zn239   1.966   .     S
O232   Zn240   1.966   .     S
O233   Zn240   1.978   .     S
O234   Zn239   1.978   .     S
O235   Zn239   1.983   .     S
O236   Zn240   1.983   .     S
O237   Zn240   2.018   .     S
O238   Zn239   2.018   .     S
C241   N242    1.158   .     T
C243   N244    1.158   .     T
C245   H253    1.107   .     S
C245   H254    1.104   .     S
C245   C444    1.535   .     S
C246   H252    1.108   .     S
C246   C247    1.526   .     S
C246   H251    1.111   .     S
C247   H250    1.111   .     S
C247   H248    1.111   .     S
C247   H315    1.109   .     S
H249   C379    1.109   1_455 S
C255   H263    1.108   .     S
C256   H262    1.104   .     S
C256   C257    1.527   .     S
C256   C453    1.529   .     S
C256   H459    1.109   .     S
C257   H258    1.111   .     S
C257   H259    1.110   .     S
C257   H260    1.109   .     S
H264   C453    1.110   .     S
C265   O297    1.282   .     A
C265   C269    1.402   .     S
C265   O299    1.287   .     A
C266   O298    1.282   .     A
C266   C270    1.402   .     S
C266   O300    1.287   .     A
C267   C284    1.392   .     A
C267   H289    1.085   .     S
C267   C879    1.394   .     S
C268   H290    1.085   .     S
C268   C283    1.393   .     A
C268   C880    1.395   1_554 S
C269   C468    1.331   .     S
C269   H489    1.088   .     S
C271   O301    1.291   .     A
C271   C276    1.426   .     S
C271   O303    1.286   .     A
C272   C275    1.423   .     S
C272   O302    1.288   .     A
C272   O304    1.288   .     A
C273   C275    1.385   .     A
C273   H287    1.086   .     S
C273   C283    1.381   .     A
C274   C276    1.385   .     A
C274   H288    1.086   .     S
C274   C284    1.378   .     A
C275   C277    1.398   .     A
C276   C278    1.403   .     A
C277   C307    1.452   .     S
C277   C279    1.408   .     A
C278   C309    1.452   .     S
C278   C280    1.413   .     A
C279   C285    1.422   .     A
C279   C281    1.426   .     A
C280   C282    1.426   .     A
C280   C286    1.423   .     A
C281   C283    1.409   .     A
C281   C876    1.398   1_554 S
C282   C284    1.408   .     A
C282   C875    1.398   .     S
C285   C311    1.516   .     S
C285   C861    1.394   1_554 S
C286   C321    1.517   .     S
C286   C862    1.395   .     S
H292   C468    1.088   .     S
H294   N362    1.029   .     S
N295   Zn306   2.024   .     S
N295   H359    1.029   .     S
N295   N362    1.268   .     S
N296   Zn305   2.024   .     S
O297   Zn305   1.966   .     S
O298   Zn306   1.966   .     S
O299   Zn306   1.978   .     S
O300   Zn305   1.978   .     S
O301   Zn305   1.983   .     S
O302   Zn306   1.983   .     S
O303   Zn306   2.018   .     S
O304   Zn305   2.018   .     S
C307   N308    1.158   .     T
C309   N310    1.158   .     T
C311   H319    1.107   .     S
C311   H320    1.104   .     S
C311   C510    1.535   .     S
C312   H318    1.108   .     S
C312   C313    1.526   .     S
C312   H317    1.111   .     S
C313   H316    1.111   .     S
C313   H314    1.111   .     S
C313   H381    1.109   .     S
C321   H329    1.108   .     S
C322   H328    1.104   .     S
C322   C323    1.527   .     S
C322   C519    1.529   .     S
C322   H525    1.109   .     S
C323   H324    1.111   .     S
C323   H325    1.110   .     S
C323   H326    1.109   .     S
H330   C519    1.110   .     S
C331   O363    1.282   .     A
C331   C335    1.402   .     S
C331   O365    1.287   .     A
C332   O364    1.282   .     A
C332   C336    1.402   .     S
C332   O366    1.287   .     A
C333   C350    1.392   .     A
C333   H355    1.085   .     S
C333   C945    1.394   .     S
C334   H356    1.085   .     S
C334   C349    1.393   .     A
C334   C946    1.395   1_554 S
C335   C534    1.331   .     S
C335   H555    1.088   .     S
C337   O367    1.291   .     A
C337   C342    1.426   .     S
C337   O369    1.286   .     A
C338   C341    1.423   .     S
C338   O368    1.288   .     A
C338   O370    1.288   .     A
C339   C341    1.385   .     A
C339   H353    1.086   .     S
C339   C349    1.381   .     A
C340   C342    1.385   .     A
C340   H354    1.086   .     S
C340   C350    1.378   .     A
C341   C343    1.398   .     A
C342   C344    1.403   .     A
C343   C373    1.452   .     S
C343   C345    1.408   .     A
C344   C375    1.452   .     S
C344   C346    1.413   .     A
C345   C351    1.422   .     A
C345   C347    1.426   .     A
C346   C348    1.426   .     A
C346   C352    1.423   .     A
C347   C349    1.409   .     A
C347   C942    1.398   1_554 S
C348   C350    1.408   .     A
C348   C941    1.398   .     S
C351   C377    1.516   .     S
C351   C927    1.394   1_554 S
C352   C387    1.517   .     S
C352   C928    1.395   .     S
H358   C534    1.088   .     S
H360   N230    1.029   1_655 S
N361   Zn372   2.024   .     S
N361   H227    1.029   1_655 S
N361   N230    1.268   1_655 S
N362   Zn371   2.024   .     S
O363   Zn371   1.966   .     S
O364   Zn372   1.966   .     S
O365   Zn372   1.978   .     S
O366   Zn371   1.978   .     S
O367   Zn371   1.983   .     S
O368   Zn372   1.983   .     S
O369   Zn372   2.018   .     S
O370   Zn371   2.018   .     S
C373   N374    1.158   .     T
C375   N376    1.158   .     T
C377   H385    1.107   .     S
C377   H386    1.104   .     S
C377   C576    1.535   .     S
C378   H384    1.108   .     S
C378   C379    1.526   .     S
C378   H383    1.111   .     S
C379   H382    1.111   .     S
C379   H380    1.111   .     S
C379   H249    1.109   1_655 S
C387   H395    1.108   .     S
C388   H394    1.104   .     S
C388   C389    1.527   .     S
C388   C585    1.529   .     S
C388   H591    1.109   .     S
C389   H390    1.111   .     S
C389   H391    1.110   .     S
C389   H392    1.109   .     S
H396   C585    1.110   .     S
C397   O429    1.282   .     A
C397   C401    1.402   .     S
C397   O431    1.287   .     A
C398   O430    1.282   .     A
C398   C402    1.402   .     S
C398   O432    1.287   .     A
C399   C416    1.392   .     A
C399   H421    1.085   .     S
C399   C1011   1.394   .     S
C400   H422    1.085   .     S
C400   C415    1.393   .     A
C400   C1012   1.395   1_554 S
C401   C6      1.331   1_565 S
C401   H27     1.088   1_565 S
C403   O433    1.291   .     A
C403   C408    1.426   .     S
C403   O435    1.286   .     A
C404   C407    1.423   .     S
C404   O434    1.288   .     A
C404   O436    1.288   .     A
C405   C407    1.385   .     A
C405   H419    1.086   .     S
C405   C415    1.381   .     A
C406   C408    1.385   .     A
C406   H420    1.086   .     S
C406   C416    1.378   .     A
C407   C409    1.398   .     A
C408   C410    1.403   .     A
C409   C439    1.452   .     S
C409   C411    1.408   .     A
C410   C441    1.452   .     S
C410   C412    1.413   .     A
C411   C417    1.422   .     A
C411   C413    1.426   .     A
C412   C414    1.426   .     A
C412   C418    1.423   .     A
C413   C415    1.409   .     A
C413   C1008   1.398   1_554 S
C414   C416    1.408   .     A
C414   C1007   1.398   .     S
C417   C443    1.516   .     S
C417   C993    1.394   1_554 S
C418   C453    1.517   .     S
C418   C994    1.395   .     S
H424   C6      1.088   1_565 S
H425   N559    1.029   1_455 S
H426   N494    1.029   .     S
N427   Zn438   2.024   .     S
N427   H491    1.029   .     S
N427   N494    1.268   .     S
N428   Zn437   2.024   .     S
N428   H558    1.029   1_455 S
N428   N559    1.268   1_455 S
O429   Zn437   1.966   .     S
O430   Zn438   1.966   .     S
O431   Zn438   1.978   .     S
O432   Zn437   1.978   .     S
O433   Zn437   1.983   .     S
O434   Zn438   1.983   .     S
O435   Zn438   2.018   .     S
O436   Zn437   2.018   .     S
C439   N440    1.158   .     T
C441   N442    1.158   .     T
C443   H451    1.107   .     S
C443   H452    1.104   .     S
C443   C48     1.535   1_565 S
C444   H450    1.108   .     S
C444   C445    1.526   .     S
C444   H449    1.111   .     S
C445   H448    1.111   .     S
C445   H446    1.111   .     S
C445   H513    1.109   .     S
H447   C577    1.109   1_455 S
C453   H461    1.108   .     S
C454   H460    1.104   .     S
C454   C455    1.527   .     S
C454   C57     1.529   1_565 S
C454   H63     1.109   1_565 S
C455   H456    1.111   .     S
C455   H457    1.110   .     S
C455   H458    1.109   .     S
H462   C57     1.110   1_565 S
C463   O495    1.282   .     A
C463   C467    1.402   .     S
C463   O497    1.287   .     A
C464   O496    1.282   .     A
C464   C468    1.402   .     S
C464   O498    1.287   .     A
C465   C482    1.392   .     A
C465   H487    1.085   .     S
C465   C1077   1.394   .     S
C466   H488    1.085   .     S
C466   C481    1.393   .     A
C466   C1078   1.395   1_554 S
C467   C72     1.331   1_565 S
C467   H93     1.088   1_565 S
C469   O499    1.291   .     A
C469   C474    1.426   .     S
C469   O501    1.286   .     A
C470   C473    1.423   .     S
C470   O500    1.288   .     A
C470   O502    1.288   .     A
C471   C473    1.385   .     A
C471   H485    1.086   .     S
C471   C481    1.381   .     A
C472   C474    1.385   .     A
C472   H486    1.086   .     S
C472   C482    1.378   .     A
C473   C475    1.398   .     A
C474   C476    1.403   .     A
C475   C505    1.452   .     S
C475   C477    1.408   .     A
C476   C507    1.452   .     S
C476   C478    1.413   .     A
C477   C483    1.422   .     A
C477   C479    1.426   .     A
C478   C480    1.426   .     A
C478   C484    1.423   .     A
C479   C481    1.409   .     A
C479   C1074   1.398   1_554 S
C480   C482    1.408   .     A
C480   C1073   1.398   .     S
C483   C509    1.516   .     S
C483   C1059   1.394   1_554 S
C484   C519    1.517   .     S
C484   C1060   1.395   .     S
H490   C72     1.088   1_565 S
H492   N560    1.029   .     S
N493   Zn504   2.024   .     S
N493   H557    1.029   .     S
N493   N560    1.268   .     S
N494   Zn503   2.024   .     S
O495   Zn503   1.966   .     S
O496   Zn504   1.966   .     S
O497   Zn504   1.978   .     S
O498   Zn503   1.978   .     S
O499   Zn503   1.983   .     S
O500   Zn504   1.983   .     S
O501   Zn504   2.018   .     S
O502   Zn503   2.018   .     S
C505   N506    1.158   .     T
C507   N508    1.158   .     T
C509   H517    1.107   .     S
C509   H518    1.104   .     S
C509   C114    1.535   1_565 S
C510   H516    1.108   .     S
C510   C511    1.526   .     S
C510   H515    1.111   .     S
C511   H514    1.111   .     S
C511   H512    1.111   .     S
C511   H579    1.109   .     S
C519   H527    1.108   .     S
C520   H526    1.104   .     S
C520   C521    1.527   .     S
C520   C123    1.529   1_565 S
C520   H129    1.109   1_565 S
C521   H522    1.111   .     S
C521   H523    1.110   .     S
C521   H524    1.109   .     S
H528   C123    1.110   1_565 S
C529   O561    1.282   .     A
C529   C533    1.402   .     S
C529   O563    1.287   .     A
C530   O562    1.282   .     A
C530   C534    1.402   .     S
C530   O564    1.287   .     A
C531   C548    1.392   .     A
C531   H553    1.085   .     S
C531   C1143   1.394   .     S
C532   H554    1.085   .     S
C532   C547    1.393   .     A
C532   C1144   1.395   1_554 S
C533   C138    1.331   1_565 S
C533   H159    1.088   1_565 S
C535   O565    1.291   .     A
C535   C540    1.426   .     S
C535   O567    1.286   .     A
C536   C539    1.423   .     S
C536   O566    1.288   .     A
C536   O568    1.288   .     A
C537   C539    1.385   .     A
C537   H551    1.086   .     S
C537   C547    1.381   .     A
C538   C540    1.385   .     A
C538   H552    1.086   .     S
C538   C548    1.378   .     A
C539   C541    1.398   .     A
C540   C542    1.403   .     A
C541   C571    1.452   .     S
C541   C543    1.408   .     A
C542   C573    1.452   .     S
C542   C544    1.413   .     A
C543   C549    1.422   .     A
C543   C545    1.426   .     A
C544   C546    1.426   .     A
C544   C550    1.423   .     A
C545   C547    1.409   .     A
C545   C1140   1.398   1_554 S
C546   C548    1.408   .     A
C546   C1139   1.398   .     S
C549   C575    1.516   .     S
C549   C1125   1.394   1_554 S
C550   C585    1.517   .     S
C550   C1126   1.395   .     S
H556   C138    1.088   1_565 S
H558   N428    1.029   1_655 S
N559   Zn570   2.024   .     S
N559   H425    1.029   1_655 S
N559   N428    1.268   1_655 S
N560   Zn569   2.024   .     S
O561   Zn569   1.966   .     S
O562   Zn570   1.966   .     S
O563   Zn570   1.978   .     S
O564   Zn569   1.978   .     S
O565   Zn569   1.983   .     S
O566   Zn570   1.983   .     S
O567   Zn570   2.018   .     S
O568   Zn569   2.018   .     S
C571   N572    1.158   .     T
C573   N574    1.158   .     T
C575   H583    1.107   .     S
C575   H584    1.104   .     S
C575   C180    1.535   1_565 S
C576   H582    1.108   .     S
C576   C577    1.526   .     S
C576   H581    1.111   .     S
C577   H580    1.111   .     S
C577   H578    1.111   .     S
C577   H447    1.109   1_655 S
C585   H593    1.108   .     S
C586   H592    1.104   .     S
C586   C587    1.527   .     S
C586   C189    1.529   1_565 S
C586   H195    1.109   1_565 S
C587   H588    1.111   .     S
C587   H589    1.110   .     S
C587   H590    1.109   .     S
H594   C189    1.110   1_565 S
C595   O627    1.282   .     A
C595   C599    1.402   .     S
C595   O629    1.287   .     A
C596   O628    1.282   .     A
C596   C600    1.402   .     S
C596   O630    1.287   .     A
C597   C614    1.392   .     A
C597   H619    1.085   .     S
C597   C21     1.394   1_556 S
C598   H620    1.085   .     S
C598   C613    1.393   .     A
C599   C798    1.331   .     S
C599   H819    1.088   .     S
C600   C995    1.331   1_545 S
C600   H1018   1.088   1_545 S
C601   O631    1.291   .     A
C601   C606    1.426   .     S
C601   O633    1.286   .     A
C602   C605    1.423   .     S
C602   O632    1.288   .     A
C602   O634    1.288   .     A
C603   C605    1.385   .     A
C603   H617    1.086   .     S
C603   C613    1.381   .     A
C604   C606    1.385   .     A
C604   H618    1.086   .     S
C604   C614    1.378   .     A
C605   C607    1.398   .     A
C606   C608    1.403   .     A
C607   C637    1.452   .     S
C607   C609    1.408   .     A
C608   C639    1.452   .     S
C608   C610    1.413   .     A
C609   C615    1.422   .     A
C609   C611    1.426   .     A
C610   C612    1.426   .     A
C610   C616    1.423   .     A
C611   C613    1.409   .     A
C612   C614    1.408   .     A
C612   C17     1.398   1_556 S
C615   C641    1.516   .     S
C616   C651    1.517   .     S
C616   C4      1.395   1_556 S
H621   C995    1.088   1_545 S
H622   C798    1.088   .     S
H623   N757    1.029   1_455 S
H624   N692    1.029   .     S
N625   Zn636   2.024   .     S
N625   H689    1.029   .     S
N625   N692    1.268   .     S
N626   Zn635   2.024   .     S
N626   H756    1.029   1_455 S
N626   N757    1.268   1_455 S
O627   Zn635   1.966   .     S
O628   Zn636   1.966   .     S
O629   Zn636   1.978   .     S
O630   Zn635   1.978   .     S
O631   Zn635   1.983   .     S
O632   Zn636   1.983   .     S
O633   Zn636   2.018   .     S
O634   Zn635   2.018   .     S
C637   N638    1.158   .     T
C639   N640    1.158   .     T
C641   H649    1.107   .     S
C641   H650    1.104   .     S
C641   C840    1.535   .     S
C642   H648    1.108   .     S
C642   C643    1.526   .     S
C642   H647    1.111   .     S
C642   C1037   1.535   1_545 S
C643   H646    1.111   .     S
C643   H644    1.111   .     S
C643   H711    1.109   .     S
H645   C775    1.109   1_455 S
C651   H659    1.108   .     S
C651   C1048   1.529   1_545 S
C651   H1056   1.110   1_545 S
C652   H658    1.104   .     S
C652   C653    1.527   .     S
C652   C849    1.529   .     S
C652   H855    1.109   .     S
C653   H654    1.111   .     S
C653   H655    1.110   .     S
C653   H656    1.109   .     S
H657   C1048   1.109   1_545 S
H660   C849    1.110   .     S
C661   O693    1.282   .     A
C661   C665    1.402   .     S
C661   O695    1.287   .     A
C662   O694    1.282   .     A
C662   C666    1.402   .     S
C662   O696    1.287   .     A
C663   C680    1.392   .     A
C663   H685    1.085   .     S
C663   C87     1.394   1_556 S
C664   H686    1.085   .     S
C664   C679    1.393   .     A
C665   C864    1.331   .     S
C665   H885    1.088   .     S
C666   C1061   1.331   1_545 S
C666   H1084   1.088   1_545 S
C667   O697    1.291   .     A
C667   C672    1.426   .     S
C667   O699    1.286   .     A
C668   C671    1.423   .     S
C668   O698    1.288   .     A
C668   O700    1.288   .     A
C669   C671    1.385   .     A
C669   H683    1.086   .     S
C669   C679    1.381   .     A
C670   C672    1.385   .     A
C670   H684    1.086   .     S
C670   C680    1.378   .     A
C671   C673    1.398   .     A
C672   C674    1.403   .     A
C673   C703    1.452   .     S
C673   C675    1.408   .     A
C674   C705    1.452   .     S
C674   C676    1.413   .     A
C675   C681    1.422   .     A
C675   C677    1.426   .     A
C676   C678    1.426   .     A
C676   C682    1.423   .     A
C677   C679    1.409   .     A
C678   C680    1.408   .     A
C678   C83     1.398   1_556 S
C681   C707    1.516   .     S
C682   C717    1.517   .     S
C682   C70     1.395   1_556 S
H687   C1061   1.088   1_545 S
H688   C864    1.088   .     S
H690   N758    1.029   .     S
N691   Zn702   2.024   .     S
N691   H755    1.029   .     S
N691   N758    1.268   .     S
N692   Zn701   2.024   .     S
O693   Zn701   1.966   .     S
O694   Zn702   1.966   .     S
O695   Zn702   1.978   .     S
O696   Zn701   1.978   .     S
O697   Zn701   1.983   .     S
O698   Zn702   1.983   .     S
O699   Zn702   2.018   .     S
O700   Zn701   2.018   .     S
C703   N704    1.158   .     T
C705   N706    1.158   .     T
C707   H715    1.107   .     S
C707   H716    1.104   .     S
C707   C906    1.535   .     S
C708   H714    1.108   .     S
C708   C709    1.526   .     S
C708   H713    1.111   .     S
C708   C1103   1.535   1_545 S
C709   H712    1.111   .     S
C709   H710    1.111   .     S
C709   H777    1.109   .     S
C717   H725    1.108   .     S
C717   C1114   1.529   1_545 S
C717   H1122   1.110   1_545 S
C718   H724    1.104   .     S
C718   C719    1.527   .     S
C718   C915    1.529   .     S
C718   H921    1.109   .     S
C719   H720    1.111   .     S
C719   H721    1.110   .     S
C719   H722    1.109   .     S
H723   C1114   1.109   1_545 S
H726   C915    1.110   .     S
C727   O759    1.282   .     A
C727   C731    1.402   .     S
C727   O761    1.287   .     A
C728   O760    1.282   .     A
C728   C732    1.402   .     S
C728   O762    1.287   .     A
C729   C746    1.392   .     A
C729   H751    1.085   .     S
C729   C153    1.394   1_556 S
C730   H752    1.085   .     S
C730   C745    1.393   .     A
C731   C930    1.331   .     S
C731   H951    1.088   .     S
C732   C1127   1.331   1_545 S
C732   H1150   1.088   1_545 S
C733   O763    1.291   .     A
C733   C738    1.426   .     S
C733   O765    1.286   .     A
C734   C737    1.423   .     S
C734   O764    1.288   .     A
C734   O766    1.288   .     A
C735   C737    1.385   .     A
C735   H749    1.086   .     S
C735   C745    1.381   .     A
C736   C738    1.385   .     A
C736   H750    1.086   .     S
C736   C746    1.378   .     A
C737   C739    1.398   .     A
C738   C740    1.403   .     A
C739   C769    1.452   .     S
C739   C741    1.408   .     A
C740   C771    1.452   .     S
C740   C742    1.413   .     A
C741   C747    1.422   .     A
C741   C743    1.426   .     A
C742   C744    1.426   .     A
C742   C748    1.423   .     A
C743   C745    1.409   .     A
C744   C746    1.408   .     A
C744   C149    1.398   1_556 S
C747   C773    1.516   .     S
C748   C783    1.517   .     S
C748   C136    1.395   1_556 S
H753   C1127   1.088   1_545 S
H754   C930    1.088   .     S
H756   N626    1.029   1_655 S
N757   Zn768   2.024   .     S
N757   H623    1.029   1_655 S
N757   N626    1.268   1_655 S
N758   Zn767   2.024   .     S
O759   Zn767   1.966   .     S
O760   Zn768   1.966   .     S
O761   Zn768   1.978   .     S
O762   Zn767   1.978   .     S
O763   Zn767   1.983   .     S
O764   Zn768   1.983   .     S
O765   Zn768   2.018   .     S
O766   Zn767   2.018   .     S
C769   N770    1.158   .     T
C771   N772    1.158   .     T
C773   H781    1.107   .     S
C773   H782    1.104   .     S
C773   C972    1.535   .     S
C774   H780    1.108   .     S
C774   C775    1.526   .     S
C774   H779    1.111   .     S
C774   C1169   1.535   1_545 S
C775   H778    1.111   .     S
C775   H776    1.111   .     S
C775   H645    1.109   1_655 S
C783   H791    1.108   .     S
C783   C1180   1.529   1_545 S
C783   H1188   1.110   1_545 S
C784   H790    1.104   .     S
C784   C785    1.527   .     S
C784   C981    1.529   .     S
C784   H987    1.109   .     S
C785   H786    1.111   .     S
C785   H787    1.110   .     S
C785   H788    1.109   .     S
H789   C1180   1.109   1_545 S
H792   C981    1.110   .     S
C793   O825    1.282   .     A
C793   C797    1.402   .     S
C793   O827    1.287   .     A
C794   O826    1.282   .     A
C794   C798    1.402   .     S
C794   O828    1.287   .     A
C795   C812    1.392   .     A
C795   H817    1.085   .     S
C795   C219    1.394   1_556 S
C796   H818    1.085   .     S
C796   C811    1.393   .     A
C797   C996    1.331   .     S
C797   H1017   1.088   .     S
C799   O829    1.291   .     A
C799   C804    1.426   .     S
C799   O831    1.286   .     A
C800   C803    1.423   .     S
C800   O830    1.288   .     A
C800   O832    1.288   .     A
C801   C803    1.385   .     A
C801   H815    1.086   .     S
C801   C811    1.381   .     A
C802   C804    1.385   .     A
C802   H816    1.086   .     S
C802   C812    1.378   .     A
C803   C805    1.398   .     A
C804   C806    1.403   .     A
C805   C835    1.452   .     S
C805   C807    1.408   .     A
C806   C837    1.452   .     S
C806   C808    1.413   .     A
C807   C813    1.422   .     A
C807   C809    1.426   .     A
C808   C810    1.426   .     A
C808   C814    1.423   .     A
C809   C811    1.409   .     A
C810   C812    1.408   .     A
C810   C215    1.398   1_556 S
C813   C839    1.516   .     S
C814   C849    1.517   .     S
C814   C202    1.395   1_556 S
H820   C996    1.088   .     S
H821   N955    1.029   1_455 S
H822   N890    1.029   .     S
N823   Zn834   2.024   .     S
N823   H887    1.029   .     S
N823   N890    1.268   .     S
N824   Zn833   2.024   .     S
N824   H954    1.029   1_455 S
N824   N955    1.268   1_455 S
O825   Zn833   1.966   .     S
O826   Zn834   1.966   .     S
O827   Zn834   1.978   .     S
O828   Zn833   1.978   .     S
O829   Zn833   1.983   .     S
O830   Zn834   1.983   .     S
O831   Zn834   2.018   .     S
O832   Zn833   2.018   .     S
C835   N836    1.158   .     T
C837   N838    1.158   .     T
C839   H847    1.107   .     S
C839   H848    1.104   .     S
C839   C1038   1.535   .     S
C840   H846    1.108   .     S
C840   C841    1.526   .     S
C840   H845    1.111   .     S
C841   H844    1.111   .     S
C841   H842    1.111   .     S
C841   H909    1.109   .     S
H843   C973    1.109   1_455 S
C849   H857    1.108   .     S
C850   H856    1.104   .     S
C850   C851    1.527   .     S
C850   C1047   1.529   .     S
C850   H1053   1.109   .     S
C851   H852    1.111   .     S
C851   H853    1.110   .     S
C851   H854    1.109   .     S
H858   C1047   1.110   .     S
C859   O891    1.282   .     A
C859   C863    1.402   .     S
C859   O893    1.287   .     A
C860   O892    1.282   .     A
C860   C864    1.402   .     S
C860   O894    1.287   .     A
C861   C878    1.392   .     A
C861   H883    1.085   .     S
C861   C285    1.394   1_556 S
C862   H884    1.085   .     S
C862   C877    1.393   .     A
C863   C1062   1.331   .     S
C863   H1083   1.088   .     S
C865   O895    1.291   .     A
C865   C870    1.426   .     S
C865   O897    1.286   .     A
C866   C869    1.423   .     S
C866   O896    1.288   .     A
C866   O898    1.288   .     A
C867   C869    1.385   .     A
C867   H881    1.086   .     S
C867   C877    1.381   .     A
C868   C870    1.385   .     A
C868   H882    1.086   .     S
C868   C878    1.378   .     A
C869   C871    1.398   .     A
C870   C872    1.403   .     A
C871   C901    1.452   .     S
C871   C873    1.408   .     A
C872   C903    1.452   .     S
C872   C874    1.413   .     A
C873   C879    1.422   .     A
C873   C875    1.426   .     A
C874   C876    1.426   .     A
C874   C880    1.423   .     A
C875   C877    1.409   .     A
C876   C878    1.408   .     A
C876   C281    1.398   1_556 S
C879   C905    1.516   .     S
C880   C915    1.517   .     S
C880   C268    1.395   1_556 S
H886   C1062   1.088   .     S
H888   N956    1.029   .     S
N889   Zn900   2.024   .     S
N889   H953    1.029   .     S
N889   N956    1.268   .     S
N890   Zn899   2.024   .     S
O891   Zn899   1.966   .     S
O892   Zn900   1.966   .     S
O893   Zn900   1.978   .     S
O894   Zn899   1.978   .     S
O895   Zn899   1.983   .     S
O896   Zn900   1.983   .     S
O897   Zn900   2.018   .     S
O898   Zn899   2.018   .     S
C901   N902    1.158   .     T
C903   N904    1.158   .     T
C905   H913    1.107   .     S
C905   H914    1.104   .     S
C905   C1104   1.535   .     S
C906   H912    1.108   .     S
C906   C907    1.526   .     S
C906   H911    1.111   .     S
C907   H910    1.111   .     S
C907   H908    1.111   .     S
C907   H975    1.109   .     S
C915   H923    1.108   .     S
C916   H922    1.104   .     S
C916   C917    1.527   .     S
C916   C1113   1.529   .     S
C916   H1119   1.109   .     S
C917   H918    1.111   .     S
C917   H919    1.110   .     S
C917   H920    1.109   .     S
H924   C1113   1.110   .     S
C925   O957    1.282   .     A
C925   C929    1.402   .     S
C925   O959    1.287   .     A
C926   O958    1.282   .     A
C926   C930    1.402   .     S
C926   O960    1.287   .     A
C927   C944    1.392   .     A
C927   H949    1.085   .     S
C927   C351    1.394   1_556 S
C928   H950    1.085   .     S
C928   C943    1.393   .     A
C929   C1128   1.331   .     S
C929   H1149   1.088   .     S
C931   O961    1.291   .     A
C931   C936    1.426   .     S
C931   O963    1.286   .     A
C932   C935    1.423   .     S
C932   O962    1.288   .     A
C932   O964    1.288   .     A
C933   C935    1.385   .     A
C933   H947    1.086   .     S
C933   C943    1.381   .     A
C934   C936    1.385   .     A
C934   H948    1.086   .     S
C934   C944    1.378   .     A
C935   C937    1.398   .     A
C936   C938    1.403   .     A
C937   C967    1.452   .     S
C937   C939    1.408   .     A
C938   C969    1.452   .     S
C938   C940    1.413   .     A
C939   C945    1.422   .     A
C939   C941    1.426   .     A
C940   C942    1.426   .     A
C940   C946    1.423   .     A
C941   C943    1.409   .     A
C942   C944    1.408   .     A
C942   C347    1.398   1_556 S
C945   C971    1.516   .     S
C946   C981    1.517   .     S
C946   C334    1.395   1_556 S
H952   C1128   1.088   .     S
H954   N824    1.029   1_655 S
N955   Zn966   2.024   .     S
N955   H821    1.029   1_655 S
N955   N824    1.268   1_655 S
N956   Zn965   2.024   .     S
O957   Zn965   1.966   .     S
O958   Zn966   1.966   .     S
O959   Zn966   1.978   .     S
O960   Zn965   1.978   .     S
O961   Zn965   1.983   .     S
O962   Zn966   1.983   .     S
O963   Zn966   2.018   .     S
O964   Zn965   2.018   .     S
C967   N968    1.158   .     T
C969   N970    1.158   .     T
C971   H979    1.107   .     S
C971   H980    1.104   .     S
C971   C1170   1.535   .     S
C972   H978    1.108   .     S
C972   C973    1.526   .     S
C972   H977    1.111   .     S
C973   H976    1.111   .     S
C973   H974    1.111   .     S
C973   H843    1.109   1_655 S
C981   H989    1.108   .     S
C982   H988    1.104   .     S
C982   C983    1.527   .     S
C982   C1179   1.529   .     S
C982   H1185   1.109   .     S
C983   H984    1.111   .     S
C983   H985    1.110   .     S
C983   H986    1.109   .     S
H990   C1179   1.110   .     S
C991   O1023   1.282   .     A
C991   C995    1.402   .     S
C991   O1025   1.287   .     A
C992   O1024   1.282   .     A
C992   C996    1.402   .     S
C992   O1026   1.287   .     A
C993   C1010   1.392   .     A
C993   H1015   1.085   .     S
C993   C417    1.394   1_556 S
C994   H1016   1.085   .     S
C994   C1009   1.393   .     A
C995   C600    1.331   1_565 S
C995   H621    1.088   1_565 S
C997   O1027   1.291   .     A
C997   C1002   1.426   .     S
C997   O1029   1.286   .     A
C998   C1001   1.423   .     S
C998   O1028   1.288   .     A
C998   O1030   1.288   .     A
C999   C1001   1.385   .     A
C999   H1013   1.086   .     S
C999   C1009   1.381   .     A
C1000  C1002   1.385   .     A
C1000  H1014   1.086   .     S
C1000  C1010   1.378   .     A
C1001  C1003   1.398   .     A
C1002  C1004   1.403   .     A
C1003  C1033   1.452   .     S
C1003  C1005   1.408   .     A
C1004  C1035   1.452   .     S
C1004  C1006   1.413   .     A
C1005  C1011   1.422   .     A
C1005  C1007   1.426   .     A
C1006  C1008   1.426   .     A
C1006  C1012   1.423   .     A
C1007  C1009   1.409   .     A
C1008  C1010   1.408   .     A
C1008  C413    1.398   1_556 S
C1011  C1037   1.516   .     S
C1012  C1047   1.517   .     S
C1012  C400    1.395   1_556 S
H1018  C600    1.088   1_565 S
H1019  N1153   1.029   1_455 S
H1020  N1088   1.029   .     S
N1021  Zn1032  2.024   .     S
N1021  H1085   1.029   .     S
N1021  N1088   1.268   .     S
N1022  Zn1031  2.024   .     S
N1022  H1152   1.029   1_455 S
N1022  N1153   1.268   1_455 S
O1023  Zn1031  1.966   .     S
O1024  Zn1032  1.966   .     S
O1025  Zn1032  1.978   .     S
O1026  Zn1031  1.978   .     S
O1027  Zn1031  1.983   .     S
O1028  Zn1032  1.983   .     S
O1029  Zn1032  2.018   .     S
O1030  Zn1031  2.018   .     S
C1033  N1034   1.158   .     T
C1035  N1036   1.158   .     T
C1037  H1045   1.107   .     S
C1037  H1046   1.104   .     S
C1037  C642    1.535   1_565 S
C1038  H1044   1.108   .     S
C1038  C1039   1.526   .     S
C1038  H1043   1.111   .     S
C1039  H1042   1.111   .     S
C1039  H1040   1.111   .     S
C1039  H1107   1.109   .     S
H1041  C1171   1.109   1_455 S
C1047  H1055   1.108   .     S
C1048  H1054   1.104   .     S
C1048  C1049   1.527   .     S
C1048  C651    1.529   1_565 S
C1048  H657    1.109   1_565 S
C1049  H1050   1.111   .     S
C1049  H1051   1.110   .     S
C1049  H1052   1.109   .     S
H1056  C651    1.110   1_565 S
C1057  O1089   1.282   .     A
C1057  C1061   1.402   .     S
C1057  O1091   1.287   .     A
C1058  O1090   1.282   .     A
C1058  C1062   1.402   .     S
C1058  O1092   1.287   .     A
C1059  C1076   1.392   .     A
C1059  H1081   1.085   .     S
C1059  C483    1.394   1_556 S
C1060  H1082   1.085   .     S
C1060  C1075   1.393   .     A
C1061  C666    1.331   1_565 S
C1061  H687    1.088   1_565 S
C1063  O1093   1.291   .     A
C1063  C1068   1.426   .     S
C1063  O1095   1.286   .     A
C1064  C1067   1.423   .     S
C1064  O1094   1.288   .     A
C1064  O1096   1.288   .     A
C1065  C1067   1.385   .     A
C1065  H1079   1.086   .     S
C1065  C1075   1.381   .     A
C1066  C1068   1.385   .     A
C1066  H1080   1.086   .     S
C1066  C1076   1.378   .     A
C1067  C1069   1.398   .     A
C1068  C1070   1.403   .     A
C1069  C1099   1.452   .     S
C1069  C1071   1.408   .     A
C1070  C1101   1.452   .     S
C1070  C1072   1.413   .     A
C1071  C1077   1.422   .     A
C1071  C1073   1.426   .     A
C1072  C1074   1.426   .     A
C1072  C1078   1.423   .     A
C1073  C1075   1.409   .     A
C1074  C1076   1.408   .     A
C1074  C479    1.398   1_556 S
C1077  C1103   1.516   .     S
C1078  C1113   1.517   .     S
C1078  C466    1.395   1_556 S
H1084  C666    1.088   1_565 S
H1086  N1154   1.029   .     S
N1087  Zn1098  2.024   .     S
N1087  H1151   1.029   .     S
N1087  N1154   1.268   .     S
N1088  Zn1097  2.024   .     S
O1089  Zn1097  1.966   .     S
O1090  Zn1098  1.966   .     S
O1091  Zn1098  1.978   .     S
O1092  Zn1097  1.978   .     S
O1093  Zn1097  1.983   .     S
O1094  Zn1098  1.983   .     S
O1095  Zn1098  2.018   .     S
O1096  Zn1097  2.018   .     S
C1099  N1100   1.158   .     T
C1101  N1102   1.158   .     T
C1103  H1111   1.107   .     S
C1103  H1112   1.104   .     S
C1103  C708    1.535   1_565 S
C1104  H1110   1.108   .     S
C1104  C1105   1.526   .     S
C1104  H1109   1.111   .     S
C1105  H1108   1.111   .     S
C1105  H1106   1.111   .     S
C1105  H1173   1.109   .     S
C1113  H1121   1.108   .     S
C1114  H1120   1.104   .     S
C1114  C1115   1.527   .     S
C1114  C717    1.529   1_565 S
C1114  H723    1.109   1_565 S
C1115  H1116   1.111   .     S
C1115  H1117   1.110   .     S
C1115  H1118   1.109   .     S
H1122  C717    1.110   1_565 S
C1123  O1155   1.282   .     A
C1123  C1127   1.402   .     S
C1123  O1157   1.287   .     A
C1124  O1156   1.282   .     A
C1124  C1128   1.402   .     S
C1124  O1158   1.287   .     A
C1125  C1142   1.392   .     A
C1125  H1147   1.085   .     S
C1125  C549    1.394   1_556 S
C1126  H1148   1.085   .     S
C1126  C1141   1.393   .     A
C1127  C732    1.331   1_565 S
C1127  H753    1.088   1_565 S
C1129  O1159   1.291   .     A
C1129  C1134   1.426   .     S
C1129  O1161   1.286   .     A
C1130  C1133   1.423   .     S
C1130  O1160   1.288   .     A
C1130  O1162   1.288   .     A
C1131  C1133   1.385   .     A
C1131  H1145   1.086   .     S
C1131  C1141   1.381   .     A
C1132  C1134   1.385   .     A
C1132  H1146   1.086   .     S
C1132  C1142   1.378   .     A
C1133  C1135   1.398   .     A
C1134  C1136   1.403   .     A
C1135  C1165   1.452   .     S
C1135  C1137   1.408   .     A
C1136  C1167   1.452   .     S
C1136  C1138   1.413   .     A
C1137  C1143   1.422   .     A
C1137  C1139   1.426   .     A
C1138  C1140   1.426   .     A
C1138  C1144   1.423   .     A
C1139  C1141   1.409   .     A
C1140  C1142   1.408   .     A
C1140  C545    1.398   1_556 S
C1143  C1169   1.516   .     S
C1144  C1179   1.517   .     S
C1144  C532    1.395   1_556 S
H1150  C732    1.088   1_565 S
H1152  N1022   1.029   1_655 S
N1153  Zn1164  2.024   .     S
N1153  H1019   1.029   1_655 S
N1153  N1022   1.268   1_655 S
N1154  Zn1163  2.024   .     S
O1155  Zn1163  1.966   .     S
O1156  Zn1164  1.966   .     S
O1157  Zn1164  1.978   .     S
O1158  Zn1163  1.978   .     S
O1159  Zn1163  1.983   .     S
O1160  Zn1164  1.983   .     S
O1161  Zn1164  2.018   .     S
O1162  Zn1163  2.018   .     S
C1165  N1166   1.158   .     T
C1167  N1168   1.158   .     T
C1169  H1177   1.107   .     S
C1169  H1178   1.104   .     S
C1169  C774    1.535   1_565 S
C1170  H1176   1.108   .     S
C1170  C1171   1.526   .     S
C1170  H1175   1.111   .     S
C1171  H1174   1.111   .     S
C1171  H1172   1.111   .     S
C1171  H1041   1.109   1_655 S
C1179  H1187   1.108   .     S
C1180  H1186   1.104   .     S
C1180  C1181   1.527   .     S
C1180  C783    1.529   1_565 S
C1180  H789    1.109   1_565 S
C1181  H1182   1.111   .     S
C1181  H1183   1.110   .     S
C1181  H1184   1.109   .     S
H1188  C783    1.110   1_565 S
