data_str_m3_o2_o10_pcu_sym.58
_audit_creation_date              2020-01-03
_audit_creation_method            'Materials Studio'
_symmetry_space_group_name_H-M    'P1'
_symmetry_Int_Tables_number       1
_symmetry_cell_setting            triclinic
loop_
_symmetry_equiv_pos_as_xyz
  x,y,z
_cell_length_a                    25.7457
_cell_length_b                    29.8565
_cell_length_c                    28.4760
_cell_angle_alpha                 88.4347
_cell_angle_beta                  98.1110
_cell_angle_gamma                 91.3834
loop_
_atom_site_label
_atom_site_type_symbol
_atom_site_fract_x
_atom_site_fract_y
_atom_site_fract_z
_atom_site_U_iso_or_equiv
_atom_site_adp_type
_atom_site_occupancy
C1     C     0.16828   0.16357   0.25092   0.00000  Uiso   1.00
C2     C     0.12764   0.22806   0.44371   0.00000  Uiso   1.00
C3     C     0.16728   0.24949   0.02674   0.00000  Uiso   1.00
C4     C     0.16767   0.24990   0.47352   0.00000  Uiso   1.00
C5     C     0.06712   0.25011   0.23767   0.00000  Uiso   1.00
C6     C     0.26622   0.25035   0.26231   0.00000  Uiso   1.00
C7     C     0.01216   0.25024   0.23094   0.00000  Uiso   1.00
C8     C     0.32116   0.25110   0.26895   0.00000  Uiso   1.00
C9     C     0.17309   0.04141   0.28894   0.00000  Uiso   1.00
C10    C     0.14588   0.45624   0.21466   0.00000  Uiso   1.00
C11    C     0.16752   0.08735   0.29222   0.00000  Uiso   1.00
C12    C     0.16622   0.33601   0.24930   0.00000  Uiso   1.00
C13    C     0.13698   0.41011   0.21569   0.00000  Uiso   1.00
C14    C     0.17626   0.11531   0.25279   0.00000  Uiso   1.00
C15    C     0.17087   0.38391   0.24803   0.00000  Uiso   1.00
C16    C     0.19340   0.09660   0.21293   0.00000  Uiso   1.00
C17    C     0.21279   0.40326   0.27779   0.00000  Uiso   1.00
C18    C     0.19983   0.05096   0.21073   0.00000  Uiso   1.00
C19    C     0.22134   0.44908   0.27638   0.00000  Uiso   1.00
C20    C     0.18880   0.02350   0.24863   0.00000  Uiso   1.00
C21    C     0.18728   0.47546   0.24509   0.00000  Uiso   1.00
C22    C     0.15277   0.10381   0.33711   0.00000  Uiso   1.00
C23    C     0.14314   0.21450   0.05085   0.00000  Uiso   1.00
C24    C     0.09107   0.39029   0.18500   0.00000  Uiso   1.00
C25    C     0.22172   0.31992   0.13106   0.00000  Uiso   1.00
C26    C     0.08718   0.19977   0.36591   0.00000  Uiso   1.00
C27    C     0.20735   0.27210   0.45158   0.00000  Uiso   1.00
C28    C     0.14268   0.21572   0.10023   0.00000  Uiso   1.00
C29    C     0.20573   0.27219   0.40186   0.00000  Uiso   1.00
C30    C     0.19162   0.28402   0.10390   0.00000  Uiso   1.00
C31    C     0.12808   0.22721   0.39429   0.00000  Uiso   1.00
C32    C     0.19088   0.28458   0.05428   0.00000  Uiso   1.00
Cl33   Cl    0.22096   0.02911   0.15993   0.00000  Uiso   1.00
Cl34   Cl    0.27453   0.47250   0.31424   0.00000  Uiso   1.00
H35    H     0.32518   0.24932   0.19476   0.00000  Uiso   1.00
H36    H     0.23633   0.28964   0.38578   0.00000  Uiso   1.00
H37    H     0.20940   0.31239   0.03744   0.00000  Uiso   1.00
H38    H     0.09598   0.21115   0.45876   0.00000  Uiso   1.00
H39    H     0.17111   0.13361   0.35343   0.00000  Uiso   1.00
H40    H     0.07971   0.35539   0.18942   0.00000  Uiso   1.00
H41    H     0.23995   0.31398   0.16704   0.00000  Uiso   1.00
H42    H     0.09332   0.18674   0.33234   0.00000  Uiso   1.00
H43    H     0.00811   0.25232   0.30508   0.00000  Uiso   1.00
H44    H     0.16480   0.01913   0.31784   0.00000  Uiso   1.00
H45    H     0.11933   0.47768   0.19169   0.00000  Uiso   1.00
H46    H     0.20171   0.11741   0.18300   0.00000  Uiso   1.00
H47    H     0.23922   0.38255   0.30173   0.00000  Uiso   1.00
H48    H     0.12515   0.18582   0.03209   0.00000  Uiso   1.00
H49    H     0.24004   0.28893   0.47245   0.00000  Uiso   1.00
H50    H     0.12360   0.18875   0.11785   0.00000  Uiso   1.00
N51    N     0.16667   0.24999   0.12624   0.00000  Uiso   1.00
N52    N     0.16667   0.25001   0.37376   0.00000  Uiso   1.00
O53    O     0.16667   0.18454   0.28974   0.00000  Uiso   1.00
O54    O     0.06494   0.41292   0.15443   0.00000  Uiso   1.00
O55    O     0.22776   0.35685   0.11284   0.00000  Uiso   1.00
O56    O     0.04579   0.19024   0.38049   0.00000  Uiso   1.00
O57    O     0.16666   0.31547   0.21026   0.00000  Uiso   1.00
O58    O     0.16667   0.18453   0.21026   0.00000  Uiso   1.00
O59    O     0.16666   0.31547   0.28974   0.00000  Uiso   1.00
O60    O     0.09058   0.25000   0.28045   0.00000  Uiso   1.00
O61    O     0.24275   0.25000   0.21955   0.00000  Uiso   1.00
O62    O     0.09058   0.25000   0.20097   0.00000  Uiso   1.00
O63    O     0.24275   0.25001   0.29903   0.00000  Uiso   1.00
O64    O     0.12101   0.08285   0.35763   0.00000  Uiso   1.00
Zn65   Zn    0.16667   0.25001   0.30307   0.00000  Uiso   1.00
Zn66   Zn    0.16667   0.25000   0.19693   0.00000  Uiso   1.00
C67    C     0.50161   0.16357   0.25092   0.00000  Uiso   1.00
C68    C     0.46097   0.22806   0.44371   0.00000  Uiso   1.00
C69    C     0.50062   0.24949   0.02674   0.00000  Uiso   1.00
C70    C     0.50100   0.24990   0.47352   0.00000  Uiso   1.00
C71    C     0.40045   0.25011   0.23767   0.00000  Uiso   1.00
C72    C     0.59955   0.25035   0.26231   0.00000  Uiso   1.00
C73    C     0.34549   0.25024   0.23094   0.00000  Uiso   1.00
C74    C     0.65449   0.25110   0.26895   0.00000  Uiso   1.00
C75    C     0.50643   0.04141   0.28894   0.00000  Uiso   1.00
C76    C     0.47921   0.45624   0.21466   0.00000  Uiso   1.00
C77    C     0.50086   0.08735   0.29222   0.00000  Uiso   1.00
C78    C     0.49956   0.33601   0.24930   0.00000  Uiso   1.00
C79    C     0.47032   0.41011   0.21569   0.00000  Uiso   1.00
C80    C     0.50959   0.11531   0.25279   0.00000  Uiso   1.00
C81    C     0.50420   0.38391   0.24803   0.00000  Uiso   1.00
C82    C     0.52673   0.09660   0.21293   0.00000  Uiso   1.00
C83    C     0.54613   0.40326   0.27779   0.00000  Uiso   1.00
C84    C     0.53316   0.05096   0.21073   0.00000  Uiso   1.00
C85    C     0.55467   0.44908   0.27638   0.00000  Uiso   1.00
C86    C     0.52213   0.02350   0.24863   0.00000  Uiso   1.00
C87    C     0.52062   0.47546   0.24509   0.00000  Uiso   1.00
C88    C     0.48610   0.10381   0.33711   0.00000  Uiso   1.00
C89    C     0.47647   0.21450   0.05085   0.00000  Uiso   1.00
C90    C     0.42441   0.39029   0.18500   0.00000  Uiso   1.00
C91    C     0.55505   0.31992   0.13106   0.00000  Uiso   1.00
C92    C     0.42051   0.19977   0.36591   0.00000  Uiso   1.00
C93    C     0.54068   0.27210   0.45158   0.00000  Uiso   1.00
C94    C     0.47601   0.21572   0.10023   0.00000  Uiso   1.00
C95    C     0.53907   0.27219   0.40186   0.00000  Uiso   1.00
C96    C     0.52496   0.28402   0.10390   0.00000  Uiso   1.00
C97    C     0.46142   0.22721   0.39429   0.00000  Uiso   1.00
C98    C     0.52421   0.28458   0.05428   0.00000  Uiso   1.00
Cl99   Cl    0.55430   0.02911   0.15993   0.00000  Uiso   1.00
Cl100  Cl    0.60787   0.47250   0.31424   0.00000  Uiso   1.00
H101   H     0.65851   0.24932   0.19476   0.00000  Uiso   1.00
H102   H     0.56966   0.28964   0.38578   0.00000  Uiso   1.00
H103   H     0.54274   0.31239   0.03744   0.00000  Uiso   1.00
H104   H     0.42931   0.21115   0.45876   0.00000  Uiso   1.00
H105   H     0.50444   0.13361   0.35343   0.00000  Uiso   1.00
H106   H     0.41304   0.35539   0.18942   0.00000  Uiso   1.00
H107   H     0.57328   0.31398   0.16704   0.00000  Uiso   1.00
H108   H     0.42666   0.18674   0.33234   0.00000  Uiso   1.00
H109   H     0.34144   0.25232   0.30508   0.00000  Uiso   1.00
H110   H     0.49814   0.01913   0.31784   0.00000  Uiso   1.00
H111   H     0.45267   0.47768   0.19169   0.00000  Uiso   1.00
H112   H     0.53504   0.11741   0.18300   0.00000  Uiso   1.00
H113   H     0.57255   0.38255   0.30173   0.00000  Uiso   1.00
H114   H     0.45849   0.18582   0.03209   0.00000  Uiso   1.00
H115   H     0.57338   0.28893   0.47245   0.00000  Uiso   1.00
H116   H     0.45693   0.18875   0.11785   0.00000  Uiso   1.00
N117   N     0.50000   0.24999   0.12624   0.00000  Uiso   1.00
N118   N     0.50000   0.25001   0.37376   0.00000  Uiso   1.00
O119   O     0.50000   0.18454   0.28974   0.00000  Uiso   1.00
O120   O     0.39827   0.41292   0.15443   0.00000  Uiso   1.00
O121   O     0.56109   0.35685   0.11284   0.00000  Uiso   1.00
O122   O     0.37912   0.19024   0.38049   0.00000  Uiso   1.00
O123   O     0.50000   0.31547   0.21026   0.00000  Uiso   1.00
O124   O     0.50000   0.18453   0.21026   0.00000  Uiso   1.00
O125   O     0.50000   0.31547   0.28974   0.00000  Uiso   1.00
O126   O     0.42392   0.25000   0.28045   0.00000  Uiso   1.00
O127   O     0.57608   0.25000   0.21955   0.00000  Uiso   1.00
O128   O     0.42392   0.25000   0.20097   0.00000  Uiso   1.00
O129   O     0.57608   0.25001   0.29903   0.00000  Uiso   1.00
O130   O     0.45434   0.08285   0.35763   0.00000  Uiso   1.00
Zn131  Zn    0.50000   0.25001   0.30307   0.00000  Uiso   1.00
Zn132  Zn    0.50000   0.25000   0.19693   0.00000  Uiso   1.00
C133   C     0.83494   0.16357   0.25092   0.00000  Uiso   1.00
C134   C     0.79431   0.22806   0.44371   0.00000  Uiso   1.00
C135   C     0.83395   0.24949   0.02674   0.00000  Uiso   1.00
C136   C     0.83433   0.24990   0.47352   0.00000  Uiso   1.00
C137   C     0.73378   0.25011   0.23767   0.00000  Uiso   1.00
C138   C     0.93288   0.25035   0.26231   0.00000  Uiso   1.00
C139   C     0.67883   0.25024   0.23094   0.00000  Uiso   1.00
C140   C     0.98783   0.25110   0.26895   0.00000  Uiso   1.00
C141   C     0.83976   0.04141   0.28894   0.00000  Uiso   1.00
C142   C     0.81255   0.45624   0.21466   0.00000  Uiso   1.00
C143   C     0.83419   0.08735   0.29222   0.00000  Uiso   1.00
C144   C     0.83289   0.33601   0.24930   0.00000  Uiso   1.00
C145   C     0.80365   0.41011   0.21569   0.00000  Uiso   1.00
C146   C     0.84293   0.11531   0.25279   0.00000  Uiso   1.00
C147   C     0.83754   0.38391   0.24803   0.00000  Uiso   1.00
C148   C     0.86007   0.09660   0.21293   0.00000  Uiso   1.00
C149   C     0.87946   0.40326   0.27779   0.00000  Uiso   1.00
C150   C     0.86649   0.05096   0.21073   0.00000  Uiso   1.00
C151   C     0.88801   0.44908   0.27638   0.00000  Uiso   1.00
C152   C     0.85547   0.02350   0.24863   0.00000  Uiso   1.00
C153   C     0.85395   0.47546   0.24509   0.00000  Uiso   1.00
C154   C     0.81944   0.10381   0.33711   0.00000  Uiso   1.00
C155   C     0.80980   0.21450   0.05085   0.00000  Uiso   1.00
C156   C     0.75774   0.39029   0.18500   0.00000  Uiso   1.00
C157   C     0.88838   0.31992   0.13106   0.00000  Uiso   1.00
C158   C     0.75384   0.19977   0.36591   0.00000  Uiso   1.00
C159   C     0.87401   0.27210   0.45158   0.00000  Uiso   1.00
C160   C     0.80934   0.21572   0.10023   0.00000  Uiso   1.00
C161   C     0.87240   0.27219   0.40186   0.00000  Uiso   1.00
C162   C     0.85829   0.28402   0.10390   0.00000  Uiso   1.00
C163   C     0.79475   0.22721   0.39429   0.00000  Uiso   1.00
C164   C     0.85755   0.28458   0.05428   0.00000  Uiso   1.00
Cl165  Cl    0.88763   0.02911   0.15993   0.00000  Uiso   1.00
Cl166  Cl    0.94120   0.47250   0.31424   0.00000  Uiso   1.00
H167   H     0.99185   0.24932   0.19476   0.00000  Uiso   1.00
H168   H     0.90299   0.28964   0.38578   0.00000  Uiso   1.00
H169   H     0.87607   0.31239   0.03744   0.00000  Uiso   1.00
H170   H     0.76264   0.21115   0.45876   0.00000  Uiso   1.00
H171   H     0.83778   0.13361   0.35343   0.00000  Uiso   1.00
H172   H     0.74637   0.35539   0.18942   0.00000  Uiso   1.00
H173   H     0.90662   0.31398   0.16704   0.00000  Uiso   1.00
H174   H     0.75999   0.18674   0.33234   0.00000  Uiso   1.00
H175   H     0.67477   0.25232   0.30508   0.00000  Uiso   1.00
H176   H     0.83147   0.01913   0.31784   0.00000  Uiso   1.00
H177   H     0.78600   0.47768   0.19169   0.00000  Uiso   1.00
H178   H     0.86837   0.11741   0.18300   0.00000  Uiso   1.00
H179   H     0.90589   0.38255   0.30173   0.00000  Uiso   1.00
H180   H     0.79182   0.18582   0.03209   0.00000  Uiso   1.00
H181   H     0.90671   0.28893   0.47245   0.00000  Uiso   1.00
H182   H     0.79027   0.18875   0.11785   0.00000  Uiso   1.00
N183   N     0.83333   0.24999   0.12624   0.00000  Uiso   1.00
N184   N     0.83333   0.25001   0.37376   0.00000  Uiso   1.00
O185   O     0.83334   0.18454   0.28974   0.00000  Uiso   1.00
O186   O     0.73161   0.41292   0.15443   0.00000  Uiso   1.00
O187   O     0.89443   0.35685   0.11284   0.00000  Uiso   1.00
O188   O     0.71246   0.19024   0.38049   0.00000  Uiso   1.00
O189   O     0.83333   0.31547   0.21026   0.00000  Uiso   1.00
O190   O     0.83334   0.18453   0.21026   0.00000  Uiso   1.00
O191   O     0.83333   0.31547   0.28974   0.00000  Uiso   1.00
O192   O     0.75725   0.25000   0.28045   0.00000  Uiso   1.00
O193   O     0.90942   0.25000   0.21955   0.00000  Uiso   1.00
O194   O     0.75725   0.25000   0.20097   0.00000  Uiso   1.00
O195   O     0.90942   0.25001   0.29903   0.00000  Uiso   1.00
O196   O     0.78768   0.08285   0.35763   0.00000  Uiso   1.00
Zn197  Zn    0.83333   0.25001   0.30307   0.00000  Uiso   1.00
Zn198  Zn    0.83333   0.25000   0.19693   0.00000  Uiso   1.00
C199   C     0.16828   0.66357   0.25092   0.00000  Uiso   1.00
C200   C     0.12764   0.72806   0.44371   0.00000  Uiso   1.00
C201   C     0.16728   0.74949   0.02674   0.00000  Uiso   1.00
C202   C     0.16767   0.74990   0.47352   0.00000  Uiso   1.00
C203   C     0.06712   0.75011   0.23767   0.00000  Uiso   1.00
C204   C     0.26622   0.75035   0.26231   0.00000  Uiso   1.00
C205   C     0.01216   0.75024   0.23094   0.00000  Uiso   1.00
C206   C     0.32116   0.75110   0.26895   0.00000  Uiso   1.00
C207   C     0.17309   0.54141   0.28894   0.00000  Uiso   1.00
C208   C     0.14588   0.95624   0.21466   0.00000  Uiso   1.00
C209   C     0.16752   0.58735   0.29222   0.00000  Uiso   1.00
C210   C     0.16622   0.83601   0.24930   0.00000  Uiso   1.00
C211   C     0.13698   0.91011   0.21569   0.00000  Uiso   1.00
C212   C     0.17626   0.61531   0.25279   0.00000  Uiso   1.00
C213   C     0.17087   0.88391   0.24803   0.00000  Uiso   1.00
C214   C     0.19340   0.59660   0.21293   0.00000  Uiso   1.00
C215   C     0.21279   0.90326   0.27779   0.00000  Uiso   1.00
C216   C     0.19983   0.55096   0.21073   0.00000  Uiso   1.00
C217   C     0.22134   0.94908   0.27638   0.00000  Uiso   1.00
C218   C     0.18880   0.52350   0.24863   0.00000  Uiso   1.00
C219   C     0.18728   0.97546   0.24509   0.00000  Uiso   1.00
C220   C     0.15277   0.60381   0.33711   0.00000  Uiso   1.00
C221   C     0.14314   0.71450   0.05085   0.00000  Uiso   1.00
C222   C     0.09107   0.89029   0.18500   0.00000  Uiso   1.00
C223   C     0.22172   0.81992   0.13106   0.00000  Uiso   1.00
C224   C     0.08718   0.69977   0.36591   0.00000  Uiso   1.00
C225   C     0.20735   0.77210   0.45158   0.00000  Uiso   1.00
C226   C     0.14268   0.71572   0.10023   0.00000  Uiso   1.00
C227   C     0.20573   0.77219   0.40186   0.00000  Uiso   1.00
C228   C     0.19162   0.78402   0.10390   0.00000  Uiso   1.00
C229   C     0.12808   0.72721   0.39429   0.00000  Uiso   1.00
C230   C     0.19088   0.78458   0.05428   0.00000  Uiso   1.00
Cl231  Cl    0.22096   0.52911   0.15993   0.00000  Uiso   1.00
Cl232  Cl    0.27453   0.97250   0.31424   0.00000  Uiso   1.00
H233   H     0.32518   0.74932   0.19476   0.00000  Uiso   1.00
H234   H     0.23633   0.78964   0.38578   0.00000  Uiso   1.00
H235   H     0.20940   0.81239   0.03744   0.00000  Uiso   1.00
H236   H     0.09598   0.71115   0.45876   0.00000  Uiso   1.00
H237   H     0.17111   0.63361   0.35343   0.00000  Uiso   1.00
H238   H     0.07971   0.85539   0.18942   0.00000  Uiso   1.00
H239   H     0.23995   0.81398   0.16704   0.00000  Uiso   1.00
H240   H     0.09332   0.68674   0.33234   0.00000  Uiso   1.00
H241   H     0.00811   0.75232   0.30508   0.00000  Uiso   1.00
H242   H     0.16480   0.51913   0.31784   0.00000  Uiso   1.00
H243   H     0.11933   0.97768   0.19169   0.00000  Uiso   1.00
H244   H     0.20171   0.61741   0.18300   0.00000  Uiso   1.00
H245   H     0.23922   0.88255   0.30173   0.00000  Uiso   1.00
H246   H     0.12515   0.68582   0.03209   0.00000  Uiso   1.00
H247   H     0.24004   0.78893   0.47245   0.00000  Uiso   1.00
H248   H     0.12360   0.68875   0.11785   0.00000  Uiso   1.00
N249   N     0.16667   0.74999   0.12624   0.00000  Uiso   1.00
N250   N     0.16667   0.75001   0.37376   0.00000  Uiso   1.00
O251   O     0.16667   0.68454   0.28974   0.00000  Uiso   1.00
O252   O     0.06494   0.91292   0.15443   0.00000  Uiso   1.00
O253   O     0.22776   0.85685   0.11284   0.00000  Uiso   1.00
O254   O     0.04579   0.69024   0.38049   0.00000  Uiso   1.00
O255   O     0.16666   0.81547   0.21026   0.00000  Uiso   1.00
O256   O     0.16667   0.68453   0.21026   0.00000  Uiso   1.00
O257   O     0.16666   0.81547   0.28974   0.00000  Uiso   1.00
O258   O     0.09058   0.75000   0.28045   0.00000  Uiso   1.00
O259   O     0.24275   0.75000   0.21955   0.00000  Uiso   1.00
O260   O     0.09058   0.75000   0.20097   0.00000  Uiso   1.00
O261   O     0.24275   0.75001   0.29903   0.00000  Uiso   1.00
O262   O     0.12101   0.58285   0.35763   0.00000  Uiso   1.00
Zn263  Zn    0.16667   0.75001   0.30307   0.00000  Uiso   1.00
Zn264  Zn    0.16667   0.75000   0.19693   0.00000  Uiso   1.00
C265   C     0.50161   0.66357   0.25092   0.00000  Uiso   1.00
C266   C     0.46097   0.72806   0.44371   0.00000  Uiso   1.00
C267   C     0.50062   0.74949   0.02674   0.00000  Uiso   1.00
C268   C     0.50100   0.74990   0.47352   0.00000  Uiso   1.00
C269   C     0.40045   0.75011   0.23767   0.00000  Uiso   1.00
C270   C     0.59955   0.75035   0.26231   0.00000  Uiso   1.00
C271   C     0.34549   0.75024   0.23094   0.00000  Uiso   1.00
C272   C     0.65449   0.75110   0.26895   0.00000  Uiso   1.00
C273   C     0.50643   0.54141   0.28894   0.00000  Uiso   1.00
C274   C     0.47921   0.95624   0.21466   0.00000  Uiso   1.00
C275   C     0.50086   0.58735   0.29222   0.00000  Uiso   1.00
C276   C     0.49956   0.83601   0.24930   0.00000  Uiso   1.00
C277   C     0.47032   0.91011   0.21569   0.00000  Uiso   1.00
C278   C     0.50959   0.61531   0.25279   0.00000  Uiso   1.00
C279   C     0.50420   0.88391   0.24803   0.00000  Uiso   1.00
C280   C     0.52673   0.59660   0.21293   0.00000  Uiso   1.00
C281   C     0.54613   0.90326   0.27779   0.00000  Uiso   1.00
C282   C     0.53316   0.55096   0.21073   0.00000  Uiso   1.00
C283   C     0.55467   0.94908   0.27638   0.00000  Uiso   1.00
C284   C     0.52213   0.52350   0.24863   0.00000  Uiso   1.00
C285   C     0.52062   0.97546   0.24509   0.00000  Uiso   1.00
C286   C     0.48610   0.60381   0.33711   0.00000  Uiso   1.00
C287   C     0.47647   0.71450   0.05085   0.00000  Uiso   1.00
C288   C     0.42441   0.89029   0.18500   0.00000  Uiso   1.00
C289   C     0.55505   0.81992   0.13106   0.00000  Uiso   1.00
C290   C     0.42051   0.69977   0.36591   0.00000  Uiso   1.00
C291   C     0.54068   0.77210   0.45158   0.00000  Uiso   1.00
C292   C     0.47601   0.71572   0.10023   0.00000  Uiso   1.00
C293   C     0.53907   0.77219   0.40186   0.00000  Uiso   1.00
C294   C     0.52496   0.78402   0.10390   0.00000  Uiso   1.00
C295   C     0.46142   0.72721   0.39429   0.00000  Uiso   1.00
C296   C     0.52421   0.78458   0.05428   0.00000  Uiso   1.00
Cl297  Cl    0.55430   0.52911   0.15993   0.00000  Uiso   1.00
Cl298  Cl    0.60787   0.97250   0.31424   0.00000  Uiso   1.00
H299   H     0.65851   0.74932   0.19476   0.00000  Uiso   1.00
H300   H     0.56966   0.78964   0.38578   0.00000  Uiso   1.00
H301   H     0.54274   0.81239   0.03744   0.00000  Uiso   1.00
H302   H     0.42931   0.71115   0.45876   0.00000  Uiso   1.00
H303   H     0.50444   0.63361   0.35343   0.00000  Uiso   1.00
H304   H     0.41304   0.85539   0.18942   0.00000  Uiso   1.00
H305   H     0.57328   0.81398   0.16704   0.00000  Uiso   1.00
H306   H     0.42666   0.68674   0.33234   0.00000  Uiso   1.00
H307   H     0.34144   0.75232   0.30508   0.00000  Uiso   1.00
H308   H     0.49814   0.51913   0.31784   0.00000  Uiso   1.00
H309   H     0.45267   0.97768   0.19169   0.00000  Uiso   1.00
H310   H     0.53504   0.61741   0.18300   0.00000  Uiso   1.00
H311   H     0.57255   0.88255   0.30173   0.00000  Uiso   1.00
H312   H     0.45849   0.68582   0.03209   0.00000  Uiso   1.00
H313   H     0.57338   0.78893   0.47245   0.00000  Uiso   1.00
H314   H     0.45693   0.68875   0.11785   0.00000  Uiso   1.00
N315   N     0.50000   0.74999   0.12624   0.00000  Uiso   1.00
N316   N     0.50000   0.75001   0.37376   0.00000  Uiso   1.00
O317   O     0.50000   0.68454   0.28974   0.00000  Uiso   1.00
O318   O     0.39827   0.91292   0.15443   0.00000  Uiso   1.00
O319   O     0.56109   0.85685   0.11284   0.00000  Uiso   1.00
O320   O     0.37912   0.69024   0.38049   0.00000  Uiso   1.00
O321   O     0.50000   0.81547   0.21026   0.00000  Uiso   1.00
O322   O     0.50000   0.68453   0.21026   0.00000  Uiso   1.00
O323   O     0.50000   0.81547   0.28974   0.00000  Uiso   1.00
O324   O     0.42392   0.75000   0.28045   0.00000  Uiso   1.00
O325   O     0.57608   0.75000   0.21955   0.00000  Uiso   1.00
O326   O     0.42392   0.75000   0.20097   0.00000  Uiso   1.00
O327   O     0.57608   0.75001   0.29903   0.00000  Uiso   1.00
O328   O     0.45434   0.58285   0.35763   0.00000  Uiso   1.00
Zn329  Zn    0.50000   0.75001   0.30307   0.00000  Uiso   1.00
Zn330  Zn    0.50000   0.75000   0.19693   0.00000  Uiso   1.00
C331   C     0.83494   0.66357   0.25092   0.00000  Uiso   1.00
C332   C     0.79431   0.72806   0.44371   0.00000  Uiso   1.00
C333   C     0.83395   0.74949   0.02674   0.00000  Uiso   1.00
C334   C     0.83433   0.74990   0.47352   0.00000  Uiso   1.00
C335   C     0.73378   0.75011   0.23767   0.00000  Uiso   1.00
C336   C     0.93288   0.75035   0.26231   0.00000  Uiso   1.00
C337   C     0.67883   0.75024   0.23094   0.00000  Uiso   1.00
C338   C     0.98783   0.75110   0.26895   0.00000  Uiso   1.00
C339   C     0.83976   0.54141   0.28894   0.00000  Uiso   1.00
C340   C     0.81255   0.95624   0.21466   0.00000  Uiso   1.00
C341   C     0.83419   0.58735   0.29222   0.00000  Uiso   1.00
C342   C     0.83289   0.83601   0.24930   0.00000  Uiso   1.00
C343   C     0.80365   0.91011   0.21569   0.00000  Uiso   1.00
C344   C     0.84293   0.61531   0.25279   0.00000  Uiso   1.00
C345   C     0.83754   0.88391   0.24803   0.00000  Uiso   1.00
C346   C     0.86007   0.59660   0.21293   0.00000  Uiso   1.00
C347   C     0.87946   0.90326   0.27779   0.00000  Uiso   1.00
C348   C     0.86649   0.55096   0.21073   0.00000  Uiso   1.00
C349   C     0.88801   0.94908   0.27638   0.00000  Uiso   1.00
C350   C     0.85547   0.52350   0.24863   0.00000  Uiso   1.00
C351   C     0.85395   0.97546   0.24509   0.00000  Uiso   1.00
C352   C     0.81944   0.60381   0.33711   0.00000  Uiso   1.00
C353   C     0.80980   0.71450   0.05085   0.00000  Uiso   1.00
C354   C     0.75774   0.89029   0.18500   0.00000  Uiso   1.00
C355   C     0.88838   0.81992   0.13106   0.00000  Uiso   1.00
C356   C     0.75384   0.69977   0.36591   0.00000  Uiso   1.00
C357   C     0.87401   0.77210   0.45158   0.00000  Uiso   1.00
C358   C     0.80934   0.71572   0.10023   0.00000  Uiso   1.00
C359   C     0.87240   0.77219   0.40186   0.00000  Uiso   1.00
C360   C     0.85829   0.78402   0.10390   0.00000  Uiso   1.00
C361   C     0.79475   0.72721   0.39429   0.00000  Uiso   1.00
C362   C     0.85755   0.78458   0.05428   0.00000  Uiso   1.00
Cl363  Cl    0.88763   0.52911   0.15993   0.00000  Uiso   1.00
Cl364  Cl    0.94120   0.97250   0.31424   0.00000  Uiso   1.00
H365   H     0.99185   0.74932   0.19476   0.00000  Uiso   1.00
H366   H     0.90299   0.78964   0.38578   0.00000  Uiso   1.00
H367   H     0.87607   0.81239   0.03744   0.00000  Uiso   1.00
H368   H     0.76264   0.71115   0.45876   0.00000  Uiso   1.00
H369   H     0.83778   0.63361   0.35343   0.00000  Uiso   1.00
H370   H     0.74637   0.85539   0.18942   0.00000  Uiso   1.00
H371   H     0.90662   0.81398   0.16704   0.00000  Uiso   1.00
H372   H     0.75999   0.68674   0.33234   0.00000  Uiso   1.00
H373   H     0.67477   0.75232   0.30508   0.00000  Uiso   1.00
H374   H     0.83147   0.51913   0.31784   0.00000  Uiso   1.00
H375   H     0.78600   0.97768   0.19169   0.00000  Uiso   1.00
H376   H     0.86837   0.61741   0.18300   0.00000  Uiso   1.00
H377   H     0.90589   0.88255   0.30173   0.00000  Uiso   1.00
H378   H     0.79182   0.68582   0.03209   0.00000  Uiso   1.00
H379   H     0.90671   0.78893   0.47245   0.00000  Uiso   1.00
H380   H     0.79027   0.68875   0.11785   0.00000  Uiso   1.00
N381   N     0.83333   0.74999   0.12624   0.00000  Uiso   1.00
N382   N     0.83333   0.75001   0.37376   0.00000  Uiso   1.00
O383   O     0.83334   0.68454   0.28974   0.00000  Uiso   1.00
O384   O     0.73161   0.91292   0.15443   0.00000  Uiso   1.00
O385   O     0.89443   0.85685   0.11284   0.00000  Uiso   1.00
O386   O     0.71246   0.69024   0.38049   0.00000  Uiso   1.00
O387   O     0.83333   0.81547   0.21026   0.00000  Uiso   1.00
O388   O     0.83334   0.68453   0.21026   0.00000  Uiso   1.00
O389   O     0.83333   0.81547   0.28974   0.00000  Uiso   1.00
O390   O     0.75725   0.75000   0.28045   0.00000  Uiso   1.00
O391   O     0.90942   0.75000   0.21955   0.00000  Uiso   1.00
O392   O     0.75725   0.75000   0.20097   0.00000  Uiso   1.00
O393   O     0.90942   0.75001   0.29903   0.00000  Uiso   1.00
O394   O     0.78768   0.58285   0.35763   0.00000  Uiso   1.00
Zn395  Zn    0.83333   0.75001   0.30307   0.00000  Uiso   1.00
Zn396  Zn    0.83333   0.75000   0.19693   0.00000  Uiso   1.00
C397   C     0.16828   0.16357   0.75092   0.00000  Uiso   1.00
C398   C     0.12764   0.22806   0.94371   0.00000  Uiso   1.00
C399   C     0.16728   0.24949   0.52674   0.00000  Uiso   1.00
C400   C     0.16767   0.24990   0.97352   0.00000  Uiso   1.00
C401   C     0.06712   0.25011   0.73767   0.00000  Uiso   1.00
C402   C     0.26622   0.25035   0.76231   0.00000  Uiso   1.00
C403   C     0.01216   0.25024   0.73094   0.00000  Uiso   1.00
C404   C     0.32116   0.25110   0.76895   0.00000  Uiso   1.00
C405   C     0.17309   0.04141   0.78894   0.00000  Uiso   1.00
C406   C     0.14588   0.45624   0.71466   0.00000  Uiso   1.00
C407   C     0.16752   0.08735   0.79222   0.00000  Uiso   1.00
C408   C     0.16622   0.33601   0.74930   0.00000  Uiso   1.00
C409   C     0.13698   0.41011   0.71569   0.00000  Uiso   1.00
C410   C     0.17626   0.11531   0.75279   0.00000  Uiso   1.00
C411   C     0.17087   0.38391   0.74803   0.00000  Uiso   1.00
C412   C     0.19340   0.09660   0.71293   0.00000  Uiso   1.00
C413   C     0.21279   0.40326   0.77779   0.00000  Uiso   1.00
C414   C     0.19983   0.05096   0.71073   0.00000  Uiso   1.00
C415   C     0.22134   0.44908   0.77638   0.00000  Uiso   1.00
C416   C     0.18880   0.02350   0.74863   0.00000  Uiso   1.00
C417   C     0.18728   0.47546   0.74509   0.00000  Uiso   1.00
C418   C     0.15277   0.10381   0.83711   0.00000  Uiso   1.00
C419   C     0.14314   0.21450   0.55085   0.00000  Uiso   1.00
C420   C     0.09107   0.39029   0.68500   0.00000  Uiso   1.00
C421   C     0.22172   0.31992   0.63106   0.00000  Uiso   1.00
C422   C     0.08718   0.19977   0.86591   0.00000  Uiso   1.00
C423   C     0.20735   0.27210   0.95158   0.00000  Uiso   1.00
C424   C     0.14268   0.21572   0.60023   0.00000  Uiso   1.00
C425   C     0.20573   0.27219   0.90186   0.00000  Uiso   1.00
C426   C     0.19162   0.28402   0.60390   0.00000  Uiso   1.00
C427   C     0.12808   0.22721   0.89429   0.00000  Uiso   1.00
C428   C     0.19088   0.28458   0.55428   0.00000  Uiso   1.00
Cl429  Cl    0.22096   0.02911   0.65993   0.00000  Uiso   1.00
Cl430  Cl    0.27453   0.47250   0.81424   0.00000  Uiso   1.00
H431   H     0.32518   0.24932   0.69476   0.00000  Uiso   1.00
H432   H     0.23633   0.28964   0.88578   0.00000  Uiso   1.00
H433   H     0.20940   0.31239   0.53744   0.00000  Uiso   1.00
H434   H     0.09598   0.21115   0.95876   0.00000  Uiso   1.00
H435   H     0.17111   0.13361   0.85343   0.00000  Uiso   1.00
H436   H     0.07971   0.35539   0.68942   0.00000  Uiso   1.00
H437   H     0.23995   0.31398   0.66704   0.00000  Uiso   1.00
H438   H     0.09332   0.18674   0.83234   0.00000  Uiso   1.00
H439   H     0.00811   0.25232   0.80508   0.00000  Uiso   1.00
H440   H     0.16480   0.01913   0.81784   0.00000  Uiso   1.00
H441   H     0.11933   0.47768   0.69169   0.00000  Uiso   1.00
H442   H     0.20171   0.11741   0.68300   0.00000  Uiso   1.00
H443   H     0.23922   0.38255   0.80173   0.00000  Uiso   1.00
H444   H     0.12515   0.18582   0.53209   0.00000  Uiso   1.00
H445   H     0.24004   0.28893   0.97245   0.00000  Uiso   1.00
H446   H     0.12360   0.18875   0.61785   0.00000  Uiso   1.00
N447   N     0.16667   0.24999   0.62624   0.00000  Uiso   1.00
N448   N     0.16667   0.25001   0.87376   0.00000  Uiso   1.00
O449   O     0.16667   0.18454   0.78974   0.00000  Uiso   1.00
O450   O     0.06494   0.41292   0.65443   0.00000  Uiso   1.00
O451   O     0.22776   0.35685   0.61284   0.00000  Uiso   1.00
O452   O     0.04579   0.19024   0.88049   0.00000  Uiso   1.00
O453   O     0.16666   0.31547   0.71026   0.00000  Uiso   1.00
O454   O     0.16667   0.18453   0.71026   0.00000  Uiso   1.00
O455   O     0.16666   0.31547   0.78974   0.00000  Uiso   1.00
O456   O     0.09058   0.25000   0.78045   0.00000  Uiso   1.00
O457   O     0.24275   0.25000   0.71955   0.00000  Uiso   1.00
O458   O     0.09058   0.25000   0.70097   0.00000  Uiso   1.00
O459   O     0.24275   0.25001   0.79903   0.00000  Uiso   1.00
O460   O     0.12101   0.08285   0.85763   0.00000  Uiso   1.00
Zn461  Zn    0.16667   0.25001   0.80307   0.00000  Uiso   1.00
Zn462  Zn    0.16667   0.25000   0.69693   0.00000  Uiso   1.00
C463   C     0.50161   0.16357   0.75092   0.00000  Uiso   1.00
C464   C     0.46097   0.22806   0.94371   0.00000  Uiso   1.00
C465   C     0.50062   0.24949   0.52674   0.00000  Uiso   1.00
C466   C     0.50100   0.24990   0.97352   0.00000  Uiso   1.00
C467   C     0.40045   0.25011   0.73767   0.00000  Uiso   1.00
C468   C     0.59955   0.25035   0.76231   0.00000  Uiso   1.00
C469   C     0.34549   0.25024   0.73094   0.00000  Uiso   1.00
C470   C     0.65449   0.25110   0.76895   0.00000  Uiso   1.00
C471   C     0.50643   0.04141   0.78894   0.00000  Uiso   1.00
C472   C     0.47921   0.45624   0.71466   0.00000  Uiso   1.00
C473   C     0.50086   0.08735   0.79222   0.00000  Uiso   1.00
C474   C     0.49956   0.33601   0.74930   0.00000  Uiso   1.00
C475   C     0.47032   0.41011   0.71569   0.00000  Uiso   1.00
C476   C     0.50959   0.11531   0.75279   0.00000  Uiso   1.00
C477   C     0.50420   0.38391   0.74803   0.00000  Uiso   1.00
C478   C     0.52673   0.09660   0.71293   0.00000  Uiso   1.00
C479   C     0.54613   0.40326   0.77779   0.00000  Uiso   1.00
C480   C     0.53316   0.05096   0.71073   0.00000  Uiso   1.00
C481   C     0.55467   0.44908   0.77638   0.00000  Uiso   1.00
C482   C     0.52213   0.02350   0.74863   0.00000  Uiso   1.00
C483   C     0.52062   0.47546   0.74509   0.00000  Uiso   1.00
C484   C     0.48610   0.10381   0.83711   0.00000  Uiso   1.00
C485   C     0.47647   0.21450   0.55085   0.00000  Uiso   1.00
C486   C     0.42441   0.39029   0.68500   0.00000  Uiso   1.00
C487   C     0.55505   0.31992   0.63106   0.00000  Uiso   1.00
C488   C     0.42051   0.19977   0.86591   0.00000  Uiso   1.00
C489   C     0.54068   0.27210   0.95158   0.00000  Uiso   1.00
C490   C     0.47601   0.21572   0.60023   0.00000  Uiso   1.00
C491   C     0.53907   0.27219   0.90186   0.00000  Uiso   1.00
C492   C     0.52496   0.28402   0.60390   0.00000  Uiso   1.00
C493   C     0.46142   0.22721   0.89429   0.00000  Uiso   1.00
C494   C     0.52421   0.28458   0.55428   0.00000  Uiso   1.00
Cl495  Cl    0.55430   0.02911   0.65993   0.00000  Uiso   1.00
Cl496  Cl    0.60787   0.47250   0.81424   0.00000  Uiso   1.00
H497   H     0.65851   0.24932   0.69476   0.00000  Uiso   1.00
H498   H     0.56966   0.28964   0.88578   0.00000  Uiso   1.00
H499   H     0.54274   0.31239   0.53744   0.00000  Uiso   1.00
H500   H     0.42931   0.21115   0.95876   0.00000  Uiso   1.00
H501   H     0.50444   0.13361   0.85343   0.00000  Uiso   1.00
H502   H     0.41304   0.35539   0.68942   0.00000  Uiso   1.00
H503   H     0.57328   0.31398   0.66704   0.00000  Uiso   1.00
H504   H     0.42666   0.18674   0.83234   0.00000  Uiso   1.00
H505   H     0.34144   0.25232   0.80508   0.00000  Uiso   1.00
H506   H     0.49814   0.01913   0.81784   0.00000  Uiso   1.00
H507   H     0.45267   0.47768   0.69169   0.00000  Uiso   1.00
H508   H     0.53504   0.11741   0.68300   0.00000  Uiso   1.00
H509   H     0.57255   0.38255   0.80173   0.00000  Uiso   1.00
H510   H     0.45849   0.18582   0.53209   0.00000  Uiso   1.00
H511   H     0.57338   0.28893   0.97245   0.00000  Uiso   1.00
H512   H     0.45693   0.18875   0.61785   0.00000  Uiso   1.00
N513   N     0.50000   0.24999   0.62624   0.00000  Uiso   1.00
N514   N     0.50000   0.25001   0.87376   0.00000  Uiso   1.00
O515   O     0.50000   0.18454   0.78974   0.00000  Uiso   1.00
O516   O     0.39827   0.41292   0.65443   0.00000  Uiso   1.00
O517   O     0.56109   0.35685   0.61284   0.00000  Uiso   1.00
O518   O     0.37912   0.19024   0.88049   0.00000  Uiso   1.00
O519   O     0.50000   0.31547   0.71026   0.00000  Uiso   1.00
O520   O     0.50000   0.18453   0.71026   0.00000  Uiso   1.00
O521   O     0.50000   0.31547   0.78974   0.00000  Uiso   1.00
O522   O     0.42392   0.25000   0.78045   0.00000  Uiso   1.00
O523   O     0.57608   0.25000   0.71955   0.00000  Uiso   1.00
O524   O     0.42392   0.25000   0.70097   0.00000  Uiso   1.00
O525   O     0.57608   0.25001   0.79903   0.00000  Uiso   1.00
O526   O     0.45434   0.08285   0.85763   0.00000  Uiso   1.00
Zn527  Zn    0.50000   0.25001   0.80307   0.00000  Uiso   1.00
Zn528  Zn    0.50000   0.25000   0.69693   0.00000  Uiso   1.00
C529   C     0.83494   0.16357   0.75092   0.00000  Uiso   1.00
C530   C     0.79431   0.22806   0.94371   0.00000  Uiso   1.00
C531   C     0.83395   0.24949   0.52674   0.00000  Uiso   1.00
C532   C     0.83433   0.24990   0.97352   0.00000  Uiso   1.00
C533   C     0.73378   0.25011   0.73767   0.00000  Uiso   1.00
C534   C     0.93288   0.25035   0.76231   0.00000  Uiso   1.00
C535   C     0.67883   0.25024   0.73094   0.00000  Uiso   1.00
C536   C     0.98783   0.25110   0.76895   0.00000  Uiso   1.00
C537   C     0.83976   0.04141   0.78894   0.00000  Uiso   1.00
C538   C     0.81255   0.45624   0.71466   0.00000  Uiso   1.00
C539   C     0.83419   0.08735   0.79222   0.00000  Uiso   1.00
C540   C     0.83289   0.33601   0.74930   0.00000  Uiso   1.00
C541   C     0.80365   0.41011   0.71569   0.00000  Uiso   1.00
C542   C     0.84293   0.11531   0.75279   0.00000  Uiso   1.00
C543   C     0.83754   0.38391   0.74803   0.00000  Uiso   1.00
C544   C     0.86007   0.09660   0.71293   0.00000  Uiso   1.00
C545   C     0.87946   0.40326   0.77779   0.00000  Uiso   1.00
C546   C     0.86649   0.05096   0.71073   0.00000  Uiso   1.00
C547   C     0.88801   0.44908   0.77638   0.00000  Uiso   1.00
C548   C     0.85547   0.02350   0.74863   0.00000  Uiso   1.00
C549   C     0.85395   0.47546   0.74509   0.00000  Uiso   1.00
C550   C     0.81944   0.10381   0.83711   0.00000  Uiso   1.00
C551   C     0.80980   0.21450   0.55085   0.00000  Uiso   1.00
C552   C     0.75774   0.39029   0.68500   0.00000  Uiso   1.00
C553   C     0.88838   0.31992   0.63106   0.00000  Uiso   1.00
C554   C     0.75384   0.19977   0.86591   0.00000  Uiso   1.00
C555   C     0.87401   0.27210   0.95158   0.00000  Uiso   1.00
C556   C     0.80934   0.21572   0.60023   0.00000  Uiso   1.00
C557   C     0.87240   0.27219   0.90186   0.00000  Uiso   1.00
C558   C     0.85829   0.28402   0.60390   0.00000  Uiso   1.00
C559   C     0.79475   0.22721   0.89429   0.00000  Uiso   1.00
C560   C     0.85755   0.28458   0.55428   0.00000  Uiso   1.00
Cl561  Cl    0.88763   0.02911   0.65993   0.00000  Uiso   1.00
Cl562  Cl    0.94120   0.47250   0.81424   0.00000  Uiso   1.00
H563   H     0.99185   0.24932   0.69476   0.00000  Uiso   1.00
H564   H     0.90299   0.28964   0.88578   0.00000  Uiso   1.00
H565   H     0.87607   0.31239   0.53744   0.00000  Uiso   1.00
H566   H     0.76264   0.21115   0.95876   0.00000  Uiso   1.00
H567   H     0.83778   0.13361   0.85343   0.00000  Uiso   1.00
H568   H     0.74637   0.35539   0.68942   0.00000  Uiso   1.00
H569   H     0.90662   0.31398   0.66704   0.00000  Uiso   1.00
H570   H     0.75999   0.18674   0.83234   0.00000  Uiso   1.00
H571   H     0.67477   0.25232   0.80508   0.00000  Uiso   1.00
H572   H     0.83147   0.01913   0.81784   0.00000  Uiso   1.00
H573   H     0.78600   0.47768   0.69169   0.00000  Uiso   1.00
H574   H     0.86837   0.11741   0.68300   0.00000  Uiso   1.00
H575   H     0.90589   0.38255   0.80173   0.00000  Uiso   1.00
H576   H     0.79182   0.18582   0.53209   0.00000  Uiso   1.00
H577   H     0.90671   0.28893   0.97245   0.00000  Uiso   1.00
H578   H     0.79027   0.18875   0.61785   0.00000  Uiso   1.00
N579   N     0.83333   0.24999   0.62624   0.00000  Uiso   1.00
N580   N     0.83333   0.25001   0.87376   0.00000  Uiso   1.00
O581   O     0.83334   0.18454   0.78974   0.00000  Uiso   1.00
O582   O     0.73161   0.41292   0.65443   0.00000  Uiso   1.00
O583   O     0.89443   0.35685   0.61284   0.00000  Uiso   1.00
O584   O     0.71246   0.19024   0.88049   0.00000  Uiso   1.00
O585   O     0.83333   0.31547   0.71026   0.00000  Uiso   1.00
O586   O     0.83334   0.18453   0.71026   0.00000  Uiso   1.00
O587   O     0.83333   0.31547   0.78974   0.00000  Uiso   1.00
O588   O     0.75725   0.25000   0.78045   0.00000  Uiso   1.00
O589   O     0.90942   0.25000   0.71955   0.00000  Uiso   1.00
O590   O     0.75725   0.25000   0.70097   0.00000  Uiso   1.00
O591   O     0.90942   0.25001   0.79903   0.00000  Uiso   1.00
O592   O     0.78768   0.08285   0.85763   0.00000  Uiso   1.00
Zn593  Zn    0.83333   0.25001   0.80307   0.00000  Uiso   1.00
Zn594  Zn    0.83333   0.25000   0.69693   0.00000  Uiso   1.00
C595   C     0.16828   0.66357   0.75092   0.00000  Uiso   1.00
C596   C     0.12764   0.72806   0.94371   0.00000  Uiso   1.00
C597   C     0.16728   0.74949   0.52674   0.00000  Uiso   1.00
C598   C     0.16767   0.74990   0.97352   0.00000  Uiso   1.00
C599   C     0.06712   0.75011   0.73767   0.00000  Uiso   1.00
C600   C     0.26622   0.75035   0.76231   0.00000  Uiso   1.00
C601   C     0.01216   0.75024   0.73094   0.00000  Uiso   1.00
C602   C     0.32116   0.75110   0.76895   0.00000  Uiso   1.00
C603   C     0.17309   0.54141   0.78894   0.00000  Uiso   1.00
C604   C     0.14588   0.95624   0.71466   0.00000  Uiso   1.00
C605   C     0.16752   0.58735   0.79222   0.00000  Uiso   1.00
C606   C     0.16622   0.83601   0.74930   0.00000  Uiso   1.00
C607   C     0.13698   0.91011   0.71569   0.00000  Uiso   1.00
C608   C     0.17626   0.61531   0.75279   0.00000  Uiso   1.00
C609   C     0.17087   0.88391   0.74803   0.00000  Uiso   1.00
C610   C     0.19340   0.59660   0.71293   0.00000  Uiso   1.00
C611   C     0.21279   0.90326   0.77779   0.00000  Uiso   1.00
C612   C     0.19983   0.55096   0.71073   0.00000  Uiso   1.00
C613   C     0.22134   0.94908   0.77638   0.00000  Uiso   1.00
C614   C     0.18880   0.52350   0.74863   0.00000  Uiso   1.00
C615   C     0.18728   0.97546   0.74509   0.00000  Uiso   1.00
C616   C     0.15277   0.60381   0.83711   0.00000  Uiso   1.00
C617   C     0.14314   0.71450   0.55085   0.00000  Uiso   1.00
C618   C     0.09107   0.89029   0.68500   0.00000  Uiso   1.00
C619   C     0.22172   0.81992   0.63106   0.00000  Uiso   1.00
C620   C     0.08718   0.69977   0.86591   0.00000  Uiso   1.00
C621   C     0.20735   0.77210   0.95158   0.00000  Uiso   1.00
C622   C     0.14268   0.71572   0.60023   0.00000  Uiso   1.00
C623   C     0.20573   0.77219   0.90186   0.00000  Uiso   1.00
C624   C     0.19162   0.78402   0.60390   0.00000  Uiso   1.00
C625   C     0.12808   0.72721   0.89429   0.00000  Uiso   1.00
C626   C     0.19088   0.78458   0.55428   0.00000  Uiso   1.00
Cl627  Cl    0.22096   0.52911   0.65993   0.00000  Uiso   1.00
Cl628  Cl    0.27453   0.97250   0.81424   0.00000  Uiso   1.00
H629   H     0.32518   0.74932   0.69476   0.00000  Uiso   1.00
H630   H     0.23633   0.78964   0.88578   0.00000  Uiso   1.00
H631   H     0.20940   0.81239   0.53744   0.00000  Uiso   1.00
H632   H     0.09598   0.71115   0.95876   0.00000  Uiso   1.00
H633   H     0.17111   0.63361   0.85343   0.00000  Uiso   1.00
H634   H     0.07971   0.85539   0.68942   0.00000  Uiso   1.00
H635   H     0.23995   0.81398   0.66704   0.00000  Uiso   1.00
H636   H     0.09332   0.68674   0.83234   0.00000  Uiso   1.00
H637   H     0.00811   0.75232   0.80508   0.00000  Uiso   1.00
H638   H     0.16480   0.51913   0.81784   0.00000  Uiso   1.00
H639   H     0.11933   0.97768   0.69169   0.00000  Uiso   1.00
H640   H     0.20171   0.61741   0.68300   0.00000  Uiso   1.00
H641   H     0.23922   0.88255   0.80173   0.00000  Uiso   1.00
H642   H     0.12515   0.68582   0.53209   0.00000  Uiso   1.00
H643   H     0.24004   0.78893   0.97245   0.00000  Uiso   1.00
H644   H     0.12360   0.68875   0.61785   0.00000  Uiso   1.00
N645   N     0.16667   0.74999   0.62624   0.00000  Uiso   1.00
N646   N     0.16667   0.75001   0.87376   0.00000  Uiso   1.00
O647   O     0.16667   0.68454   0.78974   0.00000  Uiso   1.00
O648   O     0.06494   0.91292   0.65443   0.00000  Uiso   1.00
O649   O     0.22776   0.85685   0.61284   0.00000  Uiso   1.00
O650   O     0.04579   0.69024   0.88049   0.00000  Uiso   1.00
O651   O     0.16666   0.81547   0.71026   0.00000  Uiso   1.00
O652   O     0.16667   0.68453   0.71026   0.00000  Uiso   1.00
O653   O     0.16666   0.81547   0.78974   0.00000  Uiso   1.00
O654   O     0.09058   0.75000   0.78045   0.00000  Uiso   1.00
O655   O     0.24275   0.75000   0.71955   0.00000  Uiso   1.00
O656   O     0.09058   0.75000   0.70097   0.00000  Uiso   1.00
O657   O     0.24275   0.75001   0.79903   0.00000  Uiso   1.00
O658   O     0.12101   0.58285   0.85763   0.00000  Uiso   1.00
Zn659  Zn    0.16667   0.75001   0.80307   0.00000  Uiso   1.00
Zn660  Zn    0.16667   0.75000   0.69693   0.00000  Uiso   1.00
C661   C     0.50161   0.66357   0.75092   0.00000  Uiso   1.00
C662   C     0.46097   0.72806   0.94371   0.00000  Uiso   1.00
C663   C     0.50062   0.74949   0.52674   0.00000  Uiso   1.00
C664   C     0.50100   0.74990   0.97352   0.00000  Uiso   1.00
C665   C     0.40045   0.75011   0.73767   0.00000  Uiso   1.00
C666   C     0.59955   0.75035   0.76231   0.00000  Uiso   1.00
C667   C     0.34549   0.75024   0.73094   0.00000  Uiso   1.00
C668   C     0.65449   0.75110   0.76895   0.00000  Uiso   1.00
C669   C     0.50643   0.54141   0.78894   0.00000  Uiso   1.00
C670   C     0.47921   0.95624   0.71466   0.00000  Uiso   1.00
C671   C     0.50086   0.58735   0.79222   0.00000  Uiso   1.00
C672   C     0.49956   0.83601   0.74930   0.00000  Uiso   1.00
C673   C     0.47032   0.91011   0.71569   0.00000  Uiso   1.00
C674   C     0.50959   0.61531   0.75279   0.00000  Uiso   1.00
C675   C     0.50420   0.88391   0.74803   0.00000  Uiso   1.00
C676   C     0.52673   0.59660   0.71293   0.00000  Uiso   1.00
C677   C     0.54613   0.90326   0.77779   0.00000  Uiso   1.00
C678   C     0.53316   0.55096   0.71073   0.00000  Uiso   1.00
C679   C     0.55467   0.94908   0.77638   0.00000  Uiso   1.00
C680   C     0.52213   0.52350   0.74863   0.00000  Uiso   1.00
C681   C     0.52062   0.97546   0.74509   0.00000  Uiso   1.00
C682   C     0.48610   0.60381   0.83711   0.00000  Uiso   1.00
C683   C     0.47647   0.71450   0.55085   0.00000  Uiso   1.00
C684   C     0.42441   0.89029   0.68500   0.00000  Uiso   1.00
C685   C     0.55505   0.81992   0.63106   0.00000  Uiso   1.00
C686   C     0.42051   0.69977   0.86591   0.00000  Uiso   1.00
C687   C     0.54068   0.77210   0.95158   0.00000  Uiso   1.00
C688   C     0.47601   0.71572   0.60023   0.00000  Uiso   1.00
C689   C     0.53907   0.77219   0.90186   0.00000  Uiso   1.00
C690   C     0.52496   0.78402   0.60390   0.00000  Uiso   1.00
C691   C     0.46142   0.72721   0.89429   0.00000  Uiso   1.00
C692   C     0.52421   0.78458   0.55428   0.00000  Uiso   1.00
Cl693  Cl    0.55430   0.52911   0.65993   0.00000  Uiso   1.00
Cl694  Cl    0.60787   0.97250   0.81424   0.00000  Uiso   1.00
H695   H     0.65851   0.74932   0.69476   0.00000  Uiso   1.00
H696   H     0.56966   0.78964   0.88578   0.00000  Uiso   1.00
H697   H     0.54274   0.81239   0.53744   0.00000  Uiso   1.00
H698   H     0.42931   0.71115   0.95876   0.00000  Uiso   1.00
H699   H     0.50444   0.63361   0.85343   0.00000  Uiso   1.00
H700   H     0.41304   0.85539   0.68942   0.00000  Uiso   1.00
H701   H     0.57328   0.81398   0.66704   0.00000  Uiso   1.00
H702   H     0.42666   0.68674   0.83234   0.00000  Uiso   1.00
H703   H     0.34144   0.75232   0.80508   0.00000  Uiso   1.00
H704   H     0.49814   0.51913   0.81784   0.00000  Uiso   1.00
H705   H     0.45267   0.97768   0.69169   0.00000  Uiso   1.00
H706   H     0.53504   0.61741   0.68300   0.00000  Uiso   1.00
H707   H     0.57255   0.88255   0.80173   0.00000  Uiso   1.00
H708   H     0.45849   0.68582   0.53209   0.00000  Uiso   1.00
H709   H     0.57338   0.78893   0.97245   0.00000  Uiso   1.00
H710   H     0.45693   0.68875   0.61785   0.00000  Uiso   1.00
N711   N     0.50000   0.74999   0.62624   0.00000  Uiso   1.00
N712   N     0.50000   0.75001   0.87376   0.00000  Uiso   1.00
O713   O     0.50000   0.68454   0.78974   0.00000  Uiso   1.00
O714   O     0.39827   0.91292   0.65443   0.00000  Uiso   1.00
O715   O     0.56109   0.85685   0.61284   0.00000  Uiso   1.00
O716   O     0.37912   0.69024   0.88049   0.00000  Uiso   1.00
O717   O     0.50000   0.81547   0.71026   0.00000  Uiso   1.00
O718   O     0.50000   0.68453   0.71026   0.00000  Uiso   1.00
O719   O     0.50000   0.81547   0.78974   0.00000  Uiso   1.00
O720   O     0.42392   0.75000   0.78045   0.00000  Uiso   1.00
O721   O     0.57608   0.75000   0.71955   0.00000  Uiso   1.00
O722   O     0.42392   0.75000   0.70097   0.00000  Uiso   1.00
O723   O     0.57608   0.75001   0.79903   0.00000  Uiso   1.00
O724   O     0.45434   0.58285   0.85763   0.00000  Uiso   1.00
Zn725  Zn    0.50000   0.75001   0.80307   0.00000  Uiso   1.00
Zn726  Zn    0.50000   0.75000   0.69693   0.00000  Uiso   1.00
C727   C     0.83494   0.66357   0.75092   0.00000  Uiso   1.00
C728   C     0.79431   0.72806   0.94371   0.00000  Uiso   1.00
C729   C     0.83395   0.74949   0.52674   0.00000  Uiso   1.00
C730   C     0.83433   0.74990   0.97352   0.00000  Uiso   1.00
C731   C     0.73378   0.75011   0.73767   0.00000  Uiso   1.00
C732   C     0.93288   0.75035   0.76231   0.00000  Uiso   1.00
C733   C     0.67883   0.75024   0.73094   0.00000  Uiso   1.00
C734   C     0.98783   0.75110   0.76895   0.00000  Uiso   1.00
C735   C     0.83976   0.54141   0.78894   0.00000  Uiso   1.00
C736   C     0.81255   0.95624   0.71466   0.00000  Uiso   1.00
C737   C     0.83419   0.58735   0.79222   0.00000  Uiso   1.00
C738   C     0.83289   0.83601   0.74930   0.00000  Uiso   1.00
C739   C     0.80365   0.91011   0.71569   0.00000  Uiso   1.00
C740   C     0.84293   0.61531   0.75279   0.00000  Uiso   1.00
C741   C     0.83754   0.88391   0.74803   0.00000  Uiso   1.00
C742   C     0.86007   0.59660   0.71293   0.00000  Uiso   1.00
C743   C     0.87946   0.90326   0.77779   0.00000  Uiso   1.00
C744   C     0.86649   0.55096   0.71073   0.00000  Uiso   1.00
C745   C     0.88801   0.94908   0.77638   0.00000  Uiso   1.00
C746   C     0.85547   0.52350   0.74863   0.00000  Uiso   1.00
C747   C     0.85395   0.97546   0.74509   0.00000  Uiso   1.00
C748   C     0.81944   0.60381   0.83711   0.00000  Uiso   1.00
C749   C     0.80980   0.71450   0.55085   0.00000  Uiso   1.00
C750   C     0.75774   0.89029   0.68500   0.00000  Uiso   1.00
C751   C     0.88838   0.81992   0.63106   0.00000  Uiso   1.00
C752   C     0.75384   0.69977   0.86591   0.00000  Uiso   1.00
C753   C     0.87401   0.77210   0.95158   0.00000  Uiso   1.00
C754   C     0.80934   0.71572   0.60023   0.00000  Uiso   1.00
C755   C     0.87240   0.77219   0.90186   0.00000  Uiso   1.00
C756   C     0.85829   0.78402   0.60390   0.00000  Uiso   1.00
C757   C     0.79475   0.72721   0.89429   0.00000  Uiso   1.00
C758   C     0.85755   0.78458   0.55428   0.00000  Uiso   1.00
Cl759  Cl    0.88763   0.52911   0.65993   0.00000  Uiso   1.00
Cl760  Cl    0.94120   0.97250   0.81424   0.00000  Uiso   1.00
H761   H     0.99185   0.74932   0.69476   0.00000  Uiso   1.00
H762   H     0.90299   0.78964   0.88578   0.00000  Uiso   1.00
H763   H     0.87607   0.81239   0.53744   0.00000  Uiso   1.00
H764   H     0.76264   0.71115   0.95876   0.00000  Uiso   1.00
H765   H     0.83778   0.63361   0.85343   0.00000  Uiso   1.00
H766   H     0.74637   0.85539   0.68942   0.00000  Uiso   1.00
H767   H     0.90662   0.81398   0.66704   0.00000  Uiso   1.00
H768   H     0.75999   0.68674   0.83234   0.00000  Uiso   1.00
H769   H     0.67477   0.75232   0.80508   0.00000  Uiso   1.00
H770   H     0.83147   0.51913   0.81784   0.00000  Uiso   1.00
H771   H     0.78600   0.97768   0.69169   0.00000  Uiso   1.00
H772   H     0.86837   0.61741   0.68300   0.00000  Uiso   1.00
H773   H     0.90589   0.88255   0.80173   0.00000  Uiso   1.00
H774   H     0.79182   0.68582   0.53209   0.00000  Uiso   1.00
H775   H     0.90671   0.78893   0.97245   0.00000  Uiso   1.00
H776   H     0.79027   0.68875   0.61785   0.00000  Uiso   1.00
N777   N     0.83333   0.74999   0.62624   0.00000  Uiso   1.00
N778   N     0.83333   0.75001   0.87376   0.00000  Uiso   1.00
O779   O     0.83334   0.68454   0.78974   0.00000  Uiso   1.00
O780   O     0.73161   0.91292   0.65443   0.00000  Uiso   1.00
O781   O     0.89443   0.85685   0.61284   0.00000  Uiso   1.00
O782   O     0.71246   0.69024   0.88049   0.00000  Uiso   1.00
O783   O     0.83333   0.81547   0.71026   0.00000  Uiso   1.00
O784   O     0.83334   0.68453   0.71026   0.00000  Uiso   1.00
O785   O     0.83333   0.81547   0.78974   0.00000  Uiso   1.00
O786   O     0.75725   0.75000   0.78045   0.00000  Uiso   1.00
O787   O     0.90942   0.75000   0.71955   0.00000  Uiso   1.00
O788   O     0.75725   0.75000   0.70097   0.00000  Uiso   1.00
O789   O     0.90942   0.75001   0.79903   0.00000  Uiso   1.00
O790   O     0.78768   0.58285   0.85763   0.00000  Uiso   1.00
Zn791  Zn    0.83333   0.75001   0.80307   0.00000  Uiso   1.00
Zn792  Zn    0.83333   0.75000   0.69693   0.00000  Uiso   1.00
loop_
_geom_bond_atom_site_label_1
_geom_bond_atom_site_label_2
_geom_bond_distance
_geom_bond_site_symmetry_2
_ccdc_geom_bond_type
C1     O53     1.291   .     A
C1     C14     1.459   .     S
C1     O58     1.297   .     A
C2     C4      1.400   .     A
C2     H38     1.082   .     S
C2     C31     1.410   .     A
C3     C23     1.414   .     A
C3     C32     1.400   .     A
C3     C400    1.516   1_554 S
C4     C27     1.414   .     A
C4     C399    1.516   .     S
C5     C7      1.401   .     S
C5     O62     1.279   .     A
C5     O60     1.281   .     A
C6     O63     1.279   .     A
C6     O61     1.281   .     A
C6     C8      1.400   .     S
C7     C140    1.326   1_455 S
C7     H167    1.088   1_455 S
C8     C73     1.326   .     S
C8     H109    1.087   .     S
C9     C11     1.389   .     A
C9     H44     1.085   .     S
C9     C20     1.394   .     A
C10    H45     1.085   .     S
C10    C13     1.391   .     A
C10    C21     1.398   .     A
C11    C22     1.483   .     S
C11    C14     1.421   .     A
C12    C15     1.432   .     S
C12    O57     1.286   .     A
C12    O59     1.289   .     A
C13    C24     1.488   .     S
C13    C15     1.410   .     A
C14    C16     1.408   .     A
C15    C17     1.398   .     A
C16    H46     1.084   .     S
C16    C18     1.381   .     A
C17    C19     1.381   .     A
C17    H47     1.085   .     S
C18    C20     1.394   .     A
C18    Cl33    1.762   .     S
C19    C21     1.399   .     A
C19    Cl34    1.762   .     S
C20    C219    1.440   1_545 S
C21    C218    1.440   .     S
C22    H39     1.082   .     S
C22    O64     1.221   .     D
C23    H48     1.081   .     S
C23    C28     1.409   .     A
C24    O54     1.221   .     D
C24    H40     1.084   .     S
C25    O55     1.221   .     D
C25    H41     1.077   .     S
C25    C30     1.478   .     S
C26    C31     1.479   .     S
C26    H42     1.075   .     S
C26    O56     1.222   .     D
C27    C29     1.411   .     A
C27    H49     1.081   .     S
C28    H50     1.082   .     S
C28    N51     1.363   .     A
C29    H36     1.082   .     S
C29    N52     1.364   .     A
C30    N51     1.378   .     A
C30    C32     1.410   .     A
C31    N52     1.379   .     A
C32    H37     1.082   .     S
H35    C73     1.088   .     S
H43    C140    1.087   1_455 S
N51    Zn66    2.013   .     S
N52    Zn65    2.013   .     S
O53    Zn65    2.001   .     S
O57    Zn66    2.001   .     S
O58    Zn66    1.981   .     S
O59    Zn65    1.981   .     S
O60    Zn65    1.974   .     S
O61    Zn66    1.974   .     S
O62    Zn66    1.978   .     S
O63    Zn65    1.978   .     S
C67    O119    1.291   .     A
C67    C80     1.459   .     S
C67    O124    1.297   .     A
C68    C70     1.400   .     A
C68    H104    1.082   .     S
C68    C97     1.410   .     A
C69    C89     1.414   .     A
C69    C98     1.400   .     A
C69    C466    1.516   1_554 S
C70    C93     1.414   .     A
C70    C465    1.516   .     S
C71    C73     1.401   .     S
C71    O128    1.279   .     A
C71    O126    1.281   .     A
C72    O129    1.279   .     A
C72    O127    1.281   .     A
C72    C74     1.400   .     S
C74    C139    1.326   .     S
C74    H175    1.087   .     S
C75    C77     1.389   .     A
C75    H110    1.085   .     S
C75    C86     1.394   .     A
C76    H111    1.085   .     S
C76    C79     1.391   .     A
C76    C87     1.398   .     A
C77    C88     1.483   .     S
C77    C80     1.421   .     A
C78    C81     1.432   .     S
C78    O123    1.286   .     A
C78    O125    1.289   .     A
C79    C90     1.488   .     S
C79    C81     1.410   .     A
C80    C82     1.408   .     A
C81    C83     1.398   .     A
C82    H112    1.084   .     S
C82    C84     1.381   .     A
C83    C85     1.381   .     A
C83    H113    1.085   .     S
C84    C86     1.394   .     A
C84    Cl99    1.762   .     S
C85    C87     1.399   .     A
C85    Cl100   1.762   .     S
C86    C285    1.440   1_545 S
C87    C284    1.440   .     S
C88    H105    1.082   .     S
C88    O130    1.221   .     D
C89    H114    1.081   .     S
C89    C94     1.409   .     A
C90    O120    1.221   .     D
C90    H106    1.084   .     S
C91    O121    1.221   .     D
C91    H107    1.077   .     S
C91    C96     1.478   .     S
C92    C97     1.479   .     S
C92    H108    1.075   .     S
C92    O122    1.222   .     D
C93    C95     1.411   .     A
C93    H115    1.081   .     S
C94    H116    1.082   .     S
C94    N117    1.363   .     A
C95    H102    1.082   .     S
C95    N118    1.364   .     A
C96    N117    1.378   .     A
C96    C98     1.410   .     A
C97    N118    1.379   .     A
C98    H103    1.082   .     S
H101   C139    1.088   .     S
N117   Zn132   2.013   .     S
N118   Zn131   2.013   .     S
O119   Zn131   2.001   .     S
O123   Zn132   2.001   .     S
O124   Zn132   1.981   .     S
O125   Zn131   1.981   .     S
O126   Zn131   1.974   .     S
O127   Zn132   1.974   .     S
O128   Zn132   1.978   .     S
O129   Zn131   1.978   .     S
C133   O185    1.291   .     A
C133   C146    1.459   .     S
C133   O190    1.297   .     A
C134   C136    1.400   .     A
C134   H170    1.082   .     S
C134   C163    1.410   .     A
C135   C155    1.414   .     A
C135   C164    1.400   .     A
C135   C532    1.516   1_554 S
C136   C159    1.414   .     A
C136   C531    1.516   .     S
C137   C139    1.401   .     S
C137   O194    1.279   .     A
C137   O192    1.281   .     A
C138   O195    1.279   .     A
C138   O193    1.281   .     A
C138   C140    1.400   .     S
C140   C7      1.326   1_655 S
C140   H43     1.087   1_655 S
C141   C143    1.389   .     A
C141   H176    1.085   .     S
C141   C152    1.394   .     A
C142   H177    1.085   .     S
C142   C145    1.391   .     A
C142   C153    1.398   .     A
C143   C154    1.483   .     S
C143   C146    1.421   .     A
C144   C147    1.432   .     S
C144   O189    1.286   .     A
C144   O191    1.289   .     A
C145   C156    1.488   .     S
C145   C147    1.410   .     A
C146   C148    1.408   .     A
C147   C149    1.398   .     A
C148   H178    1.084   .     S
C148   C150    1.381   .     A
C149   C151    1.381   .     A
C149   H179    1.085   .     S
C150   C152    1.394   .     A
C150   Cl165   1.762   .     S
C151   C153    1.399   .     A
C151   Cl166   1.762   .     S
C152   C351    1.440   1_545 S
C153   C350    1.440   .     S
C154   H171    1.082   .     S
C154   O196    1.221   .     D
C155   H180    1.081   .     S
C155   C160    1.409   .     A
C156   O186    1.221   .     D
C156   H172    1.084   .     S
C157   O187    1.221   .     D
C157   H173    1.077   .     S
C157   C162    1.478   .     S
C158   C163    1.479   .     S
C158   H174    1.075   .     S
C158   O188    1.222   .     D
C159   C161    1.411   .     A
C159   H181    1.081   .     S
C160   H182    1.082   .     S
C160   N183    1.363   .     A
C161   H168    1.082   .     S
C161   N184    1.364   .     A
C162   N183    1.378   .     A
C162   C164    1.410   .     A
C163   N184    1.379   .     A
C164   H169    1.082   .     S
H167   C7      1.088   1_655 S
N183   Zn198   2.013   .     S
N184   Zn197   2.013   .     S
O185   Zn197   2.001   .     S
O189   Zn198   2.001   .     S
O190   Zn198   1.981   .     S
O191   Zn197   1.981   .     S
O192   Zn197   1.974   .     S
O193   Zn198   1.974   .     S
O194   Zn198   1.978   .     S
O195   Zn197   1.978   .     S
C199   O251    1.291   .     A
C199   C212    1.459   .     S
C199   O256    1.297   .     A
C200   C202    1.400   .     A
C200   H236    1.082   .     S
C200   C229    1.410   .     A
C201   C221    1.414   .     A
C201   C230    1.400   .     A
C201   C598    1.516   1_554 S
C202   C225    1.414   .     A
C202   C597    1.516   .     S
C203   C205    1.401   .     S
C203   O260    1.279   .     A
C203   O258    1.281   .     A
C204   O261    1.279   .     A
C204   O259    1.281   .     A
C204   C206    1.400   .     S
C205   C338    1.326   1_455 S
C205   H365    1.088   1_455 S
C206   C271    1.326   .     S
C206   H307    1.087   .     S
C207   C209    1.389   .     A
C207   H242    1.085   .     S
C207   C218    1.394   .     A
C208   H243    1.085   .     S
C208   C211    1.391   .     A
C208   C219    1.398   .     A
C209   C220    1.483   .     S
C209   C212    1.421   .     A
C210   C213    1.432   .     S
C210   O255    1.286   .     A
C210   O257    1.289   .     A
C211   C222    1.488   .     S
C211   C213    1.410   .     A
C212   C214    1.408   .     A
C213   C215    1.398   .     A
C214   H244    1.084   .     S
C214   C216    1.381   .     A
C215   C217    1.381   .     A
C215   H245    1.085   .     S
C216   C218    1.394   .     A
C216   Cl231   1.762   .     S
C217   C219    1.399   .     A
C217   Cl232   1.762   .     S
C219   C20     1.440   1_565 S
C220   H237    1.082   .     S
C220   O262    1.221   .     D
C221   H246    1.081   .     S
C221   C226    1.409   .     A
C222   O252    1.221   .     D
C222   H238    1.084   .     S
C223   O253    1.221   .     D
C223   H239    1.077   .     S
C223   C228    1.478   .     S
C224   C229    1.479   .     S
C224   H240    1.075   .     S
C224   O254    1.222   .     D
C225   C227    1.411   .     A
C225   H247    1.081   .     S
C226   H248    1.082   .     S
C226   N249    1.363   .     A
C227   H234    1.082   .     S
C227   N250    1.364   .     A
C228   N249    1.378   .     A
C228   C230    1.410   .     A
C229   N250    1.379   .     A
C230   H235    1.082   .     S
H233   C271    1.088   .     S
H241   C338    1.087   1_455 S
N249   Zn264   2.013   .     S
N250   Zn263   2.013   .     S
O251   Zn263   2.001   .     S
O255   Zn264   2.001   .     S
O256   Zn264   1.981   .     S
O257   Zn263   1.981   .     S
O258   Zn263   1.974   .     S
O259   Zn264   1.974   .     S
O260   Zn264   1.978   .     S
O261   Zn263   1.978   .     S
C265   O317    1.291   .     A
C265   C278    1.459   .     S
C265   O322    1.297   .     A
C266   C268    1.400   .     A
C266   H302    1.082   .     S
C266   C295    1.410   .     A
C267   C287    1.414   .     A
C267   C296    1.400   .     A
C267   C664    1.516   1_554 S
C268   C291    1.414   .     A
C268   C663    1.516   .     S
C269   C271    1.401   .     S
C269   O326    1.279   .     A
C269   O324    1.281   .     A
C270   O327    1.279   .     A
C270   O325    1.281   .     A
C270   C272    1.400   .     S
C272   C337    1.326   .     S
C272   H373    1.087   .     S
C273   C275    1.389   .     A
C273   H308    1.085   .     S
C273   C284    1.394   .     A
C274   H309    1.085   .     S
C274   C277    1.391   .     A
C274   C285    1.398   .     A
C275   C286    1.483   .     S
C275   C278    1.421   .     A
C276   C279    1.432   .     S
C276   O321    1.286   .     A
C276   O323    1.289   .     A
C277   C288    1.488   .     S
C277   C279    1.410   .     A
C278   C280    1.408   .     A
C279   C281    1.398   .     A
C280   H310    1.084   .     S
C280   C282    1.381   .     A
C281   C283    1.381   .     A
C281   H311    1.085   .     S
C282   C284    1.394   .     A
C282   Cl297   1.762   .     S
C283   C285    1.399   .     A
C283   Cl298   1.762   .     S
C285   C86     1.440   1_565 S
C286   H303    1.082   .     S
C286   O328    1.221   .     D
C287   H312    1.081   .     S
C287   C292    1.409   .     A
C288   O318    1.221   .     D
C288   H304    1.084   .     S
C289   O319    1.221   .     D
C289   H305    1.077   .     S
C289   C294    1.478   .     S
C290   C295    1.479   .     S
C290   H306    1.075   .     S
C290   O320    1.222   .     D
C291   C293    1.411   .     A
C291   H313    1.081   .     S
C292   H314    1.082   .     S
C292   N315    1.363   .     A
C293   H300    1.082   .     S
C293   N316    1.364   .     A
C294   N315    1.378   .     A
C294   C296    1.410   .     A
C295   N316    1.379   .     A
C296   H301    1.082   .     S
H299   C337    1.088   .     S
N315   Zn330   2.013   .     S
N316   Zn329   2.013   .     S
O317   Zn329   2.001   .     S
O321   Zn330   2.001   .     S
O322   Zn330   1.981   .     S
O323   Zn329   1.981   .     S
O324   Zn329   1.974   .     S
O325   Zn330   1.974   .     S
O326   Zn330   1.978   .     S
O327   Zn329   1.978   .     S
C331   O383    1.291   .     A
C331   C344    1.459   .     S
C331   O388    1.297   .     A
C332   C334    1.400   .     A
C332   H368    1.082   .     S
C332   C361    1.410   .     A
C333   C353    1.414   .     A
C333   C362    1.400   .     A
C333   C730    1.516   1_554 S
C334   C357    1.414   .     A
C334   C729    1.516   .     S
C335   C337    1.401   .     S
C335   O392    1.279   .     A
C335   O390    1.281   .     A
C336   O393    1.279   .     A
C336   O391    1.281   .     A
C336   C338    1.400   .     S
C338   C205    1.326   1_655 S
C338   H241    1.087   1_655 S
C339   C341    1.389   .     A
C339   H374    1.085   .     S
C339   C350    1.394   .     A
C340   H375    1.085   .     S
C340   C343    1.391   .     A
C340   C351    1.398   .     A
C341   C352    1.483   .     S
C341   C344    1.421   .     A
C342   C345    1.432   .     S
C342   O387    1.286   .     A
C342   O389    1.289   .     A
C343   C354    1.488   .     S
C343   C345    1.410   .     A
C344   C346    1.408   .     A
C345   C347    1.398   .     A
C346   H376    1.084   .     S
C346   C348    1.381   .     A
C347   C349    1.381   .     A
C347   H377    1.085   .     S
C348   C350    1.394   .     A
C348   Cl363   1.762   .     S
C349   C351    1.399   .     A
C349   Cl364   1.762   .     S
C351   C152    1.440   1_565 S
C352   H369    1.082   .     S
C352   O394    1.221   .     D
C353   H378    1.081   .     S
C353   C358    1.409   .     A
C354   O384    1.221   .     D
C354   H370    1.084   .     S
C355   O385    1.221   .     D
C355   H371    1.077   .     S
C355   C360    1.478   .     S
C356   C361    1.479   .     S
C356   H372    1.075   .     S
C356   O386    1.222   .     D
C357   C359    1.411   .     A
C357   H379    1.081   .     S
C358   H380    1.082   .     S
C358   N381    1.363   .     A
C359   H366    1.082   .     S
C359   N382    1.364   .     A
C360   N381    1.378   .     A
C360   C362    1.410   .     A
C361   N382    1.379   .     A
C362   H367    1.082   .     S
H365   C205    1.088   1_655 S
N381   Zn396   2.013   .     S
N382   Zn395   2.013   .     S
O383   Zn395   2.001   .     S
O387   Zn396   2.001   .     S
O388   Zn396   1.981   .     S
O389   Zn395   1.981   .     S
O390   Zn395   1.974   .     S
O391   Zn396   1.974   .     S
O392   Zn396   1.978   .     S
O393   Zn395   1.978   .     S
C397   O449    1.291   .     A
C397   C410    1.459   .     S
C397   O454    1.297   .     A
C398   C400    1.400   .     A
C398   H434    1.082   .     S
C398   C427    1.410   .     A
C399   C419    1.414   .     A
C399   C428    1.400   .     A
C400   C423    1.414   .     A
C400   C3      1.516   1_556 S
C401   C403    1.401   .     S
C401   O458    1.279   .     A
C401   O456    1.281   .     A
C402   O459    1.279   .     A
C402   O457    1.281   .     A
C402   C404    1.400   .     S
C403   C536    1.326   1_455 S
C403   H563    1.088   1_455 S
C404   C469    1.326   .     S
C404   H505    1.087   .     S
C405   C407    1.389   .     A
C405   H440    1.085   .     S
C405   C416    1.394   .     A
C406   H441    1.085   .     S
C406   C409    1.391   .     A
C406   C417    1.398   .     A
C407   C418    1.483   .     S
C407   C410    1.421   .     A
C408   C411    1.432   .     S
C408   O453    1.286   .     A
C408   O455    1.289   .     A
C409   C420    1.488   .     S
C409   C411    1.410   .     A
C410   C412    1.408   .     A
C411   C413    1.398   .     A
C412   H442    1.084   .     S
C412   C414    1.381   .     A
C413   C415    1.381   .     A
C413   H443    1.085   .     S
C414   C416    1.394   .     A
C414   Cl429   1.762   .     S
C415   C417    1.399   .     A
C415   Cl430   1.762   .     S
C416   C615    1.440   1_545 S
C417   C614    1.440   .     S
C418   H435    1.082   .     S
C418   O460    1.221   .     D
C419   H444    1.081   .     S
C419   C424    1.409   .     A
C420   O450    1.221   .     D
C420   H436    1.084   .     S
C421   O451    1.221   .     D
C421   H437    1.077   .     S
C421   C426    1.478   .     S
C422   C427    1.479   .     S
C422   H438    1.075   .     S
C422   O452    1.222   .     D
C423   C425    1.411   .     A
C423   H445    1.081   .     S
C424   H446    1.082   .     S
C424   N447    1.363   .     A
C425   H432    1.082   .     S
C425   N448    1.364   .     A
C426   N447    1.378   .     A
C426   C428    1.410   .     A
C427   N448    1.379   .     A
C428   H433    1.082   .     S
H431   C469    1.088   .     S
H439   C536    1.087   1_455 S
N447   Zn462   2.013   .     S
N448   Zn461   2.013   .     S
O449   Zn461   2.001   .     S
O453   Zn462   2.001   .     S
O454   Zn462   1.981   .     S
O455   Zn461   1.981   .     S
O456   Zn461   1.974   .     S
O457   Zn462   1.974   .     S
O458   Zn462   1.978   .     S
O459   Zn461   1.978   .     S
C463   O515    1.291   .     A
C463   C476    1.459   .     S
C463   O520    1.297   .     A
C464   C466    1.400   .     A
C464   H500    1.082   .     S
C464   C493    1.410   .     A
C465   C485    1.414   .     A
C465   C494    1.400   .     A
C466   C489    1.414   .     A
C466   C69     1.516   1_556 S
C467   C469    1.401   .     S
C467   O524    1.279   .     A
C467   O522    1.281   .     A
C468   O525    1.279   .     A
C468   O523    1.281   .     A
C468   C470    1.400   .     S
C470   C535    1.326   .     S
C470   H571    1.087   .     S
C471   C473    1.389   .     A
C471   H506    1.085   .     S
C471   C482    1.394   .     A
C472   H507    1.085   .     S
C472   C475    1.391   .     A
C472   C483    1.398   .     A
C473   C484    1.483   .     S
C473   C476    1.421   .     A
C474   C477    1.432   .     S
C474   O519    1.286   .     A
C474   O521    1.289   .     A
C475   C486    1.488   .     S
C475   C477    1.410   .     A
C476   C478    1.408   .     A
C477   C479    1.398   .     A
C478   H508    1.084   .     S
C478   C480    1.381   .     A
C479   C481    1.381   .     A
C479   H509    1.085   .     S
C480   C482    1.394   .     A
C480   Cl495   1.762   .     S
C481   C483    1.399   .     A
C481   Cl496   1.762   .     S
C482   C681    1.440   1_545 S
C483   C680    1.440   .     S
C484   H501    1.082   .     S
C484   O526    1.221   .     D
C485   H510    1.081   .     S
C485   C490    1.409   .     A
C486   O516    1.221   .     D
C486   H502    1.084   .     S
C487   O517    1.221   .     D
C487   H503    1.077   .     S
C487   C492    1.478   .     S
C488   C493    1.479   .     S
C488   H504    1.075   .     S
C488   O518    1.222   .     D
C489   C491    1.411   .     A
C489   H511    1.081   .     S
C490   H512    1.082   .     S
C490   N513    1.363   .     A
C491   H498    1.082   .     S
C491   N514    1.364   .     A
C492   N513    1.378   .     A
C492   C494    1.410   .     A
C493   N514    1.379   .     A
C494   H499    1.082   .     S
H497   C535    1.088   .     S
N513   Zn528   2.013   .     S
N514   Zn527   2.013   .     S
O515   Zn527   2.001   .     S
O519   Zn528   2.001   .     S
O520   Zn528   1.981   .     S
O521   Zn527   1.981   .     S
O522   Zn527   1.974   .     S
O523   Zn528   1.974   .     S
O524   Zn528   1.978   .     S
O525   Zn527   1.978   .     S
C529   O581    1.291   .     A
C529   C542    1.459   .     S
C529   O586    1.297   .     A
C530   C532    1.400   .     A
C530   H566    1.082   .     S
C530   C559    1.410   .     A
C531   C551    1.414   .     A
C531   C560    1.400   .     A
C532   C555    1.414   .     A
C532   C135    1.516   1_556 S
C533   C535    1.401   .     S
C533   O590    1.279   .     A
C533   O588    1.281   .     A
C534   O591    1.279   .     A
C534   O589    1.281   .     A
C534   C536    1.400   .     S
C536   C403    1.326   1_655 S
C536   H439    1.087   1_655 S
C537   C539    1.389   .     A
C537   H572    1.085   .     S
C537   C548    1.394   .     A
C538   H573    1.085   .     S
C538   C541    1.391   .     A
C538   C549    1.398   .     A
C539   C550    1.483   .     S
C539   C542    1.421   .     A
C540   C543    1.432   .     S
C540   O585    1.286   .     A
C540   O587    1.289   .     A
C541   C552    1.488   .     S
C541   C543    1.410   .     A
C542   C544    1.408   .     A
C543   C545    1.398   .     A
C544   H574    1.084   .     S
C544   C546    1.381   .     A
C545   C547    1.381   .     A
C545   H575    1.085   .     S
C546   C548    1.394   .     A
C546   Cl561   1.762   .     S
C547   C549    1.399   .     A
C547   Cl562   1.762   .     S
C548   C747    1.440   1_545 S
C549   C746    1.440   .     S
C550   H567    1.082   .     S
C550   O592    1.221   .     D
C551   H576    1.081   .     S
C551   C556    1.409   .     A
C552   O582    1.221   .     D
C552   H568    1.084   .     S
C553   O583    1.221   .     D
C553   H569    1.077   .     S
C553   C558    1.478   .     S
C554   C559    1.479   .     S
C554   H570    1.075   .     S
C554   O584    1.222   .     D
C555   C557    1.411   .     A
C555   H577    1.081   .     S
C556   H578    1.082   .     S
C556   N579    1.363   .     A
C557   H564    1.082   .     S
C557   N580    1.364   .     A
C558   N579    1.378   .     A
C558   C560    1.410   .     A
C559   N580    1.379   .     A
C560   H565    1.082   .     S
H563   C403    1.088   1_655 S
N579   Zn594   2.013   .     S
N580   Zn593   2.013   .     S
O581   Zn593   2.001   .     S
O585   Zn594   2.001   .     S
O586   Zn594   1.981   .     S
O587   Zn593   1.981   .     S
O588   Zn593   1.974   .     S
O589   Zn594   1.974   .     S
O590   Zn594   1.978   .     S
O591   Zn593   1.978   .     S
C595   O647    1.291   .     A
C595   C608    1.459   .     S
C595   O652    1.297   .     A
C596   C598    1.400   .     A
C596   H632    1.082   .     S
C596   C625    1.410   .     A
C597   C617    1.414   .     A
C597   C626    1.400   .     A
C598   C621    1.414   .     A
C598   C201    1.516   1_556 S
C599   C601    1.401   .     S
C599   O656    1.279   .     A
C599   O654    1.281   .     A
C600   O657    1.279   .     A
C600   O655    1.281   .     A
C600   C602    1.400   .     S
C601   C734    1.326   1_455 S
C601   H761    1.088   1_455 S
C602   C667    1.326   .     S
C602   H703    1.087   .     S
C603   C605    1.389   .     A
C603   H638    1.085   .     S
C603   C614    1.394   .     A
C604   H639    1.085   .     S
C604   C607    1.391   .     A
C604   C615    1.398   .     A
C605   C616    1.483   .     S
C605   C608    1.421   .     A
C606   C609    1.432   .     S
C606   O651    1.286   .     A
C606   O653    1.289   .     A
C607   C618    1.488   .     S
C607   C609    1.410   .     A
C608   C610    1.408   .     A
C609   C611    1.398   .     A
C610   H640    1.084   .     S
C610   C612    1.381   .     A
C611   C613    1.381   .     A
C611   H641    1.085   .     S
C612   C614    1.394   .     A
C612   Cl627   1.762   .     S
C613   C615    1.399   .     A
C613   Cl628   1.762   .     S
C615   C416    1.440   1_565 S
C616   H633    1.082   .     S
C616   O658    1.221   .     D
C617   H642    1.081   .     S
C617   C622    1.409   .     A
C618   O648    1.221   .     D
C618   H634    1.084   .     S
C619   O649    1.221   .     D
C619   H635    1.077   .     S
C619   C624    1.478   .     S
C620   C625    1.479   .     S
C620   H636    1.075   .     S
C620   O650    1.222   .     D
C621   C623    1.411   .     A
C621   H643    1.081   .     S
C622   H644    1.082   .     S
C622   N645    1.363   .     A
C623   H630    1.082   .     S
C623   N646    1.364   .     A
C624   N645    1.378   .     A
C624   C626    1.410   .     A
C625   N646    1.379   .     A
C626   H631    1.082   .     S
H629   C667    1.088   .     S
H637   C734    1.087   1_455 S
N645   Zn660   2.013   .     S
N646   Zn659   2.013   .     S
O647   Zn659   2.001   .     S
O651   Zn660   2.001   .     S
O652   Zn660   1.981   .     S
O653   Zn659   1.981   .     S
O654   Zn659   1.974   .     S
O655   Zn660   1.974   .     S
O656   Zn660   1.978   .     S
O657   Zn659   1.978   .     S
C661   O713    1.291   .     A
C661   C674    1.459   .     S
C661   O718    1.297   .     A
C662   C664    1.400   .     A
C662   H698    1.082   .     S
C662   C691    1.410   .     A
C663   C683    1.414   .     A
C663   C692    1.400   .     A
C664   C687    1.414   .     A
C664   C267    1.516   1_556 S
C665   C667    1.401   .     S
C665   O722    1.279   .     A
C665   O720    1.281   .     A
C666   O723    1.279   .     A
C666   O721    1.281   .     A
C666   C668    1.400   .     S
C668   C733    1.326   .     S
C668   H769    1.087   .     S
C669   C671    1.389   .     A
C669   H704    1.085   .     S
C669   C680    1.394   .     A
C670   H705    1.085   .     S
C670   C673    1.391   .     A
C670   C681    1.398   .     A
C671   C682    1.483   .     S
C671   C674    1.421   .     A
C672   C675    1.432   .     S
C672   O717    1.286   .     A
C672   O719    1.289   .     A
C673   C684    1.488   .     S
C673   C675    1.410   .     A
C674   C676    1.408   .     A
C675   C677    1.398   .     A
C676   H706    1.084   .     S
C676   C678    1.381   .     A
C677   C679    1.381   .     A
C677   H707    1.085   .     S
C678   C680    1.394   .     A
C678   Cl693   1.762   .     S
C679   C681    1.399   .     A
C679   Cl694   1.762   .     S
C681   C482    1.440   1_565 S
C682   H699    1.082   .     S
C682   O724    1.221   .     D
C683   H708    1.081   .     S
C683   C688    1.409   .     A
C684   O714    1.221   .     D
C684   H700    1.084   .     S
C685   O715    1.221   .     D
C685   H701    1.077   .     S
C685   C690    1.478   .     S
C686   C691    1.479   .     S
C686   H702    1.075   .     S
C686   O716    1.222   .     D
C687   C689    1.411   .     A
C687   H709    1.081   .     S
C688   H710    1.082   .     S
C688   N711    1.363   .     A
C689   H696    1.082   .     S
C689   N712    1.364   .     A
C690   N711    1.378   .     A
C690   C692    1.410   .     A
C691   N712    1.379   .     A
C692   H697    1.082   .     S
H695   C733    1.088   .     S
N711   Zn726   2.013   .     S
N712   Zn725   2.013   .     S
O713   Zn725   2.001   .     S
O717   Zn726   2.001   .     S
O718   Zn726   1.981   .     S
O719   Zn725   1.981   .     S
O720   Zn725   1.974   .     S
O721   Zn726   1.974   .     S
O722   Zn726   1.978   .     S
O723   Zn725   1.978   .     S
C727   O779    1.291   .     A
C727   C740    1.459   .     S
C727   O784    1.297   .     A
C728   C730    1.400   .     A
C728   H764    1.082   .     S
C728   C757    1.410   .     A
C729   C749    1.414   .     A
C729   C758    1.400   .     A
C730   C753    1.414   .     A
C730   C333    1.516   1_556 S
C731   C733    1.401   .     S
C731   O788    1.279   .     A
C731   O786    1.281   .     A
C732   O789    1.279   .     A
C732   O787    1.281   .     A
C732   C734    1.400   .     S
C734   C601    1.326   1_655 S
C734   H637    1.087   1_655 S
C735   C737    1.389   .     A
C735   H770    1.085   .     S
C735   C746    1.394   .     A
C736   H771    1.085   .     S
C736   C739    1.391   .     A
C736   C747    1.398   .     A
C737   C748    1.483   .     S
C737   C740    1.421   .     A
C738   C741    1.432   .     S
C738   O783    1.286   .     A
C738   O785    1.289   .     A
C739   C750    1.488   .     S
C739   C741    1.410   .     A
C740   C742    1.408   .     A
C741   C743    1.398   .     A
C742   H772    1.084   .     S
C742   C744    1.381   .     A
C743   C745    1.381   .     A
C743   H773    1.085   .     S
C744   C746    1.394   .     A
C744   Cl759   1.762   .     S
C745   C747    1.399   .     A
C745   Cl760   1.762   .     S
C747   C548    1.440   1_565 S
C748   H765    1.082   .     S
C748   O790    1.221   .     D
C749   H774    1.081   .     S
C749   C754    1.409   .     A
C750   O780    1.221   .     D
C750   H766    1.084   .     S
C751   O781    1.221   .     D
C751   H767    1.077   .     S
C751   C756    1.478   .     S
C752   C757    1.479   .     S
C752   H768    1.075   .     S
C752   O782    1.222   .     D
C753   C755    1.411   .     A
C753   H775    1.081   .     S
C754   H776    1.082   .     S
C754   N777    1.363   .     A
C755   H762    1.082   .     S
C755   N778    1.364   .     A
C756   N777    1.378   .     A
C756   C758    1.410   .     A
C757   N778    1.379   .     A
C758   H763    1.082   .     S
H761   C601    1.088   1_655 S
N777   Zn792   2.013   .     S
N778   Zn791   2.013   .     S
O779   Zn791   2.001   .     S
O783   Zn792   2.001   .     S
O784   Zn792   1.981   .     S
O785   Zn791   1.981   .     S
O786   Zn791   1.974   .     S
O787   Zn792   1.974   .     S
O788   Zn792   1.978   .     S
O789   Zn791   1.978   .     S
