data_str_m3_o1_o16_pcu_sym.30
_audit_creation_date              2020-01-03
_audit_creation_method            'Materials Studio'
_symmetry_space_group_name_H-M    'P1'
_symmetry_Int_Tables_number       1
_symmetry_cell_setting            triclinic
loop_
_symmetry_equiv_pos_as_xyz
  x,y,z
_cell_length_a                    29.6997
_cell_length_b                    31.8733
_cell_length_c                    26.5634
_cell_angle_alpha                 89.8818
_cell_angle_beta                  72.1549
_cell_angle_gamma                 88.9803
loop_
_atom_site_label
_atom_site_type_symbol
_atom_site_fract_x
_atom_site_fract_y
_atom_site_fract_z
_atom_site_U_iso_or_equiv
_atom_site_adp_type
_atom_site_occupancy
O1     O     0.12846   0.22775   0.25001   0.00000  Uiso   1.00
O2     O     0.20490   0.22774   0.25001   0.00000  Uiso   1.00
C3     C     0.16670   0.24653   0.24869   0.00000  Uiso   1.00
O4     O     0.10947   0.16666   0.32681   0.00000  Uiso   1.00
O5     O     0.18591   0.16665   0.32681   0.00000  Uiso   1.00
C6     C     0.14121   0.16694   0.35169   0.00000  Uiso   1.00
Zn7    Zn    0.11562   0.16667   0.25000   0.00000  Uiso   1.00
Zn8    Zn    0.21771   0.16666   0.25000   0.00000  Uiso   1.00
O9     O     0.12843   0.10559   0.25000   0.00000  Uiso   1.00
O10    O     0.20488   0.10558   0.25000   0.00000  Uiso   1.00
O11    O     0.14742   0.16668   0.17319   0.00000  Uiso   1.00
O12    O     0.22387   0.16667   0.17319   0.00000  Uiso   1.00
C13    C     0.16660   0.08679   0.25140   0.00000  Uiso   1.00
C14    C     0.19226   0.16952   0.14891   0.00000  Uiso   1.00
C15    C     0.24693   0.22643   0.02086   0.00000  Uiso   1.00
H16    H     0.27641   0.24656   0.00300   0.00000  Uiso   1.00
C17    C     0.20530   0.18224   0.09392   0.00000  Uiso   1.00
C18    C     0.08061   0.15613   0.43749   0.00000  Uiso   1.00
C19    C     0.06419   0.15881   0.49218   0.00000  Uiso   1.00
C20    C     0.09361   0.17262   0.02074   0.00000  Uiso   1.00
C21    C     0.14170   0.18179   0.49350   0.00000  Uiso   1.00
C22    C     0.15788   0.18110   0.43768   0.00000  Uiso   1.00
C23    C     0.17557   0.19057   0.01937   0.00000  Uiso   1.00
C24    C     0.21563   0.21451   0.49342   0.00000  Uiso   1.00
C25    C     0.22562   0.22131   0.43914   0.00000  Uiso   1.00
C26    C     0.20515   0.19355   0.41234   0.00000  Uiso   1.00
C27    C     0.17343   0.17192   0.06709   0.00000  Uiso   1.00
C28    C     0.24141   0.21119   0.07159   0.00000  Uiso   1.00
C29    C     0.12682   0.16774   0.40963   0.00000  Uiso   1.00
H30    H     0.14667   0.14891   0.08377   0.00000  Uiso   1.00
H31    H     0.05647   0.14583   0.41680   0.00000  Uiso   1.00
H32    H     0.02754   0.15171   0.01229   0.00000  Uiso   1.00
C33    C     0.17699   0.31048   0.29028   0.00000  Uiso   1.00
H34    H     0.18439   0.29243   0.32164   0.00000  Uiso   1.00
C35    C     0.17683   0.02022   0.29219   0.00000  Uiso   1.00
C36    C     0.16717   0.04264   0.25120   0.00000  Uiso   1.00
C37    C     0.15676   0.02277   0.20956   0.00000  Uiso   1.00
H38    H     0.14970   0.04076   0.17803   0.00000  Uiso   1.00
C39    C     0.15574   0.31306   0.20832   0.00000  Uiso   1.00
C40    C     0.16617   0.29064   0.24884   0.00000  Uiso   1.00
C41    C     0.31694   0.13513   0.22538   0.00000  Uiso   1.00
C42    C     0.03090   0.13447   0.22709   0.00000  Uiso   1.00
N43    N     0.04760   0.16668   0.25001   0.00000  Uiso   1.00
C44    C     0.01736   0.19927   0.27156   0.00000  Uiso   1.00
H45    H     0.03004   0.22538   0.28901   0.00000  Uiso   1.00
C46    C     0.30290   0.19924   0.27153   0.00000  Uiso   1.00
H47    H     0.27961   0.22533   0.28879   0.00000  Uiso   1.00
N48    N     0.28573   0.16665   0.25001   0.00000  Uiso   1.00
I49    I     0.28676   0.23652   0.11167   0.00000  Uiso   1.00
I50    I     0.18674   0.04847   0.36001   0.00000  Uiso   1.00
I51    I     0.14069   0.28484   0.14332   0.00000  Uiso   1.00
I52    I     0.29954   0.08927   0.17615   0.00000  Uiso   1.00
N53    N     0.06116   0.09965   0.20444   0.00000  Uiso   1.00
O54    O     0.09134   0.10276   0.15745   0.00000  Uiso   1.00
O55    O     0.05226   0.06282   0.22606   0.00000  Uiso   1.00
I56    I     0.28172   0.25989   0.39511   0.00000  Uiso   1.00
N57    N     0.07263   0.18153   0.07603   0.00000  Uiso   1.00
O58    O     0.03818   0.15881   0.10427   0.00000  Uiso   1.00
O59    O     0.08179   0.21643   0.09585   0.00000  Uiso   1.00
I60    I     0.25436   0.14265   0.38529   0.00000  Uiso   1.00
O61    O     0.46179   0.22775   0.25001   0.00000  Uiso   1.00
O62    O     0.53823   0.22774   0.25001   0.00000  Uiso   1.00
C63    C     0.50003   0.24653   0.24869   0.00000  Uiso   1.00
O64    O     0.44280   0.16666   0.32681   0.00000  Uiso   1.00
O65    O     0.51924   0.16665   0.32681   0.00000  Uiso   1.00
C66    C     0.47455   0.16694   0.35169   0.00000  Uiso   1.00
Zn67   Zn    0.44896   0.16667   0.25000   0.00000  Uiso   1.00
Zn68   Zn    0.55104   0.16666   0.25000   0.00000  Uiso   1.00
O69    O     0.46177   0.10559   0.25000   0.00000  Uiso   1.00
O70    O     0.53821   0.10558   0.25000   0.00000  Uiso   1.00
O71    O     0.48076   0.16668   0.17319   0.00000  Uiso   1.00
O72    O     0.55720   0.16667   0.17319   0.00000  Uiso   1.00
C73    C     0.49993   0.08679   0.25140   0.00000  Uiso   1.00
C74    C     0.52559   0.16952   0.14891   0.00000  Uiso   1.00
C75    C     0.58027   0.22643   0.02086   0.00000  Uiso   1.00
H76    H     0.60974   0.24656   0.00300   0.00000  Uiso   1.00
C77    C     0.53863   0.18224   0.09392   0.00000  Uiso   1.00
C78    C     0.41394   0.15613   0.43749   0.00000  Uiso   1.00
C79    C     0.39752   0.15881   0.49218   0.00000  Uiso   1.00
C80    C     0.42694   0.17262   0.02074   0.00000  Uiso   1.00
C81    C     0.47503   0.18179   0.49350   0.00000  Uiso   1.00
C82    C     0.49122   0.18110   0.43768   0.00000  Uiso   1.00
C83    C     0.50890   0.19057   0.01937   0.00000  Uiso   1.00
C84    C     0.54897   0.21451   0.49342   0.00000  Uiso   1.00
C85    C     0.55896   0.22131   0.43914   0.00000  Uiso   1.00
C86    C     0.53848   0.19355   0.41234   0.00000  Uiso   1.00
C87    C     0.50676   0.17192   0.06709   0.00000  Uiso   1.00
C88    C     0.57474   0.21119   0.07159   0.00000  Uiso   1.00
C89    C     0.46015   0.16774   0.40963   0.00000  Uiso   1.00
H90    H     0.48000   0.14891   0.08377   0.00000  Uiso   1.00
H91    H     0.38981   0.14583   0.41680   0.00000  Uiso   1.00
H92    H     0.36087   0.15171   0.01229   0.00000  Uiso   1.00
C93    C     0.51033   0.31048   0.29028   0.00000  Uiso   1.00
H94    H     0.51772   0.29243   0.32164   0.00000  Uiso   1.00
C95    C     0.51017   0.02022   0.29219   0.00000  Uiso   1.00
C96    C     0.50051   0.04264   0.25120   0.00000  Uiso   1.00
C97    C     0.49010   0.02277   0.20956   0.00000  Uiso   1.00
H98    H     0.48303   0.04076   0.17803   0.00000  Uiso   1.00
C99    C     0.48907   0.31306   0.20832   0.00000  Uiso   1.00
C100   C     0.49950   0.29064   0.24884   0.00000  Uiso   1.00
C101   C     0.65027   0.13513   0.22538   0.00000  Uiso   1.00
C102   C     0.36423   0.13447   0.22709   0.00000  Uiso   1.00
N103   N     0.38093   0.16668   0.25001   0.00000  Uiso   1.00
C104   C     0.35069   0.19927   0.27156   0.00000  Uiso   1.00
H105   H     0.36337   0.22538   0.28901   0.00000  Uiso   1.00
C106   C     0.63623   0.19924   0.27153   0.00000  Uiso   1.00
H107   H     0.61294   0.22533   0.28879   0.00000  Uiso   1.00
N108   N     0.61906   0.16665   0.25001   0.00000  Uiso   1.00
I109   I     0.62010   0.23652   0.11167   0.00000  Uiso   1.00
I110   I     0.52008   0.04847   0.36001   0.00000  Uiso   1.00
I111   I     0.47402   0.28484   0.14332   0.00000  Uiso   1.00
I112   I     0.63287   0.08927   0.17615   0.00000  Uiso   1.00
N113   N     0.39449   0.09965   0.20444   0.00000  Uiso   1.00
O114   O     0.42467   0.10276   0.15745   0.00000  Uiso   1.00
O115   O     0.38560   0.06282   0.22606   0.00000  Uiso   1.00
I116   I     0.61506   0.25989   0.39511   0.00000  Uiso   1.00
N117   N     0.40596   0.18153   0.07603   0.00000  Uiso   1.00
O118   O     0.37151   0.15881   0.10427   0.00000  Uiso   1.00
O119   O     0.41512   0.21643   0.09585   0.00000  Uiso   1.00
I120   I     0.58769   0.14265   0.38529   0.00000  Uiso   1.00
O121   O     0.79512   0.22775   0.25001   0.00000  Uiso   1.00
O122   O     0.87157   0.22774   0.25001   0.00000  Uiso   1.00
C123   C     0.83337   0.24653   0.24869   0.00000  Uiso   1.00
O124   O     0.77613   0.16666   0.32681   0.00000  Uiso   1.00
O125   O     0.85258   0.16665   0.32681   0.00000  Uiso   1.00
C126   C     0.80788   0.16694   0.35169   0.00000  Uiso   1.00
Zn127  Zn    0.78229   0.16667   0.25000   0.00000  Uiso   1.00
Zn128  Zn    0.88438   0.16666   0.25000   0.00000  Uiso   1.00
O129   O     0.79510   0.10559   0.25000   0.00000  Uiso   1.00
O130   O     0.87154   0.10558   0.25000   0.00000  Uiso   1.00
O131   O     0.81409   0.16668   0.17319   0.00000  Uiso   1.00
O132   O     0.89053   0.16667   0.17319   0.00000  Uiso   1.00
C133   C     0.83327   0.08679   0.25140   0.00000  Uiso   1.00
C134   C     0.85892   0.16952   0.14891   0.00000  Uiso   1.00
C135   C     0.91360   0.22643   0.02086   0.00000  Uiso   1.00
H136   H     0.94308   0.24656   0.00300   0.00000  Uiso   1.00
C137   C     0.87196   0.18224   0.09392   0.00000  Uiso   1.00
C138   C     0.74727   0.15613   0.43749   0.00000  Uiso   1.00
C139   C     0.73086   0.15881   0.49218   0.00000  Uiso   1.00
C140   C     0.76027   0.17262   0.02074   0.00000  Uiso   1.00
C141   C     0.80836   0.18179   0.49350   0.00000  Uiso   1.00
C142   C     0.82455   0.18110   0.43768   0.00000  Uiso   1.00
C143   C     0.84223   0.19057   0.01937   0.00000  Uiso   1.00
C144   C     0.88230   0.21451   0.49342   0.00000  Uiso   1.00
C145   C     0.89229   0.22131   0.43914   0.00000  Uiso   1.00
C146   C     0.87182   0.19355   0.41234   0.00000  Uiso   1.00
C147   C     0.84010   0.17192   0.06709   0.00000  Uiso   1.00
C148   C     0.90808   0.21119   0.07159   0.00000  Uiso   1.00
C149   C     0.79348   0.16774   0.40963   0.00000  Uiso   1.00
H150   H     0.81333   0.14891   0.08377   0.00000  Uiso   1.00
H151   H     0.72314   0.14583   0.41680   0.00000  Uiso   1.00
H152   H     0.69420   0.15171   0.01229   0.00000  Uiso   1.00
C153   C     0.84366   0.31048   0.29028   0.00000  Uiso   1.00
H154   H     0.85105   0.29243   0.32164   0.00000  Uiso   1.00
C155   C     0.84350   0.02022   0.29219   0.00000  Uiso   1.00
C156   C     0.83384   0.04264   0.25120   0.00000  Uiso   1.00
C157   C     0.82343   0.02277   0.20956   0.00000  Uiso   1.00
H158   H     0.81636   0.04076   0.17803   0.00000  Uiso   1.00
C159   C     0.82240   0.31306   0.20832   0.00000  Uiso   1.00
C160   C     0.83283   0.29064   0.24884   0.00000  Uiso   1.00
C161   C     0.98360   0.13513   0.22538   0.00000  Uiso   1.00
C162   C     0.69757   0.13447   0.22709   0.00000  Uiso   1.00
N163   N     0.71426   0.16668   0.25001   0.00000  Uiso   1.00
C164   C     0.68402   0.19927   0.27156   0.00000  Uiso   1.00
H165   H     0.69670   0.22538   0.28901   0.00000  Uiso   1.00
C166   C     0.96956   0.19924   0.27153   0.00000  Uiso   1.00
H167   H     0.94627   0.22533   0.28879   0.00000  Uiso   1.00
N168   N     0.95239   0.16665   0.25001   0.00000  Uiso   1.00
I169   I     0.95343   0.23652   0.11167   0.00000  Uiso   1.00
I170   I     0.85341   0.04847   0.36001   0.00000  Uiso   1.00
I171   I     0.80736   0.28484   0.14332   0.00000  Uiso   1.00
I172   I     0.96621   0.08927   0.17615   0.00000  Uiso   1.00
N173   N     0.72783   0.09965   0.20444   0.00000  Uiso   1.00
O174   O     0.75800   0.10276   0.15745   0.00000  Uiso   1.00
O175   O     0.71893   0.06282   0.22606   0.00000  Uiso   1.00
I176   I     0.94839   0.25989   0.39511   0.00000  Uiso   1.00
N177   N     0.73929   0.18153   0.07603   0.00000  Uiso   1.00
O178   O     0.70484   0.15881   0.10427   0.00000  Uiso   1.00
O179   O     0.74845   0.21643   0.09585   0.00000  Uiso   1.00
I180   I     0.92103   0.14265   0.38529   0.00000  Uiso   1.00
O181   O     0.12846   0.56108   0.25001   0.00000  Uiso   1.00
O182   O     0.20490   0.56107   0.25001   0.00000  Uiso   1.00
C183   C     0.16670   0.57986   0.24869   0.00000  Uiso   1.00
O184   O     0.10947   0.50000   0.32681   0.00000  Uiso   1.00
O185   O     0.18591   0.49999   0.32681   0.00000  Uiso   1.00
C186   C     0.14121   0.50027   0.35169   0.00000  Uiso   1.00
Zn187  Zn    0.11562   0.50001   0.25000   0.00000  Uiso   1.00
Zn188  Zn    0.21771   0.49999   0.25000   0.00000  Uiso   1.00
O189   O     0.12843   0.43893   0.25000   0.00000  Uiso   1.00
O190   O     0.20488   0.43892   0.25000   0.00000  Uiso   1.00
O191   O     0.14742   0.50001   0.17319   0.00000  Uiso   1.00
O192   O     0.22387   0.50000   0.17319   0.00000  Uiso   1.00
C193   C     0.16660   0.42012   0.25140   0.00000  Uiso   1.00
C194   C     0.19226   0.50285   0.14891   0.00000  Uiso   1.00
C195   C     0.24693   0.55976   0.02086   0.00000  Uiso   1.00
H196   H     0.27641   0.57989   0.00300   0.00000  Uiso   1.00
C197   C     0.20530   0.51557   0.09392   0.00000  Uiso   1.00
C198   C     0.08061   0.48946   0.43749   0.00000  Uiso   1.00
C199   C     0.06419   0.49215   0.49218   0.00000  Uiso   1.00
C200   C     0.09361   0.50595   0.02074   0.00000  Uiso   1.00
C201   C     0.14170   0.51512   0.49350   0.00000  Uiso   1.00
C202   C     0.15788   0.51443   0.43768   0.00000  Uiso   1.00
C203   C     0.17557   0.52390   0.01937   0.00000  Uiso   1.00
C204   C     0.21563   0.54785   0.49342   0.00000  Uiso   1.00
C205   C     0.22562   0.55464   0.43914   0.00000  Uiso   1.00
C206   C     0.20515   0.52689   0.41234   0.00000  Uiso   1.00
C207   C     0.17343   0.50525   0.06709   0.00000  Uiso   1.00
C208   C     0.24141   0.54452   0.07159   0.00000  Uiso   1.00
C209   C     0.12682   0.50107   0.40963   0.00000  Uiso   1.00
H210   H     0.14667   0.48224   0.08377   0.00000  Uiso   1.00
H211   H     0.05647   0.47917   0.41680   0.00000  Uiso   1.00
H212   H     0.02754   0.48504   0.01229   0.00000  Uiso   1.00
C213   C     0.17699   0.64381   0.29028   0.00000  Uiso   1.00
H214   H     0.18439   0.62576   0.32164   0.00000  Uiso   1.00
C215   C     0.17683   0.35355   0.29219   0.00000  Uiso   1.00
C216   C     0.16717   0.37598   0.25120   0.00000  Uiso   1.00
C217   C     0.15676   0.35610   0.20956   0.00000  Uiso   1.00
H218   H     0.14970   0.37409   0.17803   0.00000  Uiso   1.00
C219   C     0.15574   0.64640   0.20832   0.00000  Uiso   1.00
C220   C     0.16617   0.62397   0.24884   0.00000  Uiso   1.00
C221   C     0.31694   0.46847   0.22538   0.00000  Uiso   1.00
C222   C     0.03090   0.46780   0.22709   0.00000  Uiso   1.00
N223   N     0.04760   0.50001   0.25001   0.00000  Uiso   1.00
C224   C     0.01736   0.53261   0.27156   0.00000  Uiso   1.00
H225   H     0.03004   0.55871   0.28901   0.00000  Uiso   1.00
C226   C     0.30290   0.53258   0.27153   0.00000  Uiso   1.00
H227   H     0.27961   0.55866   0.28879   0.00000  Uiso   1.00
N228   N     0.28573   0.49998   0.25001   0.00000  Uiso   1.00
I229   I     0.28676   0.56985   0.11167   0.00000  Uiso   1.00
I230   I     0.18674   0.38181   0.36001   0.00000  Uiso   1.00
I231   I     0.14069   0.61817   0.14332   0.00000  Uiso   1.00
I232   I     0.29954   0.42260   0.17615   0.00000  Uiso   1.00
N233   N     0.06116   0.43299   0.20444   0.00000  Uiso   1.00
O234   O     0.09134   0.43610   0.15745   0.00000  Uiso   1.00
O235   O     0.05226   0.39615   0.22606   0.00000  Uiso   1.00
I236   I     0.28172   0.59322   0.39511   0.00000  Uiso   1.00
N237   N     0.07263   0.51487   0.07603   0.00000  Uiso   1.00
O238   O     0.03818   0.49215   0.10427   0.00000  Uiso   1.00
O239   O     0.08179   0.54977   0.09585   0.00000  Uiso   1.00
I240   I     0.25436   0.47599   0.38529   0.00000  Uiso   1.00
O241   O     0.46179   0.56108   0.25001   0.00000  Uiso   1.00
O242   O     0.53823   0.56107   0.25001   0.00000  Uiso   1.00
C243   C     0.50003   0.57986   0.24869   0.00000  Uiso   1.00
O244   O     0.44280   0.50000   0.32681   0.00000  Uiso   1.00
O245   O     0.51924   0.49999   0.32681   0.00000  Uiso   1.00
C246   C     0.47455   0.50027   0.35169   0.00000  Uiso   1.00
Zn247  Zn    0.44896   0.50001   0.25000   0.00000  Uiso   1.00
Zn248  Zn    0.55104   0.49999   0.25000   0.00000  Uiso   1.00
O249   O     0.46177   0.43893   0.25000   0.00000  Uiso   1.00
O250   O     0.53821   0.43892   0.25000   0.00000  Uiso   1.00
O251   O     0.48076   0.50001   0.17319   0.00000  Uiso   1.00
O252   O     0.55720   0.50000   0.17319   0.00000  Uiso   1.00
C253   C     0.49993   0.42012   0.25140   0.00000  Uiso   1.00
C254   C     0.52559   0.50285   0.14891   0.00000  Uiso   1.00
C255   C     0.58027   0.55976   0.02086   0.00000  Uiso   1.00
H256   H     0.60974   0.57989   0.00300   0.00000  Uiso   1.00
C257   C     0.53863   0.51557   0.09392   0.00000  Uiso   1.00
C258   C     0.41394   0.48946   0.43749   0.00000  Uiso   1.00
C259   C     0.39752   0.49215   0.49218   0.00000  Uiso   1.00
C260   C     0.42694   0.50595   0.02074   0.00000  Uiso   1.00
C261   C     0.47503   0.51512   0.49350   0.00000  Uiso   1.00
C262   C     0.49122   0.51443   0.43768   0.00000  Uiso   1.00
C263   C     0.50890   0.52390   0.01937   0.00000  Uiso   1.00
C264   C     0.54897   0.54785   0.49342   0.00000  Uiso   1.00
C265   C     0.55896   0.55464   0.43914   0.00000  Uiso   1.00
C266   C     0.53848   0.52689   0.41234   0.00000  Uiso   1.00
C267   C     0.50676   0.50525   0.06709   0.00000  Uiso   1.00
C268   C     0.57474   0.54452   0.07159   0.00000  Uiso   1.00
C269   C     0.46015   0.50107   0.40963   0.00000  Uiso   1.00
H270   H     0.48000   0.48224   0.08377   0.00000  Uiso   1.00
H271   H     0.38981   0.47917   0.41680   0.00000  Uiso   1.00
H272   H     0.36087   0.48504   0.01229   0.00000  Uiso   1.00
C273   C     0.51033   0.64381   0.29028   0.00000  Uiso   1.00
H274   H     0.51772   0.62576   0.32164   0.00000  Uiso   1.00
C275   C     0.51017   0.35355   0.29219   0.00000  Uiso   1.00
C276   C     0.50051   0.37598   0.25120   0.00000  Uiso   1.00
C277   C     0.49010   0.35610   0.20956   0.00000  Uiso   1.00
H278   H     0.48303   0.37409   0.17803   0.00000  Uiso   1.00
C279   C     0.48907   0.64640   0.20832   0.00000  Uiso   1.00
C280   C     0.49950   0.62397   0.24884   0.00000  Uiso   1.00
C281   C     0.65027   0.46847   0.22538   0.00000  Uiso   1.00
C282   C     0.36423   0.46780   0.22709   0.00000  Uiso   1.00
N283   N     0.38093   0.50001   0.25001   0.00000  Uiso   1.00
C284   C     0.35069   0.53261   0.27156   0.00000  Uiso   1.00
H285   H     0.36337   0.55871   0.28901   0.00000  Uiso   1.00
C286   C     0.63623   0.53258   0.27153   0.00000  Uiso   1.00
H287   H     0.61294   0.55866   0.28879   0.00000  Uiso   1.00
N288   N     0.61906   0.49998   0.25001   0.00000  Uiso   1.00
I289   I     0.62010   0.56985   0.11167   0.00000  Uiso   1.00
I290   I     0.52008   0.38181   0.36001   0.00000  Uiso   1.00
I291   I     0.47402   0.61817   0.14332   0.00000  Uiso   1.00
I292   I     0.63287   0.42260   0.17615   0.00000  Uiso   1.00
N293   N     0.39449   0.43299   0.20444   0.00000  Uiso   1.00
O294   O     0.42467   0.43610   0.15745   0.00000  Uiso   1.00
O295   O     0.38560   0.39615   0.22606   0.00000  Uiso   1.00
I296   I     0.61506   0.59322   0.39511   0.00000  Uiso   1.00
N297   N     0.40596   0.51487   0.07603   0.00000  Uiso   1.00
O298   O     0.37151   0.49215   0.10427   0.00000  Uiso   1.00
O299   O     0.41512   0.54977   0.09585   0.00000  Uiso   1.00
I300   I     0.58769   0.47599   0.38529   0.00000  Uiso   1.00
O301   O     0.79512   0.56108   0.25001   0.00000  Uiso   1.00
O302   O     0.87157   0.56107   0.25001   0.00000  Uiso   1.00
C303   C     0.83337   0.57986   0.24869   0.00000  Uiso   1.00
O304   O     0.77613   0.50000   0.32681   0.00000  Uiso   1.00
O305   O     0.85258   0.49999   0.32681   0.00000  Uiso   1.00
C306   C     0.80788   0.50027   0.35169   0.00000  Uiso   1.00
Zn307  Zn    0.78229   0.50001   0.25000   0.00000  Uiso   1.00
Zn308  Zn    0.88438   0.49999   0.25000   0.00000  Uiso   1.00
O309   O     0.79510   0.43893   0.25000   0.00000  Uiso   1.00
O310   O     0.87154   0.43892   0.25000   0.00000  Uiso   1.00
O311   O     0.81409   0.50001   0.17319   0.00000  Uiso   1.00
O312   O     0.89053   0.50000   0.17319   0.00000  Uiso   1.00
C313   C     0.83327   0.42012   0.25140   0.00000  Uiso   1.00
C314   C     0.85892   0.50285   0.14891   0.00000  Uiso   1.00
C315   C     0.91360   0.55976   0.02086   0.00000  Uiso   1.00
H316   H     0.94308   0.57989   0.00300   0.00000  Uiso   1.00
C317   C     0.87196   0.51557   0.09392   0.00000  Uiso   1.00
C318   C     0.74727   0.48946   0.43749   0.00000  Uiso   1.00
C319   C     0.73086   0.49215   0.49218   0.00000  Uiso   1.00
C320   C     0.76027   0.50595   0.02074   0.00000  Uiso   1.00
C321   C     0.80836   0.51512   0.49350   0.00000  Uiso   1.00
C322   C     0.82455   0.51443   0.43768   0.00000  Uiso   1.00
C323   C     0.84223   0.52390   0.01937   0.00000  Uiso   1.00
C324   C     0.88230   0.54785   0.49342   0.00000  Uiso   1.00
C325   C     0.89229   0.55464   0.43914   0.00000  Uiso   1.00
C326   C     0.87182   0.52689   0.41234   0.00000  Uiso   1.00
C327   C     0.84010   0.50525   0.06709   0.00000  Uiso   1.00
C328   C     0.90808   0.54452   0.07159   0.00000  Uiso   1.00
C329   C     0.79348   0.50107   0.40963   0.00000  Uiso   1.00
H330   H     0.81333   0.48224   0.08377   0.00000  Uiso   1.00
H331   H     0.72314   0.47917   0.41680   0.00000  Uiso   1.00
H332   H     0.69420   0.48504   0.01229   0.00000  Uiso   1.00
C333   C     0.84366   0.64381   0.29028   0.00000  Uiso   1.00
H334   H     0.85105   0.62576   0.32164   0.00000  Uiso   1.00
C335   C     0.84350   0.35355   0.29219   0.00000  Uiso   1.00
C336   C     0.83384   0.37598   0.25120   0.00000  Uiso   1.00
C337   C     0.82343   0.35610   0.20956   0.00000  Uiso   1.00
H338   H     0.81636   0.37409   0.17803   0.00000  Uiso   1.00
C339   C     0.82240   0.64640   0.20832   0.00000  Uiso   1.00
C340   C     0.83283   0.62397   0.24884   0.00000  Uiso   1.00
C341   C     0.98360   0.46847   0.22538   0.00000  Uiso   1.00
C342   C     0.69757   0.46780   0.22709   0.00000  Uiso   1.00
N343   N     0.71426   0.50001   0.25001   0.00000  Uiso   1.00
C344   C     0.68402   0.53261   0.27156   0.00000  Uiso   1.00
H345   H     0.69670   0.55871   0.28901   0.00000  Uiso   1.00
C346   C     0.96956   0.53258   0.27153   0.00000  Uiso   1.00
H347   H     0.94627   0.55866   0.28879   0.00000  Uiso   1.00
N348   N     0.95239   0.49998   0.25001   0.00000  Uiso   1.00
I349   I     0.95343   0.56985   0.11167   0.00000  Uiso   1.00
I350   I     0.85341   0.38181   0.36001   0.00000  Uiso   1.00
I351   I     0.80736   0.61817   0.14332   0.00000  Uiso   1.00
I352   I     0.96621   0.42260   0.17615   0.00000  Uiso   1.00
N353   N     0.72783   0.43299   0.20444   0.00000  Uiso   1.00
O354   O     0.75800   0.43610   0.15745   0.00000  Uiso   1.00
O355   O     0.71893   0.39615   0.22606   0.00000  Uiso   1.00
I356   I     0.94839   0.59322   0.39511   0.00000  Uiso   1.00
N357   N     0.73929   0.51487   0.07603   0.00000  Uiso   1.00
O358   O     0.70484   0.49215   0.10427   0.00000  Uiso   1.00
O359   O     0.74845   0.54977   0.09585   0.00000  Uiso   1.00
I360   I     0.92103   0.47599   0.38529   0.00000  Uiso   1.00
O361   O     0.12846   0.89442   0.25001   0.00000  Uiso   1.00
O362   O     0.20490   0.89441   0.25001   0.00000  Uiso   1.00
C363   C     0.16670   0.91319   0.24869   0.00000  Uiso   1.00
O364   O     0.10947   0.83333   0.32681   0.00000  Uiso   1.00
O365   O     0.18591   0.83332   0.32681   0.00000  Uiso   1.00
C366   C     0.14121   0.83360   0.35169   0.00000  Uiso   1.00
Zn367  Zn    0.11562   0.83334   0.25000   0.00000  Uiso   1.00
Zn368  Zn    0.21771   0.83333   0.25000   0.00000  Uiso   1.00
O369   O     0.12843   0.77226   0.25000   0.00000  Uiso   1.00
O370   O     0.20488   0.77225   0.25000   0.00000  Uiso   1.00
O371   O     0.14742   0.83335   0.17319   0.00000  Uiso   1.00
O372   O     0.22387   0.83334   0.17319   0.00000  Uiso   1.00
C373   C     0.16660   0.75346   0.25140   0.00000  Uiso   1.00
C374   C     0.19226   0.83619   0.14891   0.00000  Uiso   1.00
C375   C     0.24693   0.89309   0.02086   0.00000  Uiso   1.00
H376   H     0.27641   0.91323   0.00300   0.00000  Uiso   1.00
C377   C     0.20530   0.84890   0.09392   0.00000  Uiso   1.00
C378   C     0.08061   0.82280   0.43749   0.00000  Uiso   1.00
C379   C     0.06419   0.82548   0.49218   0.00000  Uiso   1.00
C380   C     0.09361   0.83928   0.02074   0.00000  Uiso   1.00
C381   C     0.14170   0.84845   0.49350   0.00000  Uiso   1.00
C382   C     0.15788   0.84776   0.43768   0.00000  Uiso   1.00
C383   C     0.17557   0.85724   0.01937   0.00000  Uiso   1.00
C384   C     0.21563   0.88118   0.49342   0.00000  Uiso   1.00
C385   C     0.22562   0.88797   0.43914   0.00000  Uiso   1.00
C386   C     0.20515   0.86022   0.41234   0.00000  Uiso   1.00
C387   C     0.17343   0.83859   0.06709   0.00000  Uiso   1.00
C388   C     0.24141   0.87785   0.07159   0.00000  Uiso   1.00
C389   C     0.12682   0.83441   0.40963   0.00000  Uiso   1.00
H390   H     0.14667   0.81557   0.08377   0.00000  Uiso   1.00
H391   H     0.05647   0.81250   0.41680   0.00000  Uiso   1.00
H392   H     0.02754   0.81838   0.01229   0.00000  Uiso   1.00
C393   C     0.17699   0.97715   0.29028   0.00000  Uiso   1.00
H394   H     0.18439   0.95910   0.32164   0.00000  Uiso   1.00
C395   C     0.17683   0.68688   0.29219   0.00000  Uiso   1.00
C396   C     0.16717   0.70931   0.25120   0.00000  Uiso   1.00
C397   C     0.15676   0.68943   0.20956   0.00000  Uiso   1.00
H398   H     0.14970   0.70743   0.17803   0.00000  Uiso   1.00
C399   C     0.15574   0.97973   0.20832   0.00000  Uiso   1.00
C400   C     0.16617   0.95730   0.24884   0.00000  Uiso   1.00
C401   C     0.31694   0.80180   0.22538   0.00000  Uiso   1.00
C402   C     0.03090   0.80113   0.22709   0.00000  Uiso   1.00
N403   N     0.04760   0.83334   0.25001   0.00000  Uiso   1.00
C404   C     0.01736   0.86594   0.27156   0.00000  Uiso   1.00
H405   H     0.03004   0.89205   0.28901   0.00000  Uiso   1.00
C406   C     0.30290   0.86591   0.27153   0.00000  Uiso   1.00
H407   H     0.27961   0.89199   0.28879   0.00000  Uiso   1.00
N408   N     0.28573   0.83331   0.25001   0.00000  Uiso   1.00
I409   I     0.28676   0.90318   0.11167   0.00000  Uiso   1.00
I410   I     0.18674   0.71514   0.36001   0.00000  Uiso   1.00
I411   I     0.14069   0.95150   0.14332   0.00000  Uiso   1.00
I412   I     0.29954   0.75594   0.17615   0.00000  Uiso   1.00
N413   N     0.06116   0.76632   0.20444   0.00000  Uiso   1.00
O414   O     0.09134   0.76943   0.15745   0.00000  Uiso   1.00
O415   O     0.05226   0.72949   0.22606   0.00000  Uiso   1.00
I416   I     0.28172   0.92655   0.39511   0.00000  Uiso   1.00
N417   N     0.07263   0.84820   0.07603   0.00000  Uiso   1.00
O418   O     0.03818   0.82548   0.10427   0.00000  Uiso   1.00
O419   O     0.08179   0.88310   0.09585   0.00000  Uiso   1.00
I420   I     0.25436   0.80932   0.38529   0.00000  Uiso   1.00
O421   O     0.46179   0.89442   0.25001   0.00000  Uiso   1.00
O422   O     0.53823   0.89441   0.25001   0.00000  Uiso   1.00
C423   C     0.50003   0.91319   0.24869   0.00000  Uiso   1.00
O424   O     0.44280   0.83333   0.32681   0.00000  Uiso   1.00
O425   O     0.51924   0.83332   0.32681   0.00000  Uiso   1.00
C426   C     0.47455   0.83360   0.35169   0.00000  Uiso   1.00
Zn427  Zn    0.44896   0.83334   0.25000   0.00000  Uiso   1.00
Zn428  Zn    0.55104   0.83333   0.25000   0.00000  Uiso   1.00
O429   O     0.46177   0.77226   0.25000   0.00000  Uiso   1.00
O430   O     0.53821   0.77225   0.25000   0.00000  Uiso   1.00
O431   O     0.48076   0.83335   0.17319   0.00000  Uiso   1.00
O432   O     0.55720   0.83334   0.17319   0.00000  Uiso   1.00
C433   C     0.49993   0.75346   0.25140   0.00000  Uiso   1.00
C434   C     0.52559   0.83619   0.14891   0.00000  Uiso   1.00
C435   C     0.58027   0.89309   0.02086   0.00000  Uiso   1.00
H436   H     0.60974   0.91323   0.00300   0.00000  Uiso   1.00
C437   C     0.53863   0.84890   0.09392   0.00000  Uiso   1.00
C438   C     0.41394   0.82280   0.43749   0.00000  Uiso   1.00
C439   C     0.39752   0.82548   0.49218   0.00000  Uiso   1.00
C440   C     0.42694   0.83928   0.02074   0.00000  Uiso   1.00
C441   C     0.47503   0.84845   0.49350   0.00000  Uiso   1.00
C442   C     0.49122   0.84776   0.43768   0.00000  Uiso   1.00
C443   C     0.50890   0.85724   0.01937   0.00000  Uiso   1.00
C444   C     0.54897   0.88118   0.49342   0.00000  Uiso   1.00
C445   C     0.55896   0.88797   0.43914   0.00000  Uiso   1.00
C446   C     0.53848   0.86022   0.41234   0.00000  Uiso   1.00
C447   C     0.50676   0.83859   0.06709   0.00000  Uiso   1.00
C448   C     0.57474   0.87785   0.07159   0.00000  Uiso   1.00
C449   C     0.46015   0.83441   0.40963   0.00000  Uiso   1.00
H450   H     0.48000   0.81557   0.08377   0.00000  Uiso   1.00
H451   H     0.38981   0.81250   0.41680   0.00000  Uiso   1.00
H452   H     0.36087   0.81838   0.01229   0.00000  Uiso   1.00
C453   C     0.51033   0.97715   0.29028   0.00000  Uiso   1.00
H454   H     0.51772   0.95910   0.32164   0.00000  Uiso   1.00
C455   C     0.51017   0.68688   0.29219   0.00000  Uiso   1.00
C456   C     0.50051   0.70931   0.25120   0.00000  Uiso   1.00
C457   C     0.49010   0.68943   0.20956   0.00000  Uiso   1.00
H458   H     0.48303   0.70743   0.17803   0.00000  Uiso   1.00
C459   C     0.48907   0.97973   0.20832   0.00000  Uiso   1.00
C460   C     0.49950   0.95730   0.24884   0.00000  Uiso   1.00
C461   C     0.65027   0.80180   0.22538   0.00000  Uiso   1.00
C462   C     0.36423   0.80113   0.22709   0.00000  Uiso   1.00
N463   N     0.38093   0.83334   0.25001   0.00000  Uiso   1.00
C464   C     0.35069   0.86594   0.27156   0.00000  Uiso   1.00
H465   H     0.36337   0.89205   0.28901   0.00000  Uiso   1.00
C466   C     0.63623   0.86591   0.27153   0.00000  Uiso   1.00
H467   H     0.61294   0.89199   0.28879   0.00000  Uiso   1.00
N468   N     0.61906   0.83331   0.25001   0.00000  Uiso   1.00
I469   I     0.62010   0.90318   0.11167   0.00000  Uiso   1.00
I470   I     0.52008   0.71514   0.36001   0.00000  Uiso   1.00
I471   I     0.47402   0.95150   0.14332   0.00000  Uiso   1.00
I472   I     0.63287   0.75594   0.17615   0.00000  Uiso   1.00
N473   N     0.39449   0.76632   0.20444   0.00000  Uiso   1.00
O474   O     0.42467   0.76943   0.15745   0.00000  Uiso   1.00
O475   O     0.38560   0.72949   0.22606   0.00000  Uiso   1.00
I476   I     0.61506   0.92655   0.39511   0.00000  Uiso   1.00
N477   N     0.40596   0.84820   0.07603   0.00000  Uiso   1.00
O478   O     0.37151   0.82548   0.10427   0.00000  Uiso   1.00
O479   O     0.41512   0.88310   0.09585   0.00000  Uiso   1.00
I480   I     0.58769   0.80932   0.38529   0.00000  Uiso   1.00
O481   O     0.79512   0.89442   0.25001   0.00000  Uiso   1.00
O482   O     0.87157   0.89441   0.25001   0.00000  Uiso   1.00
C483   C     0.83337   0.91319   0.24869   0.00000  Uiso   1.00
O484   O     0.77613   0.83333   0.32681   0.00000  Uiso   1.00
O485   O     0.85258   0.83332   0.32681   0.00000  Uiso   1.00
C486   C     0.80788   0.83360   0.35169   0.00000  Uiso   1.00
Zn487  Zn    0.78229   0.83334   0.25000   0.00000  Uiso   1.00
Zn488  Zn    0.88438   0.83333   0.25000   0.00000  Uiso   1.00
O489   O     0.79510   0.77226   0.25000   0.00000  Uiso   1.00
O490   O     0.87154   0.77225   0.25000   0.00000  Uiso   1.00
O491   O     0.81409   0.83335   0.17319   0.00000  Uiso   1.00
O492   O     0.89053   0.83334   0.17319   0.00000  Uiso   1.00
C493   C     0.83327   0.75346   0.25140   0.00000  Uiso   1.00
C494   C     0.85892   0.83619   0.14891   0.00000  Uiso   1.00
C495   C     0.91360   0.89309   0.02086   0.00000  Uiso   1.00
H496   H     0.94308   0.91323   0.00300   0.00000  Uiso   1.00
C497   C     0.87196   0.84890   0.09392   0.00000  Uiso   1.00
C498   C     0.74727   0.82280   0.43749   0.00000  Uiso   1.00
C499   C     0.73086   0.82548   0.49218   0.00000  Uiso   1.00
C500   C     0.76027   0.83928   0.02074   0.00000  Uiso   1.00
C501   C     0.80836   0.84845   0.49350   0.00000  Uiso   1.00
C502   C     0.82455   0.84776   0.43768   0.00000  Uiso   1.00
C503   C     0.84223   0.85724   0.01937   0.00000  Uiso   1.00
C504   C     0.88230   0.88118   0.49342   0.00000  Uiso   1.00
C505   C     0.89229   0.88797   0.43914   0.00000  Uiso   1.00
C506   C     0.87182   0.86022   0.41234   0.00000  Uiso   1.00
C507   C     0.84010   0.83859   0.06709   0.00000  Uiso   1.00
C508   C     0.90808   0.87785   0.07159   0.00000  Uiso   1.00
C509   C     0.79348   0.83441   0.40963   0.00000  Uiso   1.00
H510   H     0.81333   0.81557   0.08377   0.00000  Uiso   1.00
H511   H     0.72314   0.81250   0.41680   0.00000  Uiso   1.00
H512   H     0.69420   0.81838   0.01229   0.00000  Uiso   1.00
C513   C     0.84366   0.97715   0.29028   0.00000  Uiso   1.00
H514   H     0.85105   0.95910   0.32164   0.00000  Uiso   1.00
C515   C     0.84350   0.68688   0.29219   0.00000  Uiso   1.00
C516   C     0.83384   0.70931   0.25120   0.00000  Uiso   1.00
C517   C     0.82343   0.68943   0.20956   0.00000  Uiso   1.00
H518   H     0.81636   0.70743   0.17803   0.00000  Uiso   1.00
C519   C     0.82240   0.97973   0.20832   0.00000  Uiso   1.00
C520   C     0.83283   0.95730   0.24884   0.00000  Uiso   1.00
C521   C     0.98360   0.80180   0.22538   0.00000  Uiso   1.00
C522   C     0.69757   0.80113   0.22709   0.00000  Uiso   1.00
N523   N     0.71426   0.83334   0.25001   0.00000  Uiso   1.00
C524   C     0.68402   0.86594   0.27156   0.00000  Uiso   1.00
H525   H     0.69670   0.89205   0.28901   0.00000  Uiso   1.00
C526   C     0.96956   0.86591   0.27153   0.00000  Uiso   1.00
H527   H     0.94627   0.89199   0.28879   0.00000  Uiso   1.00
N528   N     0.95239   0.83331   0.25001   0.00000  Uiso   1.00
I529   I     0.95343   0.90318   0.11167   0.00000  Uiso   1.00
I530   I     0.85341   0.71514   0.36001   0.00000  Uiso   1.00
I531   I     0.80736   0.95150   0.14332   0.00000  Uiso   1.00
I532   I     0.96621   0.75594   0.17615   0.00000  Uiso   1.00
N533   N     0.72783   0.76632   0.20444   0.00000  Uiso   1.00
O534   O     0.75800   0.76943   0.15745   0.00000  Uiso   1.00
O535   O     0.71893   0.72949   0.22606   0.00000  Uiso   1.00
I536   I     0.94839   0.92655   0.39511   0.00000  Uiso   1.00
N537   N     0.73929   0.84820   0.07603   0.00000  Uiso   1.00
O538   O     0.70484   0.82548   0.10427   0.00000  Uiso   1.00
O539   O     0.74845   0.88310   0.09585   0.00000  Uiso   1.00
I540   I     0.92103   0.80932   0.38529   0.00000  Uiso   1.00
O541   O     0.12846   0.22775   0.75001   0.00000  Uiso   1.00
O542   O     0.20490   0.22774   0.75001   0.00000  Uiso   1.00
C543   C     0.16670   0.24653   0.74869   0.00000  Uiso   1.00
O544   O     0.10947   0.16666   0.82681   0.00000  Uiso   1.00
O545   O     0.18591   0.16665   0.82681   0.00000  Uiso   1.00
C546   C     0.14121   0.16694   0.85169   0.00000  Uiso   1.00
Zn547  Zn    0.11562   0.16667   0.75000   0.00000  Uiso   1.00
Zn548  Zn    0.21771   0.16666   0.75000   0.00000  Uiso   1.00
O549   O     0.12843   0.10559   0.75000   0.00000  Uiso   1.00
O550   O     0.20488   0.10558   0.75000   0.00000  Uiso   1.00
O551   O     0.14742   0.16668   0.67319   0.00000  Uiso   1.00
O552   O     0.22387   0.16667   0.67319   0.00000  Uiso   1.00
C553   C     0.16660   0.08679   0.75140   0.00000  Uiso   1.00
C554   C     0.19226   0.16952   0.64891   0.00000  Uiso   1.00
C555   C     0.24693   0.22643   0.52086   0.00000  Uiso   1.00
H556   H     0.27641   0.24656   0.50300   0.00000  Uiso   1.00
C557   C     0.20530   0.18224   0.59392   0.00000  Uiso   1.00
C558   C     0.08061   0.15613   0.93749   0.00000  Uiso   1.00
C559   C     0.06419   0.15881   0.99218   0.00000  Uiso   1.00
C560   C     0.09361   0.17262   0.52074   0.00000  Uiso   1.00
C561   C     0.14170   0.18179   0.99350   0.00000  Uiso   1.00
C562   C     0.15788   0.18110   0.93768   0.00000  Uiso   1.00
C563   C     0.17557   0.19057   0.51937   0.00000  Uiso   1.00
C564   C     0.21563   0.21451   0.99342   0.00000  Uiso   1.00
C565   C     0.22562   0.22131   0.93914   0.00000  Uiso   1.00
C566   C     0.20515   0.19355   0.91234   0.00000  Uiso   1.00
C567   C     0.17343   0.17192   0.56709   0.00000  Uiso   1.00
C568   C     0.24141   0.21119   0.57159   0.00000  Uiso   1.00
C569   C     0.12682   0.16774   0.90963   0.00000  Uiso   1.00
H570   H     0.14667   0.14891   0.58377   0.00000  Uiso   1.00
H571   H     0.05647   0.14583   0.91680   0.00000  Uiso   1.00
H572   H     0.02754   0.15171   0.51229   0.00000  Uiso   1.00
C573   C     0.17699   0.31048   0.79028   0.00000  Uiso   1.00
H574   H     0.18439   0.29243   0.82164   0.00000  Uiso   1.00
C575   C     0.17683   0.02022   0.79219   0.00000  Uiso   1.00
C576   C     0.16717   0.04264   0.75120   0.00000  Uiso   1.00
C577   C     0.15676   0.02277   0.70956   0.00000  Uiso   1.00
H578   H     0.14970   0.04076   0.67803   0.00000  Uiso   1.00
C579   C     0.15574   0.31306   0.70832   0.00000  Uiso   1.00
C580   C     0.16617   0.29064   0.74884   0.00000  Uiso   1.00
C581   C     0.31694   0.13513   0.72538   0.00000  Uiso   1.00
C582   C     0.03090   0.13447   0.72709   0.00000  Uiso   1.00
N583   N     0.04760   0.16668   0.75001   0.00000  Uiso   1.00
C584   C     0.01736   0.19927   0.77156   0.00000  Uiso   1.00
H585   H     0.03004   0.22538   0.78901   0.00000  Uiso   1.00
C586   C     0.30290   0.19924   0.77153   0.00000  Uiso   1.00
H587   H     0.27961   0.22533   0.78879   0.00000  Uiso   1.00
N588   N     0.28573   0.16665   0.75001   0.00000  Uiso   1.00
I589   I     0.28676   0.23652   0.61167   0.00000  Uiso   1.00
I590   I     0.18674   0.04847   0.86001   0.00000  Uiso   1.00
I591   I     0.14069   0.28484   0.64332   0.00000  Uiso   1.00
I592   I     0.29954   0.08927   0.67615   0.00000  Uiso   1.00
N593   N     0.06116   0.09965   0.70444   0.00000  Uiso   1.00
O594   O     0.09134   0.10276   0.65745   0.00000  Uiso   1.00
O595   O     0.05226   0.06282   0.72606   0.00000  Uiso   1.00
I596   I     0.28172   0.25989   0.89511   0.00000  Uiso   1.00
N597   N     0.07263   0.18153   0.57603   0.00000  Uiso   1.00
O598   O     0.03818   0.15881   0.60427   0.00000  Uiso   1.00
O599   O     0.08179   0.21643   0.59585   0.00000  Uiso   1.00
I600   I     0.25436   0.14265   0.88529   0.00000  Uiso   1.00
O601   O     0.46179   0.22775   0.75001   0.00000  Uiso   1.00
O602   O     0.53823   0.22774   0.75001   0.00000  Uiso   1.00
C603   C     0.50003   0.24653   0.74869   0.00000  Uiso   1.00
O604   O     0.44280   0.16666   0.82681   0.00000  Uiso   1.00
O605   O     0.51924   0.16665   0.82681   0.00000  Uiso   1.00
C606   C     0.47455   0.16694   0.85169   0.00000  Uiso   1.00
Zn607  Zn    0.44896   0.16667   0.75000   0.00000  Uiso   1.00
Zn608  Zn    0.55104   0.16666   0.75000   0.00000  Uiso   1.00
O609   O     0.46177   0.10559   0.75000   0.00000  Uiso   1.00
O610   O     0.53821   0.10558   0.75000   0.00000  Uiso   1.00
O611   O     0.48076   0.16668   0.67319   0.00000  Uiso   1.00
O612   O     0.55720   0.16667   0.67319   0.00000  Uiso   1.00
C613   C     0.49993   0.08679   0.75140   0.00000  Uiso   1.00
C614   C     0.52559   0.16952   0.64891   0.00000  Uiso   1.00
C615   C     0.58027   0.22643   0.52086   0.00000  Uiso   1.00
H616   H     0.60974   0.24656   0.50300   0.00000  Uiso   1.00
C617   C     0.53863   0.18224   0.59392   0.00000  Uiso   1.00
C618   C     0.41394   0.15613   0.93749   0.00000  Uiso   1.00
C619   C     0.39752   0.15881   0.99218   0.00000  Uiso   1.00
C620   C     0.42694   0.17262   0.52074   0.00000  Uiso   1.00
C621   C     0.47503   0.18179   0.99350   0.00000  Uiso   1.00
C622   C     0.49122   0.18110   0.93768   0.00000  Uiso   1.00
C623   C     0.50890   0.19057   0.51937   0.00000  Uiso   1.00
C624   C     0.54897   0.21451   0.99342   0.00000  Uiso   1.00
C625   C     0.55896   0.22131   0.93914   0.00000  Uiso   1.00
C626   C     0.53848   0.19355   0.91234   0.00000  Uiso   1.00
C627   C     0.50676   0.17192   0.56709   0.00000  Uiso   1.00
C628   C     0.57474   0.21119   0.57159   0.00000  Uiso   1.00
C629   C     0.46015   0.16774   0.90963   0.00000  Uiso   1.00
H630   H     0.48000   0.14891   0.58377   0.00000  Uiso   1.00
H631   H     0.38981   0.14583   0.91680   0.00000  Uiso   1.00
H632   H     0.36087   0.15171   0.51229   0.00000  Uiso   1.00
C633   C     0.51033   0.31048   0.79028   0.00000  Uiso   1.00
H634   H     0.51772   0.29243   0.82164   0.00000  Uiso   1.00
C635   C     0.51017   0.02022   0.79219   0.00000  Uiso   1.00
C636   C     0.50051   0.04264   0.75120   0.00000  Uiso   1.00
C637   C     0.49010   0.02277   0.70956   0.00000  Uiso   1.00
H638   H     0.48303   0.04076   0.67803   0.00000  Uiso   1.00
C639   C     0.48907   0.31306   0.70832   0.00000  Uiso   1.00
C640   C     0.49950   0.29064   0.74884   0.00000  Uiso   1.00
C641   C     0.65027   0.13513   0.72538   0.00000  Uiso   1.00
C642   C     0.36423   0.13447   0.72709   0.00000  Uiso   1.00
N643   N     0.38093   0.16668   0.75001   0.00000  Uiso   1.00
C644   C     0.35069   0.19927   0.77156   0.00000  Uiso   1.00
H645   H     0.36337   0.22538   0.78901   0.00000  Uiso   1.00
C646   C     0.63623   0.19924   0.77153   0.00000  Uiso   1.00
H647   H     0.61294   0.22533   0.78879   0.00000  Uiso   1.00
N648   N     0.61906   0.16665   0.75001   0.00000  Uiso   1.00
I649   I     0.62010   0.23652   0.61167   0.00000  Uiso   1.00
I650   I     0.52008   0.04847   0.86001   0.00000  Uiso   1.00
I651   I     0.47402   0.28484   0.64332   0.00000  Uiso   1.00
I652   I     0.63287   0.08927   0.67615   0.00000  Uiso   1.00
N653   N     0.39449   0.09965   0.70444   0.00000  Uiso   1.00
O654   O     0.42467   0.10276   0.65745   0.00000  Uiso   1.00
O655   O     0.38560   0.06282   0.72606   0.00000  Uiso   1.00
I656   I     0.61506   0.25989   0.89511   0.00000  Uiso   1.00
N657   N     0.40596   0.18153   0.57603   0.00000  Uiso   1.00
O658   O     0.37151   0.15881   0.60427   0.00000  Uiso   1.00
O659   O     0.41512   0.21643   0.59585   0.00000  Uiso   1.00
I660   I     0.58769   0.14265   0.88529   0.00000  Uiso   1.00
O661   O     0.79512   0.22775   0.75001   0.00000  Uiso   1.00
O662   O     0.87157   0.22774   0.75001   0.00000  Uiso   1.00
C663   C     0.83337   0.24653   0.74869   0.00000  Uiso   1.00
O664   O     0.77613   0.16666   0.82681   0.00000  Uiso   1.00
O665   O     0.85258   0.16665   0.82681   0.00000  Uiso   1.00
C666   C     0.80788   0.16694   0.85169   0.00000  Uiso   1.00
Zn667  Zn    0.78229   0.16667   0.75000   0.00000  Uiso   1.00
Zn668  Zn    0.88438   0.16666   0.75000   0.00000  Uiso   1.00
O669   O     0.79510   0.10559   0.75000   0.00000  Uiso   1.00
O670   O     0.87154   0.10558   0.75000   0.00000  Uiso   1.00
O671   O     0.81409   0.16668   0.67319   0.00000  Uiso   1.00
O672   O     0.89053   0.16667   0.67319   0.00000  Uiso   1.00
C673   C     0.83327   0.08679   0.75140   0.00000  Uiso   1.00
C674   C     0.85892   0.16952   0.64891   0.00000  Uiso   1.00
C675   C     0.91360   0.22643   0.52086   0.00000  Uiso   1.00
H676   H     0.94308   0.24656   0.50300   0.00000  Uiso   1.00
C677   C     0.87196   0.18224   0.59392   0.00000  Uiso   1.00
C678   C     0.74727   0.15613   0.93749   0.00000  Uiso   1.00
C679   C     0.73086   0.15881   0.99218   0.00000  Uiso   1.00
C680   C     0.76027   0.17262   0.52074   0.00000  Uiso   1.00
C681   C     0.80836   0.18179   0.99350   0.00000  Uiso   1.00
C682   C     0.82455   0.18110   0.93768   0.00000  Uiso   1.00
C683   C     0.84223   0.19057   0.51937   0.00000  Uiso   1.00
C684   C     0.88230   0.21451   0.99342   0.00000  Uiso   1.00
C685   C     0.89229   0.22131   0.93914   0.00000  Uiso   1.00
C686   C     0.87182   0.19355   0.91234   0.00000  Uiso   1.00
C687   C     0.84010   0.17192   0.56709   0.00000  Uiso   1.00
C688   C     0.90808   0.21119   0.57159   0.00000  Uiso   1.00
C689   C     0.79348   0.16774   0.90963   0.00000  Uiso   1.00
H690   H     0.81333   0.14891   0.58377   0.00000  Uiso   1.00
H691   H     0.72314   0.14583   0.91680   0.00000  Uiso   1.00
H692   H     0.69420   0.15171   0.51229   0.00000  Uiso   1.00
C693   C     0.84366   0.31048   0.79028   0.00000  Uiso   1.00
H694   H     0.85105   0.29243   0.82164   0.00000  Uiso   1.00
C695   C     0.84350   0.02022   0.79219   0.00000  Uiso   1.00
C696   C     0.83384   0.04264   0.75120   0.00000  Uiso   1.00
C697   C     0.82343   0.02277   0.70956   0.00000  Uiso   1.00
H698   H     0.81636   0.04076   0.67803   0.00000  Uiso   1.00
C699   C     0.82240   0.31306   0.70832   0.00000  Uiso   1.00
C700   C     0.83283   0.29064   0.74884   0.00000  Uiso   1.00
C701   C     0.98360   0.13513   0.72538   0.00000  Uiso   1.00
C702   C     0.69757   0.13447   0.72709   0.00000  Uiso   1.00
N703   N     0.71426   0.16668   0.75001   0.00000  Uiso   1.00
C704   C     0.68402   0.19927   0.77156   0.00000  Uiso   1.00
H705   H     0.69670   0.22538   0.78901   0.00000  Uiso   1.00
C706   C     0.96956   0.19924   0.77153   0.00000  Uiso   1.00
H707   H     0.94627   0.22533   0.78879   0.00000  Uiso   1.00
N708   N     0.95239   0.16665   0.75001   0.00000  Uiso   1.00
I709   I     0.95343   0.23652   0.61167   0.00000  Uiso   1.00
I710   I     0.85341   0.04847   0.86001   0.00000  Uiso   1.00
I711   I     0.80736   0.28484   0.64332   0.00000  Uiso   1.00
I712   I     0.96621   0.08927   0.67615   0.00000  Uiso   1.00
N713   N     0.72783   0.09965   0.70444   0.00000  Uiso   1.00
O714   O     0.75800   0.10276   0.65745   0.00000  Uiso   1.00
O715   O     0.71893   0.06282   0.72606   0.00000  Uiso   1.00
I716   I     0.94839   0.25989   0.89511   0.00000  Uiso   1.00
N717   N     0.73929   0.18153   0.57603   0.00000  Uiso   1.00
O718   O     0.70484   0.15881   0.60427   0.00000  Uiso   1.00
O719   O     0.74845   0.21643   0.59585   0.00000  Uiso   1.00
I720   I     0.92103   0.14265   0.88529   0.00000  Uiso   1.00
O721   O     0.12846   0.56108   0.75001   0.00000  Uiso   1.00
O722   O     0.20490   0.56107   0.75001   0.00000  Uiso   1.00
C723   C     0.16670   0.57986   0.74869   0.00000  Uiso   1.00
O724   O     0.10947   0.50000   0.82681   0.00000  Uiso   1.00
O725   O     0.18591   0.49999   0.82681   0.00000  Uiso   1.00
C726   C     0.14121   0.50027   0.85169   0.00000  Uiso   1.00
Zn727  Zn    0.11562   0.50001   0.75000   0.00000  Uiso   1.00
Zn728  Zn    0.21771   0.49999   0.75000   0.00000  Uiso   1.00
O729   O     0.12843   0.43893   0.75000   0.00000  Uiso   1.00
O730   O     0.20488   0.43892   0.75000   0.00000  Uiso   1.00
O731   O     0.14742   0.50001   0.67319   0.00000  Uiso   1.00
O732   O     0.22387   0.50000   0.67319   0.00000  Uiso   1.00
C733   C     0.16660   0.42012   0.75140   0.00000  Uiso   1.00
C734   C     0.19226   0.50285   0.64891   0.00000  Uiso   1.00
C735   C     0.24693   0.55976   0.52086   0.00000  Uiso   1.00
H736   H     0.27641   0.57989   0.50300   0.00000  Uiso   1.00
C737   C     0.20530   0.51557   0.59392   0.00000  Uiso   1.00
C738   C     0.08061   0.48946   0.93749   0.00000  Uiso   1.00
C739   C     0.06419   0.49215   0.99218   0.00000  Uiso   1.00
C740   C     0.09361   0.50595   0.52074   0.00000  Uiso   1.00
C741   C     0.14170   0.51512   0.99350   0.00000  Uiso   1.00
C742   C     0.15788   0.51443   0.93768   0.00000  Uiso   1.00
C743   C     0.17557   0.52390   0.51937   0.00000  Uiso   1.00
C744   C     0.21563   0.54785   0.99342   0.00000  Uiso   1.00
C745   C     0.22562   0.55464   0.93914   0.00000  Uiso   1.00
C746   C     0.20515   0.52689   0.91234   0.00000  Uiso   1.00
C747   C     0.17343   0.50525   0.56709   0.00000  Uiso   1.00
C748   C     0.24141   0.54452   0.57159   0.00000  Uiso   1.00
C749   C     0.12682   0.50107   0.90963   0.00000  Uiso   1.00
H750   H     0.14667   0.48224   0.58377   0.00000  Uiso   1.00
H751   H     0.05647   0.47917   0.91680   0.00000  Uiso   1.00
H752   H     0.02754   0.48504   0.51229   0.00000  Uiso   1.00
C753   C     0.17699   0.64381   0.79028   0.00000  Uiso   1.00
H754   H     0.18439   0.62576   0.82164   0.00000  Uiso   1.00
C755   C     0.17683   0.35355   0.79219   0.00000  Uiso   1.00
C756   C     0.16717   0.37598   0.75120   0.00000  Uiso   1.00
C757   C     0.15676   0.35610   0.70956   0.00000  Uiso   1.00
H758   H     0.14970   0.37409   0.67803   0.00000  Uiso   1.00
C759   C     0.15574   0.64640   0.70832   0.00000  Uiso   1.00
C760   C     0.16617   0.62397   0.74884   0.00000  Uiso   1.00
C761   C     0.31694   0.46847   0.72538   0.00000  Uiso   1.00
C762   C     0.03090   0.46780   0.72709   0.00000  Uiso   1.00
N763   N     0.04760   0.50001   0.75001   0.00000  Uiso   1.00
C764   C     0.01736   0.53261   0.77156   0.00000  Uiso   1.00
H765   H     0.03004   0.55871   0.78901   0.00000  Uiso   1.00
C766   C     0.30290   0.53258   0.77153   0.00000  Uiso   1.00
H767   H     0.27961   0.55866   0.78879   0.00000  Uiso   1.00
N768   N     0.28573   0.49998   0.75001   0.00000  Uiso   1.00
I769   I     0.28676   0.56985   0.61167   0.00000  Uiso   1.00
I770   I     0.18674   0.38181   0.86001   0.00000  Uiso   1.00
I771   I     0.14069   0.61817   0.64332   0.00000  Uiso   1.00
I772   I     0.29954   0.42260   0.67615   0.00000  Uiso   1.00
N773   N     0.06116   0.43299   0.70444   0.00000  Uiso   1.00
O774   O     0.09134   0.43610   0.65745   0.00000  Uiso   1.00
O775   O     0.05226   0.39615   0.72606   0.00000  Uiso   1.00
I776   I     0.28172   0.59322   0.89511   0.00000  Uiso   1.00
N777   N     0.07263   0.51487   0.57603   0.00000  Uiso   1.00
O778   O     0.03818   0.49215   0.60427   0.00000  Uiso   1.00
O779   O     0.08179   0.54977   0.59585   0.00000  Uiso   1.00
I780   I     0.25436   0.47599   0.88529   0.00000  Uiso   1.00
O781   O     0.46179   0.56108   0.75001   0.00000  Uiso   1.00
O782   O     0.53823   0.56107   0.75001   0.00000  Uiso   1.00
C783   C     0.50003   0.57986   0.74869   0.00000  Uiso   1.00
O784   O     0.44280   0.50000   0.82681   0.00000  Uiso   1.00
O785   O     0.51924   0.49999   0.82681   0.00000  Uiso   1.00
C786   C     0.47455   0.50027   0.85169   0.00000  Uiso   1.00
Zn787  Zn    0.44896   0.50001   0.75000   0.00000  Uiso   1.00
Zn788  Zn    0.55104   0.49999   0.75000   0.00000  Uiso   1.00
O789   O     0.46177   0.43893   0.75000   0.00000  Uiso   1.00
O790   O     0.53821   0.43892   0.75000   0.00000  Uiso   1.00
O791   O     0.48076   0.50001   0.67319   0.00000  Uiso   1.00
O792   O     0.55720   0.50000   0.67319   0.00000  Uiso   1.00
C793   C     0.49993   0.42012   0.75140   0.00000  Uiso   1.00
C794   C     0.52559   0.50285   0.64891   0.00000  Uiso   1.00
C795   C     0.58027   0.55976   0.52086   0.00000  Uiso   1.00
H796   H     0.60974   0.57989   0.50300   0.00000  Uiso   1.00
C797   C     0.53863   0.51557   0.59392   0.00000  Uiso   1.00
C798   C     0.41394   0.48946   0.93749   0.00000  Uiso   1.00
C799   C     0.39752   0.49215   0.99218   0.00000  Uiso   1.00
C800   C     0.42694   0.50595   0.52074   0.00000  Uiso   1.00
C801   C     0.47503   0.51512   0.99350   0.00000  Uiso   1.00
C802   C     0.49122   0.51443   0.93768   0.00000  Uiso   1.00
C803   C     0.50890   0.52390   0.51937   0.00000  Uiso   1.00
C804   C     0.54897   0.54785   0.99342   0.00000  Uiso   1.00
C805   C     0.55896   0.55464   0.93914   0.00000  Uiso   1.00
C806   C     0.53848   0.52689   0.91234   0.00000  Uiso   1.00
C807   C     0.50676   0.50525   0.56709   0.00000  Uiso   1.00
C808   C     0.57474   0.54452   0.57159   0.00000  Uiso   1.00
C809   C     0.46015   0.50107   0.90963   0.00000  Uiso   1.00
H810   H     0.48000   0.48224   0.58377   0.00000  Uiso   1.00
H811   H     0.38981   0.47917   0.91680   0.00000  Uiso   1.00
H812   H     0.36087   0.48504   0.51229   0.00000  Uiso   1.00
C813   C     0.51033   0.64381   0.79028   0.00000  Uiso   1.00
H814   H     0.51772   0.62576   0.82164   0.00000  Uiso   1.00
C815   C     0.51017   0.35355   0.79219   0.00000  Uiso   1.00
C816   C     0.50051   0.37598   0.75120   0.00000  Uiso   1.00
C817   C     0.49010   0.35610   0.70956   0.00000  Uiso   1.00
H818   H     0.48303   0.37409   0.67803   0.00000  Uiso   1.00
C819   C     0.48907   0.64640   0.70832   0.00000  Uiso   1.00
C820   C     0.49950   0.62397   0.74884   0.00000  Uiso   1.00
C821   C     0.65027   0.46847   0.72538   0.00000  Uiso   1.00
C822   C     0.36423   0.46780   0.72709   0.00000  Uiso   1.00
N823   N     0.38093   0.50001   0.75001   0.00000  Uiso   1.00
C824   C     0.35069   0.53261   0.77156   0.00000  Uiso   1.00
H825   H     0.36337   0.55871   0.78901   0.00000  Uiso   1.00
C826   C     0.63623   0.53258   0.77153   0.00000  Uiso   1.00
H827   H     0.61294   0.55866   0.78879   0.00000  Uiso   1.00
N828   N     0.61906   0.49998   0.75001   0.00000  Uiso   1.00
I829   I     0.62010   0.56985   0.61167   0.00000  Uiso   1.00
I830   I     0.52008   0.38181   0.86001   0.00000  Uiso   1.00
I831   I     0.47402   0.61817   0.64332   0.00000  Uiso   1.00
I832   I     0.63287   0.42260   0.67615   0.00000  Uiso   1.00
N833   N     0.39449   0.43299   0.70444   0.00000  Uiso   1.00
O834   O     0.42467   0.43610   0.65745   0.00000  Uiso   1.00
O835   O     0.38560   0.39615   0.72606   0.00000  Uiso   1.00
I836   I     0.61506   0.59322   0.89511   0.00000  Uiso   1.00
N837   N     0.40596   0.51487   0.57603   0.00000  Uiso   1.00
O838   O     0.37151   0.49215   0.60427   0.00000  Uiso   1.00
O839   O     0.41512   0.54977   0.59585   0.00000  Uiso   1.00
I840   I     0.58769   0.47599   0.88529   0.00000  Uiso   1.00
O841   O     0.79512   0.56108   0.75001   0.00000  Uiso   1.00
O842   O     0.87157   0.56107   0.75001   0.00000  Uiso   1.00
C843   C     0.83337   0.57986   0.74869   0.00000  Uiso   1.00
O844   O     0.77613   0.50000   0.82681   0.00000  Uiso   1.00
O845   O     0.85258   0.49999   0.82681   0.00000  Uiso   1.00
C846   C     0.80788   0.50027   0.85169   0.00000  Uiso   1.00
Zn847  Zn    0.78229   0.50001   0.75000   0.00000  Uiso   1.00
Zn848  Zn    0.88438   0.49999   0.75000   0.00000  Uiso   1.00
O849   O     0.79510   0.43893   0.75000   0.00000  Uiso   1.00
O850   O     0.87154   0.43892   0.75000   0.00000  Uiso   1.00
O851   O     0.81409   0.50001   0.67319   0.00000  Uiso   1.00
O852   O     0.89053   0.50000   0.67319   0.00000  Uiso   1.00
C853   C     0.83327   0.42012   0.75140   0.00000  Uiso   1.00
C854   C     0.85892   0.50285   0.64891   0.00000  Uiso   1.00
C855   C     0.91360   0.55976   0.52086   0.00000  Uiso   1.00
H856   H     0.94308   0.57989   0.50300   0.00000  Uiso   1.00
C857   C     0.87196   0.51557   0.59392   0.00000  Uiso   1.00
C858   C     0.74727   0.48946   0.93749   0.00000  Uiso   1.00
C859   C     0.73086   0.49215   0.99218   0.00000  Uiso   1.00
C860   C     0.76027   0.50595   0.52074   0.00000  Uiso   1.00
C861   C     0.80836   0.51512   0.99350   0.00000  Uiso   1.00
C862   C     0.82455   0.51443   0.93768   0.00000  Uiso   1.00
C863   C     0.84223   0.52390   0.51937   0.00000  Uiso   1.00
C864   C     0.88230   0.54785   0.99342   0.00000  Uiso   1.00
C865   C     0.89229   0.55464   0.93914   0.00000  Uiso   1.00
C866   C     0.87182   0.52689   0.91234   0.00000  Uiso   1.00
C867   C     0.84010   0.50525   0.56709   0.00000  Uiso   1.00
C868   C     0.90808   0.54452   0.57159   0.00000  Uiso   1.00
C869   C     0.79348   0.50107   0.90963   0.00000  Uiso   1.00
H870   H     0.81333   0.48224   0.58377   0.00000  Uiso   1.00
H871   H     0.72314   0.47917   0.91680   0.00000  Uiso   1.00
H872   H     0.69420   0.48504   0.51229   0.00000  Uiso   1.00
C873   C     0.84366   0.64381   0.79028   0.00000  Uiso   1.00
H874   H     0.85105   0.62576   0.82164   0.00000  Uiso   1.00
C875   C     0.84350   0.35355   0.79219   0.00000  Uiso   1.00
C876   C     0.83384   0.37598   0.75120   0.00000  Uiso   1.00
C877   C     0.82343   0.35610   0.70956   0.00000  Uiso   1.00
H878   H     0.81636   0.37409   0.67803   0.00000  Uiso   1.00
C879   C     0.82240   0.64640   0.70832   0.00000  Uiso   1.00
C880   C     0.83283   0.62397   0.74884   0.00000  Uiso   1.00
C881   C     0.98360   0.46847   0.72538   0.00000  Uiso   1.00
C882   C     0.69757   0.46780   0.72709   0.00000  Uiso   1.00
N883   N     0.71426   0.50001   0.75001   0.00000  Uiso   1.00
C884   C     0.68402   0.53261   0.77156   0.00000  Uiso   1.00
H885   H     0.69670   0.55871   0.78901   0.00000  Uiso   1.00
C886   C     0.96956   0.53258   0.77153   0.00000  Uiso   1.00
H887   H     0.94627   0.55866   0.78879   0.00000  Uiso   1.00
N888   N     0.95239   0.49998   0.75001   0.00000  Uiso   1.00
I889   I     0.95343   0.56985   0.61167   0.00000  Uiso   1.00
I890   I     0.85341   0.38181   0.86001   0.00000  Uiso   1.00
I891   I     0.80736   0.61817   0.64332   0.00000  Uiso   1.00
I892   I     0.96621   0.42260   0.67615   0.00000  Uiso   1.00
N893   N     0.72783   0.43299   0.70444   0.00000  Uiso   1.00
O894   O     0.75800   0.43610   0.65745   0.00000  Uiso   1.00
O895   O     0.71893   0.39615   0.72606   0.00000  Uiso   1.00
I896   I     0.94839   0.59322   0.89511   0.00000  Uiso   1.00
N897   N     0.73929   0.51487   0.57603   0.00000  Uiso   1.00
O898   O     0.70484   0.49215   0.60427   0.00000  Uiso   1.00
O899   O     0.74845   0.54977   0.59585   0.00000  Uiso   1.00
I900   I     0.92103   0.47599   0.88529   0.00000  Uiso   1.00
O901   O     0.12846   0.89442   0.75001   0.00000  Uiso   1.00
O902   O     0.20490   0.89441   0.75001   0.00000  Uiso   1.00
C903   C     0.16670   0.91319   0.74869   0.00000  Uiso   1.00
O904   O     0.10947   0.83333   0.82681   0.00000  Uiso   1.00
O905   O     0.18591   0.83332   0.82681   0.00000  Uiso   1.00
C906   C     0.14121   0.83360   0.85169   0.00000  Uiso   1.00
Zn907  Zn    0.11562   0.83334   0.75000   0.00000  Uiso   1.00
Zn908  Zn    0.21771   0.83333   0.75000   0.00000  Uiso   1.00
O909   O     0.12843   0.77226   0.75000   0.00000  Uiso   1.00
O910   O     0.20488   0.77225   0.75000   0.00000  Uiso   1.00
O911   O     0.14742   0.83335   0.67319   0.00000  Uiso   1.00
O912   O     0.22387   0.83334   0.67319   0.00000  Uiso   1.00
C913   C     0.16660   0.75346   0.75140   0.00000  Uiso   1.00
C914   C     0.19226   0.83619   0.64891   0.00000  Uiso   1.00
C915   C     0.24693   0.89309   0.52086   0.00000  Uiso   1.00
H916   H     0.27641   0.91323   0.50300   0.00000  Uiso   1.00
C917   C     0.20530   0.84890   0.59392   0.00000  Uiso   1.00
C918   C     0.08061   0.82280   0.93749   0.00000  Uiso   1.00
C919   C     0.06419   0.82548   0.99218   0.00000  Uiso   1.00
C920   C     0.09361   0.83928   0.52074   0.00000  Uiso   1.00
C921   C     0.14170   0.84845   0.99350   0.00000  Uiso   1.00
C922   C     0.15788   0.84776   0.93768   0.00000  Uiso   1.00
C923   C     0.17557   0.85724   0.51937   0.00000  Uiso   1.00
C924   C     0.21563   0.88118   0.99342   0.00000  Uiso   1.00
C925   C     0.22562   0.88797   0.93914   0.00000  Uiso   1.00
C926   C     0.20515   0.86022   0.91234   0.00000  Uiso   1.00
C927   C     0.17343   0.83859   0.56709   0.00000  Uiso   1.00
C928   C     0.24141   0.87785   0.57159   0.00000  Uiso   1.00
C929   C     0.12682   0.83441   0.90963   0.00000  Uiso   1.00
H930   H     0.14667   0.81557   0.58377   0.00000  Uiso   1.00
H931   H     0.05647   0.81250   0.91680   0.00000  Uiso   1.00
H932   H     0.02754   0.81838   0.51229   0.00000  Uiso   1.00
C933   C     0.17699   0.97715   0.79028   0.00000  Uiso   1.00
H934   H     0.18439   0.95910   0.82164   0.00000  Uiso   1.00
C935   C     0.17683   0.68688   0.79219   0.00000  Uiso   1.00
C936   C     0.16717   0.70931   0.75120   0.00000  Uiso   1.00
C937   C     0.15676   0.68943   0.70956   0.00000  Uiso   1.00
H938   H     0.14970   0.70743   0.67803   0.00000  Uiso   1.00
C939   C     0.15574   0.97973   0.70832   0.00000  Uiso   1.00
C940   C     0.16617   0.95730   0.74884   0.00000  Uiso   1.00
C941   C     0.31694   0.80180   0.72538   0.00000  Uiso   1.00
C942   C     0.03090   0.80113   0.72709   0.00000  Uiso   1.00
N943   N     0.04760   0.83334   0.75001   0.00000  Uiso   1.00
C944   C     0.01736   0.86594   0.77156   0.00000  Uiso   1.00
H945   H     0.03004   0.89205   0.78901   0.00000  Uiso   1.00
C946   C     0.30290   0.86591   0.77153   0.00000  Uiso   1.00
H947   H     0.27961   0.89199   0.78879   0.00000  Uiso   1.00
N948   N     0.28573   0.83331   0.75001   0.00000  Uiso   1.00
I949   I     0.28676   0.90318   0.61167   0.00000  Uiso   1.00
I950   I     0.18674   0.71514   0.86001   0.00000  Uiso   1.00
I951   I     0.14069   0.95150   0.64332   0.00000  Uiso   1.00
I952   I     0.29954   0.75594   0.67615   0.00000  Uiso   1.00
N953   N     0.06116   0.76632   0.70444   0.00000  Uiso   1.00
O954   O     0.09134   0.76943   0.65745   0.00000  Uiso   1.00
O955   O     0.05226   0.72949   0.72606   0.00000  Uiso   1.00
I956   I     0.28172   0.92655   0.89511   0.00000  Uiso   1.00
N957   N     0.07263   0.84820   0.57603   0.00000  Uiso   1.00
O958   O     0.03818   0.82548   0.60427   0.00000  Uiso   1.00
O959   O     0.08179   0.88310   0.59585   0.00000  Uiso   1.00
I960   I     0.25436   0.80932   0.88529   0.00000  Uiso   1.00
O961   O     0.46179   0.89442   0.75001   0.00000  Uiso   1.00
O962   O     0.53823   0.89441   0.75001   0.00000  Uiso   1.00
C963   C     0.50003   0.91319   0.74869   0.00000  Uiso   1.00
O964   O     0.44280   0.83333   0.82681   0.00000  Uiso   1.00
O965   O     0.51924   0.83332   0.82681   0.00000  Uiso   1.00
C966   C     0.47455   0.83360   0.85169   0.00000  Uiso   1.00
Zn967  Zn    0.44896   0.83334   0.75000   0.00000  Uiso   1.00
Zn968  Zn    0.55104   0.83333   0.75000   0.00000  Uiso   1.00
O969   O     0.46177   0.77226   0.75000   0.00000  Uiso   1.00
O970   O     0.53821   0.77225   0.75000   0.00000  Uiso   1.00
O971   O     0.48076   0.83335   0.67319   0.00000  Uiso   1.00
O972   O     0.55720   0.83334   0.67319   0.00000  Uiso   1.00
C973   C     0.49993   0.75346   0.75140   0.00000  Uiso   1.00
C974   C     0.52559   0.83619   0.64891   0.00000  Uiso   1.00
C975   C     0.58027   0.89309   0.52086   0.00000  Uiso   1.00
H976   H     0.60974   0.91323   0.50300   0.00000  Uiso   1.00
C977   C     0.53863   0.84890   0.59392   0.00000  Uiso   1.00
C978   C     0.41394   0.82280   0.93749   0.00000  Uiso   1.00
C979   C     0.39752   0.82548   0.99218   0.00000  Uiso   1.00
C980   C     0.42694   0.83928   0.52074   0.00000  Uiso   1.00
C981   C     0.47503   0.84845   0.99350   0.00000  Uiso   1.00
C982   C     0.49122   0.84776   0.93768   0.00000  Uiso   1.00
C983   C     0.50890   0.85724   0.51937   0.00000  Uiso   1.00
C984   C     0.54897   0.88118   0.99342   0.00000  Uiso   1.00
C985   C     0.55896   0.88797   0.93914   0.00000  Uiso   1.00
C986   C     0.53848   0.86022   0.91234   0.00000  Uiso   1.00
C987   C     0.50676   0.83859   0.56709   0.00000  Uiso   1.00
C988   C     0.57474   0.87785   0.57159   0.00000  Uiso   1.00
C989   C     0.46015   0.83441   0.90963   0.00000  Uiso   1.00
H990   H     0.48000   0.81557   0.58377   0.00000  Uiso   1.00
H991   H     0.38981   0.81250   0.91680   0.00000  Uiso   1.00
H992   H     0.36087   0.81838   0.51229   0.00000  Uiso   1.00
C993   C     0.51033   0.97715   0.79028   0.00000  Uiso   1.00
H994   H     0.51772   0.95910   0.82164   0.00000  Uiso   1.00
C995   C     0.51017   0.68688   0.79219   0.00000  Uiso   1.00
C996   C     0.50051   0.70931   0.75120   0.00000  Uiso   1.00
C997   C     0.49010   0.68943   0.70956   0.00000  Uiso   1.00
H998   H     0.48303   0.70743   0.67803   0.00000  Uiso   1.00
C999   C     0.48907   0.97973   0.70832   0.00000  Uiso   1.00
C1000  C     0.49950   0.95730   0.74884   0.00000  Uiso   1.00
C1001  C     0.65027   0.80180   0.72538   0.00000  Uiso   1.00
C1002  C     0.36423   0.80113   0.72709   0.00000  Uiso   1.00
N1003  N     0.38093   0.83334   0.75001   0.00000  Uiso   1.00
C1004  C     0.35069   0.86594   0.77156   0.00000  Uiso   1.00
H1005  H     0.36337   0.89205   0.78901   0.00000  Uiso   1.00
C1006  C     0.63623   0.86591   0.77153   0.00000  Uiso   1.00
H1007  H     0.61294   0.89199   0.78879   0.00000  Uiso   1.00
N1008  N     0.61906   0.83331   0.75001   0.00000  Uiso   1.00
I1009  I     0.62010   0.90318   0.61167   0.00000  Uiso   1.00
I1010  I     0.52008   0.71514   0.86001   0.00000  Uiso   1.00
I1011  I     0.47402   0.95150   0.64332   0.00000  Uiso   1.00
I1012  I     0.63287   0.75594   0.67615   0.00000  Uiso   1.00
N1013  N     0.39449   0.76632   0.70444   0.00000  Uiso   1.00
O1014  O     0.42467   0.76943   0.65745   0.00000  Uiso   1.00
O1015  O     0.38560   0.72949   0.72606   0.00000  Uiso   1.00
I1016  I     0.61506   0.92655   0.89511   0.00000  Uiso   1.00
N1017  N     0.40596   0.84820   0.57603   0.00000  Uiso   1.00
O1018  O     0.37151   0.82548   0.60427   0.00000  Uiso   1.00
O1019  O     0.41512   0.88310   0.59585   0.00000  Uiso   1.00
I1020  I     0.58769   0.80932   0.88529   0.00000  Uiso   1.00
O1021  O     0.79512   0.89442   0.75001   0.00000  Uiso   1.00
O1022  O     0.87157   0.89441   0.75001   0.00000  Uiso   1.00
C1023  C     0.83337   0.91319   0.74869   0.00000  Uiso   1.00
O1024  O     0.77613   0.83333   0.82681   0.00000  Uiso   1.00
O1025  O     0.85258   0.83332   0.82681   0.00000  Uiso   1.00
C1026  C     0.80788   0.83360   0.85169   0.00000  Uiso   1.00
Zn1027 Zn    0.78229   0.83334   0.75000   0.00000  Uiso   1.00
Zn1028 Zn    0.88438   0.83333   0.75000   0.00000  Uiso   1.00
O1029  O     0.79510   0.77226   0.75000   0.00000  Uiso   1.00
O1030  O     0.87154   0.77225   0.75000   0.00000  Uiso   1.00
O1031  O     0.81409   0.83335   0.67319   0.00000  Uiso   1.00
O1032  O     0.89053   0.83334   0.67319   0.00000  Uiso   1.00
C1033  C     0.83327   0.75346   0.75140   0.00000  Uiso   1.00
C1034  C     0.85892   0.83619   0.64891   0.00000  Uiso   1.00
C1035  C     0.91360   0.89309   0.52086   0.00000  Uiso   1.00
H1036  H     0.94308   0.91323   0.50300   0.00000  Uiso   1.00
C1037  C     0.87196   0.84890   0.59392   0.00000  Uiso   1.00
C1038  C     0.74727   0.82280   0.93749   0.00000  Uiso   1.00
C1039  C     0.73086   0.82548   0.99218   0.00000  Uiso   1.00
C1040  C     0.76027   0.83928   0.52074   0.00000  Uiso   1.00
C1041  C     0.80836   0.84845   0.99350   0.00000  Uiso   1.00
C1042  C     0.82455   0.84776   0.93768   0.00000  Uiso   1.00
C1043  C     0.84223   0.85724   0.51937   0.00000  Uiso   1.00
C1044  C     0.88230   0.88118   0.99342   0.00000  Uiso   1.00
C1045  C     0.89229   0.88797   0.93914   0.00000  Uiso   1.00
C1046  C     0.87182   0.86022   0.91234   0.00000  Uiso   1.00
C1047  C     0.84010   0.83859   0.56709   0.00000  Uiso   1.00
C1048  C     0.90808   0.87785   0.57159   0.00000  Uiso   1.00
C1049  C     0.79348   0.83441   0.90963   0.00000  Uiso   1.00
H1050  H     0.81333   0.81557   0.58377   0.00000  Uiso   1.00
H1051  H     0.72314   0.81250   0.91680   0.00000  Uiso   1.00
H1052  H     0.69420   0.81838   0.51229   0.00000  Uiso   1.00
C1053  C     0.84366   0.97715   0.79028   0.00000  Uiso   1.00
H1054  H     0.85105   0.95910   0.82164   0.00000  Uiso   1.00
C1055  C     0.84350   0.68688   0.79219   0.00000  Uiso   1.00
C1056  C     0.83384   0.70931   0.75120   0.00000  Uiso   1.00
C1057  C     0.82343   0.68943   0.70956   0.00000  Uiso   1.00
H1058  H     0.81636   0.70743   0.67803   0.00000  Uiso   1.00
C1059  C     0.82240   0.97973   0.70832   0.00000  Uiso   1.00
C1060  C     0.83283   0.95730   0.74884   0.00000  Uiso   1.00
C1061  C     0.98360   0.80180   0.72538   0.00000  Uiso   1.00
C1062  C     0.69757   0.80113   0.72709   0.00000  Uiso   1.00
N1063  N     0.71426   0.83334   0.75001   0.00000  Uiso   1.00
C1064  C     0.68402   0.86594   0.77156   0.00000  Uiso   1.00
H1065  H     0.69670   0.89205   0.78901   0.00000  Uiso   1.00
C1066  C     0.96956   0.86591   0.77153   0.00000  Uiso   1.00
H1067  H     0.94627   0.89199   0.78879   0.00000  Uiso   1.00
N1068  N     0.95239   0.83331   0.75001   0.00000  Uiso   1.00
I1069  I     0.95343   0.90318   0.61167   0.00000  Uiso   1.00
I1070  I     0.85341   0.71514   0.86001   0.00000  Uiso   1.00
I1071  I     0.80736   0.95150   0.64332   0.00000  Uiso   1.00
I1072  I     0.96621   0.75594   0.67615   0.00000  Uiso   1.00
N1073  N     0.72783   0.76632   0.70444   0.00000  Uiso   1.00
O1074  O     0.75800   0.76943   0.65745   0.00000  Uiso   1.00
O1075  O     0.71893   0.72949   0.72606   0.00000  Uiso   1.00
I1076  I     0.94839   0.92655   0.89511   0.00000  Uiso   1.00
N1077  N     0.73929   0.84820   0.57603   0.00000  Uiso   1.00
O1078  O     0.70484   0.82548   0.60427   0.00000  Uiso   1.00
O1079  O     0.74845   0.88310   0.59585   0.00000  Uiso   1.00
I1080  I     0.92103   0.80932   0.88529   0.00000  Uiso   1.00
loop_
_geom_bond_atom_site_label_1
_geom_bond_atom_site_label_2
_geom_bond_distance
_geom_bond_site_symmetry_2
_ccdc_geom_bond_type
O1     Zn7     1.990   .     S
O1     C3      1.284   .     A
O2     C3      1.283   .     A
O2     Zn8     1.977   .     S
C3     C40     1.406   .     S
O4     Zn7     1.992   .     S
O4     C6      1.307   .     A
O5     Zn8     1.968   .     S
O5     C6      1.289   .     A
C6     C29     1.466   .     S
Zn7    N43     2.020   .     S
Zn7    O11     1.968   .     S
Zn7    O9      1.977   .     S
Zn8    N48     2.020   .     S
Zn8    O12     1.992   .     S
Zn8    O10     1.990   .     S
O9     C13     1.283   .     A
O10    C13     1.285   .     A
O11    C14     1.294   .     A
O12    C14     1.294   .     A
C13    C36     1.407   .     S
C14    C17     1.451   .     S
C15    C28     1.394   .     A
C15    H16     1.080   .     S
C15    C564    1.403   1_554 S
C17    C27     1.392   .     A
C17    C28     1.413   .     A
C18    C29     1.401   .     A
C18    C19     1.386   .     A
C18    H31     1.084   .     S
C19    C560    1.398   .     S
C19    H572    1.083   .     S
C20    N57     1.435   .     S
C20    C559    1.398   1_554 S
C20    C561    1.425   1_554 S
C21    C22     1.412   .     A
C21    C560    1.425   .     S
C21    C563    1.413   .     S
C22    C29     1.423   .     A
C22    C26     1.422   .     A
C23    C27     1.383   .     A
C23    C561    1.413   1_554 S
C23    C564    1.415   1_554 S
C24    C25     1.398   .     A
C24    C563    1.415   .     S
C24    C555    1.403   .     S
C25    I56     2.128   .     S
C25    C26     1.395   .     A
C26    I60     2.136   .     S
C27    H30     1.081   .     S
C28    I49     2.126   .     S
H32    C559    1.083   1_554 S
C33    H34     1.086   .     S
C33    C40     1.394   .     A
C33    C215    1.374   .     S
C35    I50     2.118   .     S
C35    C36     1.400   .     A
C35    C393    1.374   1_545 S
C36    C37     1.393   .     A
C37    H38     1.084   .     S
C37    C399    1.373   1_545 S
C39    I51     2.117   .     S
C39    C40     1.400   .     A
C39    C217    1.373   .     S
C41    I52     2.136   .     S
C41    N48     1.376   .     A
C41    C102    1.419   .     S
C42    N53     1.427   .     S
C42    N43     1.370   .     A
C42    C161    1.419   1_455 S
N43    C44     1.367   .     A
C44    H45     1.081   .     S
C44    C166    1.420   1_455 S
C46    N48     1.366   .     A
C46    H47     1.080   .     S
C46    C104    1.420   .     S
N53    O54     1.299   .     A
N53    O55     1.301   .     A
N57    O58     1.299   .     A
N57    O59     1.300   .     A
O61    Zn67    1.990   .     S
O61    C63     1.284   .     A
O62    C63     1.283   .     A
O62    Zn68    1.977   .     S
C63    C100    1.406   .     S
O64    Zn67    1.992   .     S
O64    C66     1.307   .     A
O65    Zn68    1.968   .     S
O65    C66     1.289   .     A
C66    C89     1.466   .     S
Zn67   N103    2.020   .     S
Zn67   O71     1.968   .     S
Zn67   O69     1.977   .     S
Zn68   N108    2.020   .     S
Zn68   O72     1.992   .     S
Zn68   O70     1.990   .     S
O69    C73     1.283   .     A
O70    C73     1.285   .     A
O71    C74     1.294   .     A
O72    C74     1.294   .     A
C73    C96     1.407   .     S
C74    C77     1.451   .     S
C75    C88     1.394   .     A
C75    H76     1.080   .     S
C75    C624    1.403   1_554 S
C77    C87     1.392   .     A
C77    C88     1.413   .     A
C78    C89     1.401   .     A
C78    C79     1.386   .     A
C78    H91     1.084   .     S
C79    C620    1.398   .     S
C79    H632    1.083   .     S
C80    N117    1.435   .     S
C80    C619    1.398   1_554 S
C80    C621    1.425   1_554 S
C81    C82     1.412   .     A
C81    C620    1.425   .     S
C81    C623    1.413   .     S
C82    C89     1.423   .     A
C82    C86     1.422   .     A
C83    C87     1.383   .     A
C83    C621    1.413   1_554 S
C83    C624    1.415   1_554 S
C84    C85     1.398   .     A
C84    C623    1.415   .     S
C84    C615    1.403   .     S
C85    I116    2.128   .     S
C85    C86     1.395   .     A
C86    I120    2.136   .     S
C87    H90     1.081   .     S
C88    I109    2.126   .     S
H92    C619    1.083   1_554 S
C93    H94     1.086   .     S
C93    C100    1.394   .     A
C93    C275    1.374   .     S
C95    I110    2.118   .     S
C95    C96     1.400   .     A
C95    C453    1.374   1_545 S
C96    C97     1.393   .     A
C97    H98     1.084   .     S
C97    C459    1.373   1_545 S
C99    I111    2.117   .     S
C99    C100    1.400   .     A
C99    C277    1.373   .     S
C101   I112    2.136   .     S
C101   N108    1.376   .     A
C101   C162    1.419   .     S
C102   N113    1.427   .     S
C102   N103    1.370   .     A
N103   C104    1.367   .     A
C104   H105    1.081   .     S
C106   N108    1.366   .     A
C106   H107    1.080   .     S
C106   C164    1.420   .     S
N113   O114    1.299   .     A
N113   O115    1.301   .     A
N117   O118    1.299   .     A
N117   O119    1.300   .     A
O121   Zn127   1.990   .     S
O121   C123    1.284   .     A
O122   C123    1.283   .     A
O122   Zn128   1.977   .     S
C123   C160    1.406   .     S
O124   Zn127   1.992   .     S
O124   C126    1.307   .     A
O125   Zn128   1.968   .     S
O125   C126    1.289   .     A
C126   C149    1.466   .     S
Zn127  N163    2.020   .     S
Zn127  O131    1.968   .     S
Zn127  O129    1.977   .     S
Zn128  N168    2.020   .     S
Zn128  O132    1.992   .     S
Zn128  O130    1.990   .     S
O129   C133    1.283   .     A
O130   C133    1.285   .     A
O131   C134    1.294   .     A
O132   C134    1.294   .     A
C133   C156    1.407   .     S
C134   C137    1.451   .     S
C135   C148    1.394   .     A
C135   H136    1.080   .     S
C135   C684    1.403   1_554 S
C137   C147    1.392   .     A
C137   C148    1.413   .     A
C138   C149    1.401   .     A
C138   C139    1.386   .     A
C138   H151    1.084   .     S
C139   C680    1.398   .     S
C139   H692    1.083   .     S
C140   N177    1.435   .     S
C140   C679    1.398   1_554 S
C140   C681    1.425   1_554 S
C141   C142    1.412   .     A
C141   C680    1.425   .     S
C141   C683    1.413   .     S
C142   C149    1.423   .     A
C142   C146    1.422   .     A
C143   C147    1.383   .     A
C143   C681    1.413   1_554 S
C143   C684    1.415   1_554 S
C144   C145    1.398   .     A
C144   C683    1.415   .     S
C144   C675    1.403   .     S
C145   I176    2.128   .     S
C145   C146    1.395   .     A
C146   I180    2.136   .     S
C147   H150    1.081   .     S
C148   I169    2.126   .     S
H152   C679    1.083   1_554 S
C153   H154    1.086   .     S
C153   C160    1.394   .     A
C153   C335    1.374   .     S
C155   I170    2.118   .     S
C155   C156    1.400   .     A
C155   C513    1.374   1_545 S
C156   C157    1.393   .     A
C157   H158    1.084   .     S
C157   C519    1.373   1_545 S
C159   I171    2.117   .     S
C159   C160    1.400   .     A
C159   C337    1.373   .     S
C161   I172    2.136   .     S
C161   N168    1.376   .     A
C161   C42     1.419   1_655 S
C162   N173    1.427   .     S
C162   N163    1.370   .     A
N163   C164    1.367   .     A
C164   H165    1.081   .     S
C166   N168    1.366   .     A
C166   H167    1.080   .     S
C166   C44     1.420   1_655 S
N173   O174    1.299   .     A
N173   O175    1.301   .     A
N177   O178    1.299   .     A
N177   O179    1.300   .     A
O181   Zn187   1.990   .     S
O181   C183    1.284   .     A
O182   C183    1.283   .     A
O182   Zn188   1.977   .     S
C183   C220    1.406   .     S
O184   Zn187   1.992   .     S
O184   C186    1.307   .     A
O185   Zn188   1.968   .     S
O185   C186    1.289   .     A
C186   C209    1.466   .     S
Zn187  N223    2.020   .     S
Zn187  O191    1.968   .     S
Zn187  O189    1.977   .     S
Zn188  N228    2.020   .     S
Zn188  O192    1.992   .     S
Zn188  O190    1.990   .     S
O189   C193    1.283   .     A
O190   C193    1.285   .     A
O191   C194    1.294   .     A
O192   C194    1.294   .     A
C193   C216    1.407   .     S
C194   C197    1.451   .     S
C195   C208    1.394   .     A
C195   H196    1.080   .     S
C195   C744    1.403   1_554 S
C197   C207    1.392   .     A
C197   C208    1.413   .     A
C198   C209    1.401   .     A
C198   C199    1.386   .     A
C198   H211    1.084   .     S
C199   C740    1.398   .     S
C199   H752    1.083   .     S
C200   N237    1.435   .     S
C200   C739    1.398   1_554 S
C200   C741    1.425   1_554 S
C201   C202    1.412   .     A
C201   C740    1.425   .     S
C201   C743    1.413   .     S
C202   C209    1.423   .     A
C202   C206    1.422   .     A
C203   C207    1.383   .     A
C203   C741    1.413   1_554 S
C203   C744    1.415   1_554 S
C204   C205    1.398   .     A
C204   C743    1.415   .     S
C204   C735    1.403   .     S
C205   I236    2.128   .     S
C205   C206    1.395   .     A
C206   I240    2.136   .     S
C207   H210    1.081   .     S
C208   I229    2.126   .     S
H212   C739    1.083   1_554 S
C213   H214    1.086   .     S
C213   C220    1.394   .     A
C213   C395    1.374   .     S
C215   I230    2.118   .     S
C215   C216    1.400   .     A
C216   C217    1.393   .     A
C217   H218    1.084   .     S
C219   I231    2.117   .     S
C219   C220    1.400   .     A
C219   C397    1.373   .     S
C221   I232    2.136   .     S
C221   N228    1.376   .     A
C221   C282    1.419   .     S
C222   N233    1.427   .     S
C222   N223    1.370   .     A
C222   C341    1.419   1_455 S
N223   C224    1.367   .     A
C224   H225    1.081   .     S
C224   C346    1.420   1_455 S
C226   N228    1.366   .     A
C226   H227    1.080   .     S
C226   C284    1.420   .     S
N233   O234    1.299   .     A
N233   O235    1.301   .     A
N237   O238    1.299   .     A
N237   O239    1.300   .     A
O241   Zn247   1.990   .     S
O241   C243    1.284   .     A
O242   C243    1.283   .     A
O242   Zn248   1.977   .     S
C243   C280    1.406   .     S
O244   Zn247   1.992   .     S
O244   C246    1.307   .     A
O245   Zn248   1.968   .     S
O245   C246    1.289   .     A
C246   C269    1.466   .     S
Zn247  N283    2.020   .     S
Zn247  O251    1.968   .     S
Zn247  O249    1.977   .     S
Zn248  N288    2.020   .     S
Zn248  O252    1.992   .     S
Zn248  O250    1.990   .     S
O249   C253    1.283   .     A
O250   C253    1.285   .     A
O251   C254    1.294   .     A
O252   C254    1.294   .     A
C253   C276    1.407   .     S
C254   C257    1.451   .     S
C255   C268    1.394   .     A
C255   H256    1.080   .     S
C255   C804    1.403   1_554 S
C257   C267    1.392   .     A
C257   C268    1.413   .     A
C258   C269    1.401   .     A
C258   C259    1.386   .     A
C258   H271    1.084   .     S
C259   C800    1.398   .     S
C259   H812    1.083   .     S
C260   N297    1.435   .     S
C260   C799    1.398   1_554 S
C260   C801    1.425   1_554 S
C261   C262    1.412   .     A
C261   C800    1.425   .     S
C261   C803    1.413   .     S
C262   C269    1.423   .     A
C262   C266    1.422   .     A
C263   C267    1.383   .     A
C263   C801    1.413   1_554 S
C263   C804    1.415   1_554 S
C264   C265    1.398   .     A
C264   C803    1.415   .     S
C264   C795    1.403   .     S
C265   I296    2.128   .     S
C265   C266    1.395   .     A
C266   I300    2.136   .     S
C267   H270    1.081   .     S
C268   I289    2.126   .     S
H272   C799    1.083   1_554 S
C273   H274    1.086   .     S
C273   C280    1.394   .     A
C273   C455    1.374   .     S
C275   I290    2.118   .     S
C275   C276    1.400   .     A
C276   C277    1.393   .     A
C277   H278    1.084   .     S
C279   I291    2.117   .     S
C279   C280    1.400   .     A
C279   C457    1.373   .     S
C281   I292    2.136   .     S
C281   N288    1.376   .     A
C281   C342    1.419   .     S
C282   N293    1.427   .     S
C282   N283    1.370   .     A
N283   C284    1.367   .     A
C284   H285    1.081   .     S
C286   N288    1.366   .     A
C286   H287    1.080   .     S
C286   C344    1.420   .     S
N293   O294    1.299   .     A
N293   O295    1.301   .     A
N297   O298    1.299   .     A
N297   O299    1.300   .     A
O301   Zn307   1.990   .     S
O301   C303    1.284   .     A
O302   C303    1.283   .     A
O302   Zn308   1.977   .     S
C303   C340    1.406   .     S
O304   Zn307   1.992   .     S
O304   C306    1.307   .     A
O305   Zn308   1.968   .     S
O305   C306    1.289   .     A
C306   C329    1.466   .     S
Zn307  N343    2.020   .     S
Zn307  O311    1.968   .     S
Zn307  O309    1.977   .     S
Zn308  N348    2.020   .     S
Zn308  O312    1.992   .     S
Zn308  O310    1.990   .     S
O309   C313    1.283   .     A
O310   C313    1.285   .     A
O311   C314    1.294   .     A
O312   C314    1.294   .     A
C313   C336    1.407   .     S
C314   C317    1.451   .     S
C315   C328    1.394   .     A
C315   H316    1.080   .     S
C315   C864    1.403   1_554 S
C317   C327    1.392   .     A
C317   C328    1.413   .     A
C318   C329    1.401   .     A
C318   C319    1.386   .     A
C318   H331    1.084   .     S
C319   C860    1.398   .     S
C319   H872    1.083   .     S
C320   N357    1.435   .     S
C320   C859    1.398   1_554 S
C320   C861    1.425   1_554 S
C321   C322    1.412   .     A
C321   C860    1.425   .     S
C321   C863    1.413   .     S
C322   C329    1.423   .     A
C322   C326    1.422   .     A
C323   C327    1.383   .     A
C323   C861    1.413   1_554 S
C323   C864    1.415   1_554 S
C324   C325    1.398   .     A
C324   C863    1.415   .     S
C324   C855    1.403   .     S
C325   I356    2.128   .     S
C325   C326    1.395   .     A
C326   I360    2.136   .     S
C327   H330    1.081   .     S
C328   I349    2.126   .     S
H332   C859    1.083   1_554 S
C333   H334    1.086   .     S
C333   C340    1.394   .     A
C333   C515    1.374   .     S
C335   I350    2.118   .     S
C335   C336    1.400   .     A
C336   C337    1.393   .     A
C337   H338    1.084   .     S
C339   I351    2.117   .     S
C339   C340    1.400   .     A
C339   C517    1.373   .     S
C341   I352    2.136   .     S
C341   N348    1.376   .     A
C341   C222    1.419   1_655 S
C342   N353    1.427   .     S
C342   N343    1.370   .     A
N343   C344    1.367   .     A
C344   H345    1.081   .     S
C346   N348    1.366   .     A
C346   H347    1.080   .     S
C346   C224    1.420   1_655 S
N353   O354    1.299   .     A
N353   O355    1.301   .     A
N357   O358    1.299   .     A
N357   O359    1.300   .     A
O361   Zn367   1.990   .     S
O361   C363    1.284   .     A
O362   C363    1.283   .     A
O362   Zn368   1.977   .     S
C363   C400    1.406   .     S
O364   Zn367   1.992   .     S
O364   C366    1.307   .     A
O365   Zn368   1.968   .     S
O365   C366    1.289   .     A
C366   C389    1.466   .     S
Zn367  N403    2.020   .     S
Zn367  O371    1.968   .     S
Zn367  O369    1.977   .     S
Zn368  N408    2.020   .     S
Zn368  O372    1.992   .     S
Zn368  O370    1.990   .     S
O369   C373    1.283   .     A
O370   C373    1.285   .     A
O371   C374    1.294   .     A
O372   C374    1.294   .     A
C373   C396    1.407   .     S
C374   C377    1.451   .     S
C375   C388    1.394   .     A
C375   H376    1.080   .     S
C375   C924    1.403   1_554 S
C377   C387    1.392   .     A
C377   C388    1.413   .     A
C378   C389    1.401   .     A
C378   C379    1.386   .     A
C378   H391    1.084   .     S
C379   C920    1.398   .     S
C379   H932    1.083   .     S
C380   N417    1.435   .     S
C380   C919    1.398   1_554 S
C380   C921    1.425   1_554 S
C381   C382    1.412   .     A
C381   C920    1.425   .     S
C381   C923    1.413   .     S
C382   C389    1.423   .     A
C382   C386    1.422   .     A
C383   C387    1.383   .     A
C383   C921    1.413   1_554 S
C383   C924    1.415   1_554 S
C384   C385    1.398   .     A
C384   C923    1.415   .     S
C384   C915    1.403   .     S
C385   I416    2.128   .     S
C385   C386    1.395   .     A
C386   I420    2.136   .     S
C387   H390    1.081   .     S
C388   I409    2.126   .     S
H392   C919    1.083   1_554 S
C393   H394    1.086   .     S
C393   C400    1.394   .     A
C393   C35     1.374   1_565 S
C395   I410    2.118   .     S
C395   C396    1.400   .     A
C396   C397    1.393   .     A
C397   H398    1.084   .     S
C399   I411    2.117   .     S
C399   C400    1.400   .     A
C399   C37     1.373   1_565 S
C401   I412    2.136   .     S
C401   N408    1.376   .     A
C401   C462    1.419   .     S
C402   N413    1.427   .     S
C402   N403    1.370   .     A
C402   C521    1.419   1_455 S
N403   C404    1.367   .     A
C404   H405    1.081   .     S
C404   C526    1.420   1_455 S
C406   N408    1.366   .     A
C406   H407    1.080   .     S
C406   C464    1.420   .     S
N413   O414    1.299   .     A
N413   O415    1.301   .     A
N417   O418    1.299   .     A
N417   O419    1.300   .     A
O421   Zn427   1.990   .     S
O421   C423    1.284   .     A
O422   C423    1.283   .     A
O422   Zn428   1.977   .     S
C423   C460    1.406   .     S
O424   Zn427   1.992   .     S
O424   C426    1.307   .     A
O425   Zn428   1.968   .     S
O425   C426    1.289   .     A
C426   C449    1.466   .     S
Zn427  N463    2.020   .     S
Zn427  O431    1.968   .     S
Zn427  O429    1.977   .     S
Zn428  N468    2.020   .     S
Zn428  O432    1.992   .     S
Zn428  O430    1.990   .     S
O429   C433    1.283   .     A
O430   C433    1.285   .     A
O431   C434    1.294   .     A
O432   C434    1.294   .     A
C433   C456    1.407   .     S
C434   C437    1.451   .     S
C435   C448    1.394   .     A
C435   H436    1.080   .     S
C435   C984    1.403   1_554 S
C437   C447    1.392   .     A
C437   C448    1.413   .     A
C438   C449    1.401   .     A
C438   C439    1.386   .     A
C438   H451    1.084   .     S
C439   C980    1.398   .     S
C439   H992    1.083   .     S
C440   N477    1.435   .     S
C440   C979    1.398   1_554 S
C440   C981    1.425   1_554 S
C441   C442    1.412   .     A
C441   C980    1.425   .     S
C441   C983    1.413   .     S
C442   C449    1.423   .     A
C442   C446    1.422   .     A
C443   C447    1.383   .     A
C443   C981    1.413   1_554 S
C443   C984    1.415   1_554 S
C444   C445    1.398   .     A
C444   C983    1.415   .     S
C444   C975    1.403   .     S
C445   I476    2.128   .     S
C445   C446    1.395   .     A
C446   I480    2.136   .     S
C447   H450    1.081   .     S
C448   I469    2.126   .     S
H452   C979    1.083   1_554 S
C453   H454    1.086   .     S
C453   C460    1.394   .     A
C453   C95     1.374   1_565 S
C455   I470    2.118   .     S
C455   C456    1.400   .     A
C456   C457    1.393   .     A
C457   H458    1.084   .     S
C459   I471    2.117   .     S
C459   C460    1.400   .     A
C459   C97     1.373   1_565 S
C461   I472    2.136   .     S
C461   N468    1.376   .     A
C461   C522    1.419   .     S
C462   N473    1.427   .     S
C462   N463    1.370   .     A
N463   C464    1.367   .     A
C464   H465    1.081   .     S
C466   N468    1.366   .     A
C466   H467    1.080   .     S
C466   C524    1.420   .     S
N473   O474    1.299   .     A
N473   O475    1.301   .     A
N477   O478    1.299   .     A
N477   O479    1.300   .     A
O481   Zn487   1.990   .     S
O481   C483    1.284   .     A
O482   C483    1.283   .     A
O482   Zn488   1.977   .     S
C483   C520    1.406   .     S
O484   Zn487   1.992   .     S
O484   C486    1.307   .     A
O485   Zn488   1.968   .     S
O485   C486    1.289   .     A
C486   C509    1.466   .     S
Zn487  N523    2.020   .     S
Zn487  O491    1.968   .     S
Zn487  O489    1.977   .     S
Zn488  N528    2.020   .     S
Zn488  O492    1.992   .     S
Zn488  O490    1.990   .     S
O489   C493    1.283   .     A
O490   C493    1.285   .     A
O491   C494    1.294   .     A
O492   C494    1.294   .     A
C493   C516    1.407   .     S
C494   C497    1.451   .     S
C495   C508    1.394   .     A
C495   H496    1.080   .     S
C495   C1044   1.403   1_554 S
C497   C507    1.392   .     A
C497   C508    1.413   .     A
C498   C509    1.401   .     A
C498   C499    1.386   .     A
C498   H511    1.084   .     S
C499   C1040   1.398   .     S
C499   H1052   1.083   .     S
C500   N537    1.435   .     S
C500   C1039   1.398   1_554 S
C500   C1041   1.425   1_554 S
C501   C502    1.412   .     A
C501   C1040   1.425   .     S
C501   C1043   1.413   .     S
C502   C509    1.423   .     A
C502   C506    1.422   .     A
C503   C507    1.383   .     A
C503   C1041   1.413   1_554 S
C503   C1044   1.415   1_554 S
C504   C505    1.398   .     A
C504   C1043   1.415   .     S
C504   C1035   1.403   .     S
C505   I536    2.128   .     S
C505   C506    1.395   .     A
C506   I540    2.136   .     S
C507   H510    1.081   .     S
C508   I529    2.126   .     S
H512   C1039   1.083   1_554 S
C513   H514    1.086   .     S
C513   C520    1.394   .     A
C513   C155    1.374   1_565 S
C515   I530    2.118   .     S
C515   C516    1.400   .     A
C516   C517    1.393   .     A
C517   H518    1.084   .     S
C519   I531    2.117   .     S
C519   C520    1.400   .     A
C519   C157    1.373   1_565 S
C521   I532    2.136   .     S
C521   N528    1.376   .     A
C521   C402    1.419   1_655 S
C522   N533    1.427   .     S
C522   N523    1.370   .     A
N523   C524    1.367   .     A
C524   H525    1.081   .     S
C526   N528    1.366   .     A
C526   H527    1.080   .     S
C526   C404    1.420   1_655 S
N533   O534    1.299   .     A
N533   O535    1.301   .     A
N537   O538    1.299   .     A
N537   O539    1.300   .     A
O541   Zn547   1.990   .     S
O541   C543    1.284   .     A
O542   C543    1.283   .     A
O542   Zn548   1.977   .     S
C543   C580    1.406   .     S
O544   Zn547   1.992   .     S
O544   C546    1.307   .     A
O545   Zn548   1.968   .     S
O545   C546    1.289   .     A
C546   C569    1.466   .     S
Zn547  N583    2.020   .     S
Zn547  O551    1.968   .     S
Zn547  O549    1.977   .     S
Zn548  N588    2.020   .     S
Zn548  O552    1.992   .     S
Zn548  O550    1.990   .     S
O549   C553    1.283   .     A
O550   C553    1.285   .     A
O551   C554    1.294   .     A
O552   C554    1.294   .     A
C553   C576    1.407   .     S
C554   C557    1.451   .     S
C555   C568    1.394   .     A
C555   H556    1.080   .     S
C557   C567    1.392   .     A
C557   C568    1.413   .     A
C558   C569    1.401   .     A
C558   C559    1.386   .     A
C558   H571    1.084   .     S
C559   C20     1.398   1_556 S
C559   H32     1.083   1_556 S
C560   N597    1.435   .     S
C561   C562    1.412   .     A
C561   C20     1.425   1_556 S
C561   C23     1.413   1_556 S
C562   C569    1.423   .     A
C562   C566    1.422   .     A
C563   C567    1.383   .     A
C564   C565    1.398   .     A
C564   C23     1.415   1_556 S
C564   C15     1.403   1_556 S
C565   I596    2.128   .     S
C565   C566    1.395   .     A
C566   I600    2.136   .     S
C567   H570    1.081   .     S
C568   I589    2.126   .     S
C573   H574    1.086   .     S
C573   C580    1.394   .     A
C573   C755    1.374   .     S
C575   I590    2.118   .     S
C575   C576    1.400   .     A
C575   C933    1.374   1_545 S
C576   C577    1.393   .     A
C577   H578    1.084   .     S
C577   C939    1.373   1_545 S
C579   I591    2.117   .     S
C579   C580    1.400   .     A
C579   C757    1.373   .     S
C581   I592    2.136   .     S
C581   N588    1.376   .     A
C581   C642    1.419   .     S
C582   N593    1.427   .     S
C582   N583    1.370   .     A
C582   C701    1.419   1_455 S
N583   C584    1.367   .     A
C584   H585    1.081   .     S
C584   C706    1.420   1_455 S
C586   N588    1.366   .     A
C586   H587    1.080   .     S
C586   C644    1.420   .     S
N593   O594    1.299   .     A
N593   O595    1.301   .     A
N597   O598    1.299   .     A
N597   O599    1.300   .     A
O601   Zn607   1.990   .     S
O601   C603    1.284   .     A
O602   C603    1.283   .     A
O602   Zn608   1.977   .     S
C603   C640    1.406   .     S
O604   Zn607   1.992   .     S
O604   C606    1.307   .     A
O605   Zn608   1.968   .     S
O605   C606    1.289   .     A
C606   C629    1.466   .     S
Zn607  N643    2.020   .     S
Zn607  O611    1.968   .     S
Zn607  O609    1.977   .     S
Zn608  N648    2.020   .     S
Zn608  O612    1.992   .     S
Zn608  O610    1.990   .     S
O609   C613    1.283   .     A
O610   C613    1.285   .     A
O611   C614    1.294   .     A
O612   C614    1.294   .     A
C613   C636    1.407   .     S
C614   C617    1.451   .     S
C615   C628    1.394   .     A
C615   H616    1.080   .     S
C617   C627    1.392   .     A
C617   C628    1.413   .     A
C618   C629    1.401   .     A
C618   C619    1.386   .     A
C618   H631    1.084   .     S
C619   C80     1.398   1_556 S
C619   H92     1.083   1_556 S
C620   N657    1.435   .     S
C621   C622    1.412   .     A
C621   C80     1.425   1_556 S
C621   C83     1.413   1_556 S
C622   C629    1.423   .     A
C622   C626    1.422   .     A
C623   C627    1.383   .     A
C624   C625    1.398   .     A
C624   C83     1.415   1_556 S
C624   C75     1.403   1_556 S
C625   I656    2.128   .     S
C625   C626    1.395   .     A
C626   I660    2.136   .     S
C627   H630    1.081   .     S
C628   I649    2.126   .     S
C633   H634    1.086   .     S
C633   C640    1.394   .     A
C633   C815    1.374   .     S
C635   I650    2.118   .     S
C635   C636    1.400   .     A
C635   C993    1.374   1_545 S
C636   C637    1.393   .     A
C637   H638    1.084   .     S
C637   C999    1.373   1_545 S
C639   I651    2.117   .     S
C639   C640    1.400   .     A
C639   C817    1.373   .     S
C641   I652    2.136   .     S
C641   N648    1.376   .     A
C641   C702    1.419   .     S
C642   N653    1.427   .     S
C642   N643    1.370   .     A
N643   C644    1.367   .     A
C644   H645    1.081   .     S
C646   N648    1.366   .     A
C646   H647    1.080   .     S
C646   C704    1.420   .     S
N653   O654    1.299   .     A
N653   O655    1.301   .     A
N657   O658    1.299   .     A
N657   O659    1.300   .     A
O661   Zn667   1.990   .     S
O661   C663    1.284   .     A
O662   C663    1.283   .     A
O662   Zn668   1.977   .     S
C663   C700    1.406   .     S
O664   Zn667   1.992   .     S
O664   C666    1.307   .     A
O665   Zn668   1.968   .     S
O665   C666    1.289   .     A
C666   C689    1.466   .     S
Zn667  N703    2.020   .     S
Zn667  O671    1.968   .     S
Zn667  O669    1.977   .     S
Zn668  N708    2.020   .     S
Zn668  O672    1.992   .     S
Zn668  O670    1.990   .     S
O669   C673    1.283   .     A
O670   C673    1.285   .     A
O671   C674    1.294   .     A
O672   C674    1.294   .     A
C673   C696    1.407   .     S
C674   C677    1.451   .     S
C675   C688    1.394   .     A
C675   H676    1.080   .     S
C677   C687    1.392   .     A
C677   C688    1.413   .     A
C678   C689    1.401   .     A
C678   C679    1.386   .     A
C678   H691    1.084   .     S
C679   C140    1.398   1_556 S
C679   H152    1.083   1_556 S
C680   N717    1.435   .     S
C681   C682    1.412   .     A
C681   C140    1.425   1_556 S
C681   C143    1.413   1_556 S
C682   C689    1.423   .     A
C682   C686    1.422   .     A
C683   C687    1.383   .     A
C684   C685    1.398   .     A
C684   C143    1.415   1_556 S
C684   C135    1.403   1_556 S
C685   I716    2.128   .     S
C685   C686    1.395   .     A
C686   I720    2.136   .     S
C687   H690    1.081   .     S
C688   I709    2.126   .     S
C693   H694    1.086   .     S
C693   C700    1.394   .     A
C693   C875    1.374   .     S
C695   I710    2.118   .     S
C695   C696    1.400   .     A
C695   C1053   1.374   1_545 S
C696   C697    1.393   .     A
C697   H698    1.084   .     S
C697   C1059   1.373   1_545 S
C699   I711    2.117   .     S
C699   C700    1.400   .     A
C699   C877    1.373   .     S
C701   I712    2.136   .     S
C701   N708    1.376   .     A
C701   C582    1.419   1_655 S
C702   N713    1.427   .     S
C702   N703    1.370   .     A
N703   C704    1.367   .     A
C704   H705    1.081   .     S
C706   N708    1.366   .     A
C706   H707    1.080   .     S
C706   C584    1.420   1_655 S
N713   O714    1.299   .     A
N713   O715    1.301   .     A
N717   O718    1.299   .     A
N717   O719    1.300   .     A
O721   Zn727   1.990   .     S
O721   C723    1.284   .     A
O722   C723    1.283   .     A
O722   Zn728   1.977   .     S
C723   C760    1.406   .     S
O724   Zn727   1.992   .     S
O724   C726    1.307   .     A
O725   Zn728   1.968   .     S
O725   C726    1.289   .     A
C726   C749    1.466   .     S
Zn727  N763    2.020   .     S
Zn727  O731    1.968   .     S
Zn727  O729    1.977   .     S
Zn728  N768    2.020   .     S
Zn728  O732    1.992   .     S
Zn728  O730    1.990   .     S
O729   C733    1.283   .     A
O730   C733    1.285   .     A
O731   C734    1.294   .     A
O732   C734    1.294   .     A
C733   C756    1.407   .     S
C734   C737    1.451   .     S
C735   C748    1.394   .     A
C735   H736    1.080   .     S
C737   C747    1.392   .     A
C737   C748    1.413   .     A
C738   C749    1.401   .     A
C738   C739    1.386   .     A
C738   H751    1.084   .     S
C739   C200    1.398   1_556 S
C739   H212    1.083   1_556 S
C740   N777    1.435   .     S
C741   C742    1.412   .     A
C741   C200    1.425   1_556 S
C741   C203    1.413   1_556 S
C742   C749    1.423   .     A
C742   C746    1.422   .     A
C743   C747    1.383   .     A
C744   C745    1.398   .     A
C744   C203    1.415   1_556 S
C744   C195    1.403   1_556 S
C745   I776    2.128   .     S
C745   C746    1.395   .     A
C746   I780    2.136   .     S
C747   H750    1.081   .     S
C748   I769    2.126   .     S
C753   H754    1.086   .     S
C753   C760    1.394   .     A
C753   C935    1.374   .     S
C755   I770    2.118   .     S
C755   C756    1.400   .     A
C756   C757    1.393   .     A
C757   H758    1.084   .     S
C759   I771    2.117   .     S
C759   C760    1.400   .     A
C759   C937    1.373   .     S
C761   I772    2.136   .     S
C761   N768    1.376   .     A
C761   C822    1.419   .     S
C762   N773    1.427   .     S
C762   N763    1.370   .     A
C762   C881    1.419   1_455 S
N763   C764    1.367   .     A
C764   H765    1.081   .     S
C764   C886    1.420   1_455 S
C766   N768    1.366   .     A
C766   H767    1.080   .     S
C766   C824    1.420   .     S
N773   O774    1.299   .     A
N773   O775    1.301   .     A
N777   O778    1.299   .     A
N777   O779    1.300   .     A
O781   Zn787   1.990   .     S
O781   C783    1.284   .     A
O782   C783    1.283   .     A
O782   Zn788   1.977   .     S
C783   C820    1.406   .     S
O784   Zn787   1.992   .     S
O784   C786    1.307   .     A
O785   Zn788   1.968   .     S
O785   C786    1.289   .     A
C786   C809    1.466   .     S
Zn787  N823    2.020   .     S
Zn787  O791    1.968   .     S
Zn787  O789    1.977   .     S
Zn788  N828    2.020   .     S
Zn788  O792    1.992   .     S
Zn788  O790    1.990   .     S
O789   C793    1.283   .     A
O790   C793    1.285   .     A
O791   C794    1.294   .     A
O792   C794    1.294   .     A
C793   C816    1.407   .     S
C794   C797    1.451   .     S
C795   C808    1.394   .     A
C795   H796    1.080   .     S
C797   C807    1.392   .     A
C797   C808    1.413   .     A
C798   C809    1.401   .     A
C798   C799    1.386   .     A
C798   H811    1.084   .     S
C799   C260    1.398   1_556 S
C799   H272    1.083   1_556 S
C800   N837    1.435   .     S
C801   C802    1.412   .     A
C801   C260    1.425   1_556 S
C801   C263    1.413   1_556 S
C802   C809    1.423   .     A
C802   C806    1.422   .     A
C803   C807    1.383   .     A
C804   C805    1.398   .     A
C804   C263    1.415   1_556 S
C804   C255    1.403   1_556 S
C805   I836    2.128   .     S
C805   C806    1.395   .     A
C806   I840    2.136   .     S
C807   H810    1.081   .     S
C808   I829    2.126   .     S
C813   H814    1.086   .     S
C813   C820    1.394   .     A
C813   C995    1.374   .     S
C815   I830    2.118   .     S
C815   C816    1.400   .     A
C816   C817    1.393   .     A
C817   H818    1.084   .     S
C819   I831    2.117   .     S
C819   C820    1.400   .     A
C819   C997    1.373   .     S
C821   I832    2.136   .     S
C821   N828    1.376   .     A
C821   C882    1.419   .     S
C822   N833    1.427   .     S
C822   N823    1.370   .     A
N823   C824    1.367   .     A
C824   H825    1.081   .     S
C826   N828    1.366   .     A
C826   H827    1.080   .     S
C826   C884    1.420   .     S
N833   O834    1.299   .     A
N833   O835    1.301   .     A
N837   O838    1.299   .     A
N837   O839    1.300   .     A
O841   Zn847   1.990   .     S
O841   C843    1.284   .     A
O842   C843    1.283   .     A
O842   Zn848   1.977   .     S
C843   C880    1.406   .     S
O844   Zn847   1.992   .     S
O844   C846    1.307   .     A
O845   Zn848   1.968   .     S
O845   C846    1.289   .     A
C846   C869    1.466   .     S
Zn847  N883    2.020   .     S
Zn847  O851    1.968   .     S
Zn847  O849    1.977   .     S
Zn848  N888    2.020   .     S
Zn848  O852    1.992   .     S
Zn848  O850    1.990   .     S
O849   C853    1.283   .     A
O850   C853    1.285   .     A
O851   C854    1.294   .     A
O852   C854    1.294   .     A
C853   C876    1.407   .     S
C854   C857    1.451   .     S
C855   C868    1.394   .     A
C855   H856    1.080   .     S
C857   C867    1.392   .     A
C857   C868    1.413   .     A
C858   C869    1.401   .     A
C858   C859    1.386   .     A
C858   H871    1.084   .     S
C859   C320    1.398   1_556 S
C859   H332    1.083   1_556 S
C860   N897    1.435   .     S
C861   C862    1.412   .     A
C861   C320    1.425   1_556 S
C861   C323    1.413   1_556 S
C862   C869    1.423   .     A
C862   C866    1.422   .     A
C863   C867    1.383   .     A
C864   C865    1.398   .     A
C864   C323    1.415   1_556 S
C864   C315    1.403   1_556 S
C865   I896    2.128   .     S
C865   C866    1.395   .     A
C866   I900    2.136   .     S
C867   H870    1.081   .     S
C868   I889    2.126   .     S
C873   H874    1.086   .     S
C873   C880    1.394   .     A
C873   C1055   1.374   .     S
C875   I890    2.118   .     S
C875   C876    1.400   .     A
C876   C877    1.393   .     A
C877   H878    1.084   .     S
C879   I891    2.117   .     S
C879   C880    1.400   .     A
C879   C1057   1.373   .     S
C881   I892    2.136   .     S
C881   N888    1.376   .     A
C881   C762    1.419   1_655 S
C882   N893    1.427   .     S
C882   N883    1.370   .     A
N883   C884    1.367   .     A
C884   H885    1.081   .     S
C886   N888    1.366   .     A
C886   H887    1.080   .     S
C886   C764    1.420   1_655 S
N893   O894    1.299   .     A
N893   O895    1.301   .     A
N897   O898    1.299   .     A
N897   O899    1.300   .     A
O901   Zn907   1.990   .     S
O901   C903    1.284   .     A
O902   C903    1.283   .     A
O902   Zn908   1.977   .     S
C903   C940    1.406   .     S
O904   Zn907   1.992   .     S
O904   C906    1.307   .     A
O905   Zn908   1.968   .     S
O905   C906    1.289   .     A
C906   C929    1.466   .     S
Zn907  N943    2.020   .     S
Zn907  O911    1.968   .     S
Zn907  O909    1.977   .     S
Zn908  N948    2.020   .     S
Zn908  O912    1.992   .     S
Zn908  O910    1.990   .     S
O909   C913    1.283   .     A
O910   C913    1.285   .     A
O911   C914    1.294   .     A
O912   C914    1.294   .     A
C913   C936    1.407   .     S
C914   C917    1.451   .     S
C915   C928    1.394   .     A
C915   H916    1.080   .     S
C917   C927    1.392   .     A
C917   C928    1.413   .     A
C918   C929    1.401   .     A
C918   C919    1.386   .     A
C918   H931    1.084   .     S
C919   C380    1.398   1_556 S
C919   H392    1.083   1_556 S
C920   N957    1.435   .     S
C921   C922    1.412   .     A
C921   C380    1.425   1_556 S
C921   C383    1.413   1_556 S
C922   C929    1.423   .     A
C922   C926    1.422   .     A
C923   C927    1.383   .     A
C924   C925    1.398   .     A
C924   C383    1.415   1_556 S
C924   C375    1.403   1_556 S
C925   I956    2.128   .     S
C925   C926    1.395   .     A
C926   I960    2.136   .     S
C927   H930    1.081   .     S
C928   I949    2.126   .     S
C933   H934    1.086   .     S
C933   C940    1.394   .     A
C933   C575    1.374   1_565 S
C935   I950    2.118   .     S
C935   C936    1.400   .     A
C936   C937    1.393   .     A
C937   H938    1.084   .     S
C939   I951    2.117   .     S
C939   C940    1.400   .     A
C939   C577    1.373   1_565 S
C941   I952    2.136   .     S
C941   N948    1.376   .     A
C941   C1002   1.419   .     S
C942   N953    1.427   .     S
C942   N943    1.370   .     A
C942   C1061   1.419   1_455 S
N943   C944    1.367   .     A
C944   H945    1.081   .     S
C944   C1066   1.420   1_455 S
C946   N948    1.366   .     A
C946   H947    1.080   .     S
C946   C1004   1.420   .     S
N953   O954    1.299   .     A
N953   O955    1.301   .     A
N957   O958    1.299   .     A
N957   O959    1.300   .     A
O961   Zn967   1.990   .     S
O961   C963    1.284   .     A
O962   C963    1.283   .     A
O962   Zn968   1.977   .     S
C963   C1000   1.406   .     S
O964   Zn967   1.992   .     S
O964   C966    1.307   .     A
O965   Zn968   1.968   .     S
O965   C966    1.289   .     A
C966   C989    1.466   .     S
Zn967  N1003   2.020   .     S
Zn967  O971    1.968   .     S
Zn967  O969    1.977   .     S
Zn968  N1008   2.020   .     S
Zn968  O972    1.992   .     S
Zn968  O970    1.990   .     S
O969   C973    1.283   .     A
O970   C973    1.285   .     A
O971   C974    1.294   .     A
O972   C974    1.294   .     A
C973   C996    1.407   .     S
C974   C977    1.451   .     S
C975   C988    1.394   .     A
C975   H976    1.080   .     S
C977   C987    1.392   .     A
C977   C988    1.413   .     A
C978   C989    1.401   .     A
C978   C979    1.386   .     A
C978   H991    1.084   .     S
C979   C440    1.398   1_556 S
C979   H452    1.083   1_556 S
C980   N1017   1.435   .     S
C981   C982    1.412   .     A
C981   C440    1.425   1_556 S
C981   C443    1.413   1_556 S
C982   C989    1.423   .     A
C982   C986    1.422   .     A
C983   C987    1.383   .     A
C984   C985    1.398   .     A
C984   C443    1.415   1_556 S
C984   C435    1.403   1_556 S
C985   I1016   2.128   .     S
C985   C986    1.395   .     A
C986   I1020   2.136   .     S
C987   H990    1.081   .     S
C988   I1009   2.126   .     S
C993   H994    1.086   .     S
C993   C1000   1.394   .     A
C993   C635    1.374   1_565 S
C995   I1010   2.118   .     S
C995   C996    1.400   .     A
C996   C997    1.393   .     A
C997   H998    1.084   .     S
C999   I1011   2.117   .     S
C999   C1000   1.400   .     A
C999   C637    1.373   1_565 S
C1001  I1012   2.136   .     S
C1001  N1008   1.376   .     A
C1001  C1062   1.419   .     S
C1002  N1013   1.427   .     S
C1002  N1003   1.370   .     A
N1003  C1004   1.367   .     A
C1004  H1005   1.081   .     S
C1006  N1008   1.366   .     A
C1006  H1007   1.080   .     S
C1006  C1064   1.420   .     S
N1013  O1014   1.299   .     A
N1013  O1015   1.301   .     A
N1017  O1018   1.299   .     A
N1017  O1019   1.300   .     A
O1021  Zn1027  1.990   .     S
O1021  C1023   1.284   .     A
O1022  C1023   1.283   .     A
O1022  Zn1028  1.977   .     S
C1023  C1060   1.406   .     S
O1024  Zn1027  1.992   .     S
O1024  C1026   1.307   .     A
O1025  Zn1028  1.968   .     S
O1025  C1026   1.289   .     A
C1026  C1049   1.466   .     S
Zn1027 N1063   2.020   .     S
Zn1027 O1031   1.968   .     S
Zn1027 O1029   1.977   .     S
Zn1028 N1068   2.020   .     S
Zn1028 O1032   1.992   .     S
Zn1028 O1030   1.990   .     S
O1029  C1033   1.283   .     A
O1030  C1033   1.285   .     A
O1031  C1034   1.294   .     A
O1032  C1034   1.294   .     A
C1033  C1056   1.407   .     S
C1034  C1037   1.451   .     S
C1035  C1048   1.394   .     A
C1035  H1036   1.080   .     S
C1037  C1047   1.392   .     A
C1037  C1048   1.413   .     A
C1038  C1049   1.401   .     A
C1038  C1039   1.386   .     A
C1038  H1051   1.084   .     S
C1039  C500    1.398   1_556 S
C1039  H512    1.083   1_556 S
C1040  N1077   1.435   .     S
C1041  C1042   1.412   .     A
C1041  C500    1.425   1_556 S
C1041  C503    1.413   1_556 S
C1042  C1049   1.423   .     A
C1042  C1046   1.422   .     A
C1043  C1047   1.383   .     A
C1044  C1045   1.398   .     A
C1044  C503    1.415   1_556 S
C1044  C495    1.403   1_556 S
C1045  I1076   2.128   .     S
C1045  C1046   1.395   .     A
C1046  I1080   2.136   .     S
C1047  H1050   1.081   .     S
C1048  I1069   2.126   .     S
C1053  H1054   1.086   .     S
C1053  C1060   1.394   .     A
C1053  C695    1.374   1_565 S
C1055  I1070   2.118   .     S
C1055  C1056   1.400   .     A
C1056  C1057   1.393   .     A
C1057  H1058   1.084   .     S
C1059  I1071   2.117   .     S
C1059  C1060   1.400   .     A
C1059  C697    1.373   1_565 S
C1061  I1072   2.136   .     S
C1061  N1068   1.376   .     A
C1061  C942    1.419   1_655 S
C1062  N1073   1.427   .     S
C1062  N1063   1.370   .     A
N1063  C1064   1.367   .     A
C1064  H1065   1.081   .     S
C1066  N1068   1.366   .     A
C1066  H1067   1.080   .     S
C1066  C944    1.420   1_655 S
N1073  O1074   1.299   .     A
N1073  O1075   1.301   .     A
N1077  O1078   1.299   .     A
N1077  O1079   1.300   .     A
