data_str_m3_o2_o10_pcu_sym.170
_audit_creation_date              2020-01-03
_audit_creation_method            'Materials Studio'
_symmetry_space_group_name_H-M    'P1'
_symmetry_Int_Tables_number       1
_symmetry_cell_setting            triclinic
loop_
_symmetry_equiv_pos_as_xyz
  x,y,z
_cell_length_a                    25.8031
_cell_length_b                    29.8004
_cell_length_c                    28.3141
_cell_angle_alpha                 89.9895
_cell_angle_beta                  98.9574
_cell_angle_gamma                 90.0817
loop_
_atom_site_label
_atom_site_type_symbol
_atom_site_fract_x
_atom_site_fract_y
_atom_site_fract_z
_atom_site_U_iso_or_equiv
_atom_site_adp_type
_atom_site_occupancy
C1     C     0.16746   0.16376   0.25014   0.00000  Uiso   1.00
C2     C     0.16739   0.33622   0.25010   0.00000  Uiso   1.00
C3     C     0.13307   0.22235   0.04736   0.00000  Uiso   1.00
C4     C     0.15740   0.29031   0.44631   0.00000  Uiso   1.00
C5     C     0.13397   0.22220   0.09723   0.00000  Uiso   1.00
C6     C     0.15798   0.28903   0.39637   0.00000  Uiso   1.00
C7     C     0.19994   0.27798   0.10754   0.00000  Uiso   1.00
C8     C     0.17632   0.21140   0.39939   0.00000  Uiso   1.00
C9     C     0.20239   0.27819   0.05790   0.00000  Uiso   1.00
C10    C     0.17803   0.21098   0.44943   0.00000  Uiso   1.00
C11    C     0.16773   0.25067   0.02692   0.00000  Uiso   1.00
C12    C     0.16820   0.25078   0.47360   0.00000  Uiso   1.00
C13    C     0.06695   0.25005   0.23746   0.00000  Uiso   1.00
C14    C     0.26638   0.25004   0.26254   0.00000  Uiso   1.00
C15    C     0.01188   0.25018   0.23072   0.00000  Uiso   1.00
C16    C     0.32145   0.25006   0.26926   0.00000  Uiso   1.00
C17    C     0.20971   0.04949   0.29214   0.00000  Uiso   1.00
C18    C     0.21123   0.45055   0.22191   0.00000  Uiso   1.00
C19    C     0.20222   0.09549   0.29138   0.00000  Uiso   1.00
C20    C     0.20362   0.40454   0.22014   0.00000  Uiso   1.00
C21    C     0.17341   0.11586   0.25108   0.00000  Uiso   1.00
C22    C     0.17326   0.38411   0.25099   0.00000  Uiso   1.00
C23    C     0.15249   0.09059   0.21111   0.00000  Uiso   1.00
C24    C     0.15087   0.40927   0.28415   0.00000  Uiso   1.00
C25    C     0.15890   0.04461   0.21205   0.00000  Uiso   1.00
C26    C     0.15731   0.45526   0.28532   0.00000  Uiso   1.00
C27    C     0.18731   0.02410   0.25242   0.00000  Uiso   1.00
C28    C     0.18728   0.47586   0.25428   0.00000  Uiso   1.00
H29    H     0.32439   0.25037   0.19421   0.00000  Uiso   1.00
H30    H     0.00894   0.24990   0.30576   0.00000  Uiso   1.00
H31    H     0.21952   0.11535   0.32186   0.00000  Uiso   1.00
H32    H     0.22207   0.38470   0.19534   0.00000  Uiso   1.00
H33    H     0.13032   0.10628   0.17980   0.00000  Uiso   1.00
H34    H     0.12758   0.39348   0.30823   0.00000  Uiso   1.00
H35    H     0.14083   0.02481   0.18178   0.00000  Uiso   1.00
H36    H     0.13811   0.47499   0.30970   0.00000  Uiso   1.00
H37    H     0.10811   0.19992   0.11281   0.00000  Uiso   1.00
H38    H     0.15190   0.31951   0.37565   0.00000  Uiso   1.00
H39    H     0.22478   0.30018   0.13140   0.00000  Uiso   1.00
H40    H     0.18325   0.18062   0.38119   0.00000  Uiso   1.00
N41    N     0.16667   0.24999   0.12624   0.00000  Uiso   1.00
N42    N     0.16667   0.25001   0.37377   0.00000  Uiso   1.00
O43    O     0.16667   0.18454   0.28974   0.00000  Uiso   1.00
O44    O     0.16666   0.31547   0.21026   0.00000  Uiso   1.00
O45    O     0.16667   0.18453   0.21026   0.00000  Uiso   1.00
O46    O     0.16666   0.31547   0.28974   0.00000  Uiso   1.00
O47    O     0.09058   0.25000   0.28045   0.00000  Uiso   1.00
O48    O     0.24275   0.25000   0.21956   0.00000  Uiso   1.00
O49    O     0.09058   0.25000   0.20097   0.00000  Uiso   1.00
O50    O     0.24275   0.25001   0.29904   0.00000  Uiso   1.00
Zn51   Zn    0.16667   0.25001   0.30307   0.00000  Uiso   1.00
Zn52   Zn    0.16667   0.25000   0.19693   0.00000  Uiso   1.00
I53    I     0.25551   0.02071   0.35346   0.00000  Uiso   1.00
I54    I     0.25965   0.47949   0.17584   0.00000  Uiso   1.00
O55    O     0.10059   0.19261   0.01932   0.00000  Uiso   1.00
C56    C     0.05472   0.21517   0.49814   0.00000  Uiso   1.00
H57    H     0.06193   0.25064   0.48847   0.00000  Uiso   1.00
H58    H     0.02560   0.21470   0.02318   0.00000  Uiso   1.00
C59    C     0.03178   0.19106   0.45230   0.00000  Uiso   1.00
H60    H     0.02257   0.15570   0.46020   0.00000  Uiso   1.00
H61    H     0.32868   0.20823   0.43553   0.00000  Uiso   1.00
H62    H     0.06036   0.19152   0.42675   0.00000  Uiso   1.00
O63    O     0.15017   0.33033   0.46937   0.00000  Uiso   1.00
C64    C     0.10056   0.34873   0.45156   0.00000  Uiso   1.00
H65    H     0.06879   0.32321   0.45045   0.00000  Uiso   1.00
H66    H     0.10016   0.36299   0.41523   0.00000  Uiso   1.00
C67    C     0.08913   0.38669   0.48431   0.00000  Uiso   1.00
H68    H     0.04953   0.40066   0.47165   0.00000  Uiso   1.00
H69    H     0.11873   0.41379   0.48427   0.00000  Uiso   1.00
H70    H     0.09060   0.37406   0.02139   0.00000  Uiso   1.00
O71    O     0.23670   0.30632   0.03894   0.00000  Uiso   1.00
C72    C     0.28899   0.29646   0.05922   0.00000  Uiso   1.00
H73    H     0.29644   0.25959   0.06100   0.00000  Uiso   1.00
H74    H     0.29830   0.31106   0.09570   0.00000  Uiso   1.00
C75    C     0.32584   0.31737   0.02846   0.00000  Uiso   1.00
H76    H     0.03378   0.30979   0.04398   0.00000  Uiso   1.00
H77    H     0.31757   0.30356   0.49161   0.00000  Uiso   1.00
H78    H     0.32045   0.35433   0.02695   0.00000  Uiso   1.00
O79    O     0.18709   0.17120   0.47439   0.00000  Uiso   1.00
C80    C     0.24158   0.16320   0.48291   0.00000  Uiso   1.00
H81    H     0.26361   0.19302   0.49930   0.00000  Uiso   1.00
H82    H     0.25567   0.15419   0.44894   0.00000  Uiso   1.00
C83    C     0.25298   0.12417   0.01751   0.00000  Uiso   1.00
H84    H     0.29584   0.11760   0.02447   0.00000  Uiso   1.00
H85    H     0.23242   0.09352   0.00206   0.00000  Uiso   1.00
H86    H     0.23942   0.13233   0.05187   0.00000  Uiso   1.00
C87    C     0.50079   0.16376   0.25014   0.00000  Uiso   1.00
C88    C     0.50073   0.33622   0.25010   0.00000  Uiso   1.00
C89    C     0.46640   0.22235   0.04736   0.00000  Uiso   1.00
C90    C     0.49073   0.29031   0.44631   0.00000  Uiso   1.00
C91    C     0.46730   0.22220   0.09723   0.00000  Uiso   1.00
C92    C     0.49131   0.28903   0.39637   0.00000  Uiso   1.00
C93    C     0.53327   0.27798   0.10754   0.00000  Uiso   1.00
C94    C     0.50965   0.21140   0.39939   0.00000  Uiso   1.00
C95    C     0.53572   0.27819   0.05790   0.00000  Uiso   1.00
C96    C     0.51136   0.21098   0.44943   0.00000  Uiso   1.00
C97    C     0.50106   0.25067   0.02692   0.00000  Uiso   1.00
C98    C     0.50154   0.25078   0.47360   0.00000  Uiso   1.00
C99    C     0.40028   0.25005   0.23746   0.00000  Uiso   1.00
C100   C     0.59972   0.25004   0.26254   0.00000  Uiso   1.00
C101   C     0.34521   0.25018   0.23072   0.00000  Uiso   1.00
C102   C     0.65478   0.25006   0.26926   0.00000  Uiso   1.00
C103   C     0.54305   0.04949   0.29214   0.00000  Uiso   1.00
C104   C     0.54457   0.45055   0.22191   0.00000  Uiso   1.00
C105   C     0.53555   0.09549   0.29138   0.00000  Uiso   1.00
C106   C     0.53695   0.40454   0.22014   0.00000  Uiso   1.00
C107   C     0.50674   0.11586   0.25108   0.00000  Uiso   1.00
C108   C     0.50659   0.38411   0.25099   0.00000  Uiso   1.00
C109   C     0.48582   0.09059   0.21111   0.00000  Uiso   1.00
C110   C     0.48421   0.40927   0.28415   0.00000  Uiso   1.00
C111   C     0.49223   0.04461   0.21205   0.00000  Uiso   1.00
C112   C     0.49065   0.45526   0.28532   0.00000  Uiso   1.00
C113   C     0.52064   0.02410   0.25242   0.00000  Uiso   1.00
C114   C     0.52061   0.47586   0.25428   0.00000  Uiso   1.00
H115   H     0.65772   0.25037   0.19421   0.00000  Uiso   1.00
H116   H     0.34227   0.24990   0.30576   0.00000  Uiso   1.00
H117   H     0.55285   0.11535   0.32186   0.00000  Uiso   1.00
H118   H     0.55540   0.38470   0.19534   0.00000  Uiso   1.00
H119   H     0.46365   0.10628   0.17980   0.00000  Uiso   1.00
H120   H     0.46091   0.39348   0.30823   0.00000  Uiso   1.00
H121   H     0.47417   0.02481   0.18178   0.00000  Uiso   1.00
H122   H     0.47144   0.47499   0.30970   0.00000  Uiso   1.00
H123   H     0.44144   0.19992   0.11281   0.00000  Uiso   1.00
H124   H     0.48524   0.31951   0.37565   0.00000  Uiso   1.00
H125   H     0.55811   0.30018   0.13140   0.00000  Uiso   1.00
H126   H     0.51658   0.18062   0.38119   0.00000  Uiso   1.00
N127   N     0.50000   0.24999   0.12624   0.00000  Uiso   1.00
N128   N     0.50000   0.25001   0.37377   0.00000  Uiso   1.00
O129   O     0.50000   0.18454   0.28974   0.00000  Uiso   1.00
O130   O     0.50000   0.31547   0.21026   0.00000  Uiso   1.00
O131   O     0.50000   0.18453   0.21026   0.00000  Uiso   1.00
O132   O     0.50000   0.31547   0.28974   0.00000  Uiso   1.00
O133   O     0.42392   0.25000   0.28045   0.00000  Uiso   1.00
O134   O     0.57608   0.25000   0.21956   0.00000  Uiso   1.00
O135   O     0.42392   0.25000   0.20097   0.00000  Uiso   1.00
O136   O     0.57608   0.25001   0.29904   0.00000  Uiso   1.00
Zn137  Zn    0.50000   0.25001   0.30307   0.00000  Uiso   1.00
Zn138  Zn    0.50000   0.25000   0.19693   0.00000  Uiso   1.00
I139   I     0.58884   0.02071   0.35346   0.00000  Uiso   1.00
I140   I     0.59298   0.47949   0.17584   0.00000  Uiso   1.00
O141   O     0.43393   0.19261   0.01932   0.00000  Uiso   1.00
C142   C     0.38806   0.21517   0.49814   0.00000  Uiso   1.00
H143   H     0.39526   0.25064   0.48847   0.00000  Uiso   1.00
H144   H     0.35893   0.21470   0.02318   0.00000  Uiso   1.00
C145   C     0.36512   0.19106   0.45230   0.00000  Uiso   1.00
H146   H     0.35590   0.15570   0.46020   0.00000  Uiso   1.00
H147   H     0.66201   0.20823   0.43553   0.00000  Uiso   1.00
H148   H     0.39369   0.19152   0.42675   0.00000  Uiso   1.00
O149   O     0.48351   0.33033   0.46937   0.00000  Uiso   1.00
C150   C     0.43389   0.34873   0.45156   0.00000  Uiso   1.00
H151   H     0.40212   0.32321   0.45045   0.00000  Uiso   1.00
H152   H     0.43349   0.36299   0.41523   0.00000  Uiso   1.00
C153   C     0.42247   0.38669   0.48431   0.00000  Uiso   1.00
H154   H     0.38286   0.40066   0.47165   0.00000  Uiso   1.00
H155   H     0.45206   0.41379   0.48427   0.00000  Uiso   1.00
H156   H     0.42393   0.37406   0.02139   0.00000  Uiso   1.00
O157   O     0.57004   0.30632   0.03894   0.00000  Uiso   1.00
C158   C     0.62232   0.29646   0.05922   0.00000  Uiso   1.00
H159   H     0.62977   0.25959   0.06100   0.00000  Uiso   1.00
H160   H     0.63163   0.31106   0.09570   0.00000  Uiso   1.00
C161   C     0.65918   0.31737   0.02846   0.00000  Uiso   1.00
H162   H     0.36712   0.30979   0.04398   0.00000  Uiso   1.00
H163   H     0.65090   0.30356   0.49161   0.00000  Uiso   1.00
H164   H     0.65378   0.35433   0.02695   0.00000  Uiso   1.00
O165   O     0.52043   0.17120   0.47439   0.00000  Uiso   1.00
C166   C     0.57492   0.16320   0.48291   0.00000  Uiso   1.00
H167   H     0.59695   0.19302   0.49930   0.00000  Uiso   1.00
H168   H     0.58900   0.15419   0.44894   0.00000  Uiso   1.00
C169   C     0.58631   0.12417   0.01751   0.00000  Uiso   1.00
H170   H     0.62918   0.11760   0.02447   0.00000  Uiso   1.00
H171   H     0.56575   0.09352   0.00206   0.00000  Uiso   1.00
H172   H     0.57275   0.13233   0.05187   0.00000  Uiso   1.00
C173   C     0.83412   0.16376   0.25014   0.00000  Uiso   1.00
C174   C     0.83406   0.33622   0.25010   0.00000  Uiso   1.00
C175   C     0.79973   0.22235   0.04736   0.00000  Uiso   1.00
C176   C     0.82406   0.29031   0.44631   0.00000  Uiso   1.00
C177   C     0.80064   0.22220   0.09723   0.00000  Uiso   1.00
C178   C     0.82465   0.28903   0.39637   0.00000  Uiso   1.00
C179   C     0.86660   0.27798   0.10754   0.00000  Uiso   1.00
C180   C     0.84299   0.21140   0.39939   0.00000  Uiso   1.00
C181   C     0.86906   0.27819   0.05790   0.00000  Uiso   1.00
C182   C     0.84469   0.21098   0.44943   0.00000  Uiso   1.00
C183   C     0.83440   0.25067   0.02692   0.00000  Uiso   1.00
C184   C     0.83487   0.25078   0.47360   0.00000  Uiso   1.00
C185   C     0.73362   0.25005   0.23746   0.00000  Uiso   1.00
C186   C     0.93305   0.25004   0.26254   0.00000  Uiso   1.00
C187   C     0.67854   0.25018   0.23072   0.00000  Uiso   1.00
C188   C     0.98811   0.25006   0.26926   0.00000  Uiso   1.00
C189   C     0.87638   0.04949   0.29214   0.00000  Uiso   1.00
C190   C     0.87790   0.45055   0.22191   0.00000  Uiso   1.00
C191   C     0.86888   0.09549   0.29138   0.00000  Uiso   1.00
C192   C     0.87028   0.40454   0.22014   0.00000  Uiso   1.00
C193   C     0.84007   0.11586   0.25108   0.00000  Uiso   1.00
C194   C     0.83993   0.38411   0.25099   0.00000  Uiso   1.00
C195   C     0.81915   0.09059   0.21111   0.00000  Uiso   1.00
C196   C     0.81754   0.40927   0.28415   0.00000  Uiso   1.00
C197   C     0.82556   0.04461   0.21205   0.00000  Uiso   1.00
C198   C     0.82398   0.45526   0.28532   0.00000  Uiso   1.00
C199   C     0.85397   0.02410   0.25242   0.00000  Uiso   1.00
C200   C     0.85394   0.47586   0.25428   0.00000  Uiso   1.00
H201   H     0.99105   0.25037   0.19421   0.00000  Uiso   1.00
H202   H     0.67560   0.24990   0.30576   0.00000  Uiso   1.00
H203   H     0.88619   0.11535   0.32186   0.00000  Uiso   1.00
H204   H     0.88873   0.38470   0.19534   0.00000  Uiso   1.00
H205   H     0.79699   0.10628   0.17980   0.00000  Uiso   1.00
H206   H     0.79424   0.39348   0.30823   0.00000  Uiso   1.00
H207   H     0.80750   0.02481   0.18178   0.00000  Uiso   1.00
H208   H     0.80477   0.47499   0.30970   0.00000  Uiso   1.00
H209   H     0.77478   0.19992   0.11281   0.00000  Uiso   1.00
H210   H     0.81857   0.31951   0.37565   0.00000  Uiso   1.00
H211   H     0.89145   0.30018   0.13140   0.00000  Uiso   1.00
H212   H     0.84992   0.18062   0.38119   0.00000  Uiso   1.00
N213   N     0.83333   0.24999   0.12624   0.00000  Uiso   1.00
N214   N     0.83333   0.25001   0.37377   0.00000  Uiso   1.00
O215   O     0.83334   0.18454   0.28974   0.00000  Uiso   1.00
O216   O     0.83333   0.31547   0.21026   0.00000  Uiso   1.00
O217   O     0.83334   0.18453   0.21026   0.00000  Uiso   1.00
O218   O     0.83333   0.31547   0.28974   0.00000  Uiso   1.00
O219   O     0.75725   0.25000   0.28045   0.00000  Uiso   1.00
O220   O     0.90942   0.25000   0.21956   0.00000  Uiso   1.00
O221   O     0.75725   0.25000   0.20097   0.00000  Uiso   1.00
O222   O     0.90942   0.25001   0.29904   0.00000  Uiso   1.00
Zn223  Zn    0.83333   0.25001   0.30307   0.00000  Uiso   1.00
Zn224  Zn    0.83333   0.25000   0.19693   0.00000  Uiso   1.00
I225   I     0.92217   0.02071   0.35346   0.00000  Uiso   1.00
I226   I     0.92632   0.47949   0.17584   0.00000  Uiso   1.00
O227   O     0.76726   0.19261   0.01932   0.00000  Uiso   1.00
C228   C     0.72139   0.21517   0.49814   0.00000  Uiso   1.00
H229   H     0.72859   0.25064   0.48847   0.00000  Uiso   1.00
H230   H     0.69226   0.21470   0.02318   0.00000  Uiso   1.00
C231   C     0.69845   0.19106   0.45230   0.00000  Uiso   1.00
H232   H     0.68923   0.15570   0.46020   0.00000  Uiso   1.00
H233   H     0.99535   0.20823   0.43553   0.00000  Uiso   1.00
H234   H     0.72703   0.19152   0.42675   0.00000  Uiso   1.00
O235   O     0.81684   0.33033   0.46937   0.00000  Uiso   1.00
C236   C     0.76723   0.34873   0.45156   0.00000  Uiso   1.00
H237   H     0.73545   0.32321   0.45045   0.00000  Uiso   1.00
H238   H     0.76683   0.36299   0.41523   0.00000  Uiso   1.00
C239   C     0.75580   0.38669   0.48431   0.00000  Uiso   1.00
H240   H     0.71619   0.40066   0.47165   0.00000  Uiso   1.00
H241   H     0.78539   0.41379   0.48427   0.00000  Uiso   1.00
H242   H     0.75726   0.37406   0.02139   0.00000  Uiso   1.00
O243   O     0.90337   0.30632   0.03894   0.00000  Uiso   1.00
C244   C     0.95565   0.29646   0.05922   0.00000  Uiso   1.00
H245   H     0.96310   0.25959   0.06100   0.00000  Uiso   1.00
H246   H     0.96496   0.31106   0.09570   0.00000  Uiso   1.00
C247   C     0.99251   0.31737   0.02846   0.00000  Uiso   1.00
H248   H     0.70045   0.30979   0.04398   0.00000  Uiso   1.00
H249   H     0.98424   0.30356   0.49161   0.00000  Uiso   1.00
H250   H     0.98711   0.35433   0.02695   0.00000  Uiso   1.00
O251   O     0.85376   0.17120   0.47439   0.00000  Uiso   1.00
C252   C     0.90825   0.16320   0.48291   0.00000  Uiso   1.00
H253   H     0.93028   0.19302   0.49930   0.00000  Uiso   1.00
H254   H     0.92234   0.15419   0.44894   0.00000  Uiso   1.00
C255   C     0.91964   0.12417   0.01751   0.00000  Uiso   1.00
H256   H     0.96251   0.11760   0.02447   0.00000  Uiso   1.00
H257   H     0.89908   0.09352   0.00206   0.00000  Uiso   1.00
H258   H     0.90608   0.13233   0.05187   0.00000  Uiso   1.00
C259   C     0.16746   0.66376   0.25014   0.00000  Uiso   1.00
C260   C     0.16739   0.83622   0.25010   0.00000  Uiso   1.00
C261   C     0.13307   0.72235   0.04736   0.00000  Uiso   1.00
C262   C     0.15740   0.79031   0.44631   0.00000  Uiso   1.00
C263   C     0.13397   0.72220   0.09723   0.00000  Uiso   1.00
C264   C     0.15798   0.78903   0.39637   0.00000  Uiso   1.00
C265   C     0.19994   0.77798   0.10754   0.00000  Uiso   1.00
C266   C     0.17632   0.71140   0.39939   0.00000  Uiso   1.00
C267   C     0.20239   0.77819   0.05790   0.00000  Uiso   1.00
C268   C     0.17803   0.71098   0.44943   0.00000  Uiso   1.00
C269   C     0.16773   0.75067   0.02692   0.00000  Uiso   1.00
C270   C     0.16820   0.75078   0.47360   0.00000  Uiso   1.00
C271   C     0.06695   0.75005   0.23746   0.00000  Uiso   1.00
C272   C     0.26638   0.75004   0.26254   0.00000  Uiso   1.00
C273   C     0.01188   0.75018   0.23072   0.00000  Uiso   1.00
C274   C     0.32145   0.75006   0.26926   0.00000  Uiso   1.00
C275   C     0.20971   0.54949   0.29214   0.00000  Uiso   1.00
C276   C     0.21123   0.95055   0.22191   0.00000  Uiso   1.00
C277   C     0.20222   0.59549   0.29138   0.00000  Uiso   1.00
C278   C     0.20362   0.90454   0.22014   0.00000  Uiso   1.00
C279   C     0.17341   0.61586   0.25108   0.00000  Uiso   1.00
C280   C     0.17326   0.88411   0.25099   0.00000  Uiso   1.00
C281   C     0.15249   0.59059   0.21111   0.00000  Uiso   1.00
C282   C     0.15087   0.90927   0.28415   0.00000  Uiso   1.00
C283   C     0.15890   0.54461   0.21205   0.00000  Uiso   1.00
C284   C     0.15731   0.95526   0.28532   0.00000  Uiso   1.00
C285   C     0.18731   0.52410   0.25242   0.00000  Uiso   1.00
C286   C     0.18728   0.97586   0.25428   0.00000  Uiso   1.00
H287   H     0.32439   0.75037   0.19421   0.00000  Uiso   1.00
H288   H     0.00894   0.74990   0.30576   0.00000  Uiso   1.00
H289   H     0.21952   0.61535   0.32186   0.00000  Uiso   1.00
H290   H     0.22207   0.88470   0.19534   0.00000  Uiso   1.00
H291   H     0.13032   0.60628   0.17980   0.00000  Uiso   1.00
H292   H     0.12758   0.89348   0.30823   0.00000  Uiso   1.00
H293   H     0.14083   0.52481   0.18178   0.00000  Uiso   1.00
H294   H     0.13811   0.97499   0.30970   0.00000  Uiso   1.00
H295   H     0.10811   0.69992   0.11281   0.00000  Uiso   1.00
H296   H     0.15190   0.81951   0.37565   0.00000  Uiso   1.00
H297   H     0.22478   0.80018   0.13140   0.00000  Uiso   1.00
H298   H     0.18325   0.68062   0.38119   0.00000  Uiso   1.00
N299   N     0.16667   0.74999   0.12624   0.00000  Uiso   1.00
N300   N     0.16667   0.75001   0.37377   0.00000  Uiso   1.00
O301   O     0.16667   0.68454   0.28974   0.00000  Uiso   1.00
O302   O     0.16666   0.81547   0.21026   0.00000  Uiso   1.00
O303   O     0.16667   0.68453   0.21026   0.00000  Uiso   1.00
O304   O     0.16666   0.81547   0.28974   0.00000  Uiso   1.00
O305   O     0.09058   0.75000   0.28045   0.00000  Uiso   1.00
O306   O     0.24275   0.75000   0.21956   0.00000  Uiso   1.00
O307   O     0.09058   0.75000   0.20097   0.00000  Uiso   1.00
O308   O     0.24275   0.75001   0.29904   0.00000  Uiso   1.00
Zn309  Zn    0.16667   0.75001   0.30307   0.00000  Uiso   1.00
Zn310  Zn    0.16667   0.75000   0.19693   0.00000  Uiso   1.00
I311   I     0.25551   0.52071   0.35346   0.00000  Uiso   1.00
I312   I     0.25965   0.97949   0.17584   0.00000  Uiso   1.00
O313   O     0.10059   0.69261   0.01932   0.00000  Uiso   1.00
C314   C     0.05472   0.71517   0.49814   0.00000  Uiso   1.00
H315   H     0.06193   0.75064   0.48847   0.00000  Uiso   1.00
H316   H     0.02560   0.71470   0.02318   0.00000  Uiso   1.00
C317   C     0.03178   0.69106   0.45230   0.00000  Uiso   1.00
H318   H     0.02257   0.65570   0.46020   0.00000  Uiso   1.00
H319   H     0.32868   0.70823   0.43553   0.00000  Uiso   1.00
H320   H     0.06036   0.69152   0.42675   0.00000  Uiso   1.00
O321   O     0.15017   0.83033   0.46937   0.00000  Uiso   1.00
C322   C     0.10056   0.84873   0.45156   0.00000  Uiso   1.00
H323   H     0.06879   0.82321   0.45045   0.00000  Uiso   1.00
H324   H     0.10016   0.86299   0.41523   0.00000  Uiso   1.00
C325   C     0.08913   0.88669   0.48431   0.00000  Uiso   1.00
H326   H     0.04953   0.90066   0.47165   0.00000  Uiso   1.00
H327   H     0.11873   0.91379   0.48427   0.00000  Uiso   1.00
H328   H     0.09060   0.87406   0.02139   0.00000  Uiso   1.00
O329   O     0.23670   0.80632   0.03894   0.00000  Uiso   1.00
C330   C     0.28899   0.79646   0.05922   0.00000  Uiso   1.00
H331   H     0.29644   0.75959   0.06100   0.00000  Uiso   1.00
H332   H     0.29830   0.81106   0.09570   0.00000  Uiso   1.00
C333   C     0.32584   0.81737   0.02846   0.00000  Uiso   1.00
H334   H     0.03378   0.80979   0.04398   0.00000  Uiso   1.00
H335   H     0.31757   0.80356   0.49161   0.00000  Uiso   1.00
H336   H     0.32045   0.85433   0.02695   0.00000  Uiso   1.00
O337   O     0.18709   0.67120   0.47439   0.00000  Uiso   1.00
C338   C     0.24158   0.66320   0.48291   0.00000  Uiso   1.00
H339   H     0.26361   0.69302   0.49930   0.00000  Uiso   1.00
H340   H     0.25567   0.65419   0.44894   0.00000  Uiso   1.00
C341   C     0.25298   0.62417   0.01751   0.00000  Uiso   1.00
H342   H     0.29584   0.61760   0.02447   0.00000  Uiso   1.00
H343   H     0.23242   0.59352   0.00206   0.00000  Uiso   1.00
H344   H     0.23942   0.63233   0.05187   0.00000  Uiso   1.00
C345   C     0.50079   0.66376   0.25014   0.00000  Uiso   1.00
C346   C     0.50073   0.83622   0.25010   0.00000  Uiso   1.00
C347   C     0.46640   0.72235   0.04736   0.00000  Uiso   1.00
C348   C     0.49073   0.79031   0.44631   0.00000  Uiso   1.00
C349   C     0.46730   0.72220   0.09723   0.00000  Uiso   1.00
C350   C     0.49131   0.78903   0.39637   0.00000  Uiso   1.00
C351   C     0.53327   0.77798   0.10754   0.00000  Uiso   1.00
C352   C     0.50965   0.71140   0.39939   0.00000  Uiso   1.00
C353   C     0.53572   0.77819   0.05790   0.00000  Uiso   1.00
C354   C     0.51136   0.71098   0.44943   0.00000  Uiso   1.00
C355   C     0.50106   0.75067   0.02692   0.00000  Uiso   1.00
C356   C     0.50154   0.75078   0.47360   0.00000  Uiso   1.00
C357   C     0.40028   0.75005   0.23746   0.00000  Uiso   1.00
C358   C     0.59972   0.75004   0.26254   0.00000  Uiso   1.00
C359   C     0.34521   0.75018   0.23072   0.00000  Uiso   1.00
C360   C     0.65478   0.75006   0.26926   0.00000  Uiso   1.00
C361   C     0.54305   0.54949   0.29214   0.00000  Uiso   1.00
C362   C     0.54457   0.95055   0.22191   0.00000  Uiso   1.00
C363   C     0.53555   0.59549   0.29138   0.00000  Uiso   1.00
C364   C     0.53695   0.90454   0.22014   0.00000  Uiso   1.00
C365   C     0.50674   0.61586   0.25108   0.00000  Uiso   1.00
C366   C     0.50659   0.88411   0.25099   0.00000  Uiso   1.00
C367   C     0.48582   0.59059   0.21111   0.00000  Uiso   1.00
C368   C     0.48421   0.90927   0.28415   0.00000  Uiso   1.00
C369   C     0.49223   0.54461   0.21205   0.00000  Uiso   1.00
C370   C     0.49065   0.95526   0.28532   0.00000  Uiso   1.00
C371   C     0.52064   0.52410   0.25242   0.00000  Uiso   1.00
C372   C     0.52061   0.97586   0.25428   0.00000  Uiso   1.00
H373   H     0.65772   0.75037   0.19421   0.00000  Uiso   1.00
H374   H     0.34227   0.74990   0.30576   0.00000  Uiso   1.00
H375   H     0.55285   0.61535   0.32186   0.00000  Uiso   1.00
H376   H     0.55540   0.88470   0.19534   0.00000  Uiso   1.00
H377   H     0.46365   0.60628   0.17980   0.00000  Uiso   1.00
H378   H     0.46091   0.89348   0.30823   0.00000  Uiso   1.00
H379   H     0.47417   0.52481   0.18178   0.00000  Uiso   1.00
H380   H     0.47144   0.97499   0.30970   0.00000  Uiso   1.00
H381   H     0.44144   0.69992   0.11281   0.00000  Uiso   1.00
H382   H     0.48524   0.81951   0.37565   0.00000  Uiso   1.00
H383   H     0.55811   0.80018   0.13140   0.00000  Uiso   1.00
H384   H     0.51658   0.68062   0.38119   0.00000  Uiso   1.00
N385   N     0.50000   0.74999   0.12624   0.00000  Uiso   1.00
N386   N     0.50000   0.75001   0.37377   0.00000  Uiso   1.00
O387   O     0.50000   0.68454   0.28974   0.00000  Uiso   1.00
O388   O     0.50000   0.81547   0.21026   0.00000  Uiso   1.00
O389   O     0.50000   0.68453   0.21026   0.00000  Uiso   1.00
O390   O     0.50000   0.81547   0.28974   0.00000  Uiso   1.00
O391   O     0.42392   0.75000   0.28045   0.00000  Uiso   1.00
O392   O     0.57608   0.75000   0.21956   0.00000  Uiso   1.00
O393   O     0.42392   0.75000   0.20097   0.00000  Uiso   1.00
O394   O     0.57608   0.75001   0.29904   0.00000  Uiso   1.00
Zn395  Zn    0.50000   0.75001   0.30307   0.00000  Uiso   1.00
Zn396  Zn    0.50000   0.75000   0.19693   0.00000  Uiso   1.00
I397   I     0.58884   0.52071   0.35346   0.00000  Uiso   1.00
I398   I     0.59298   0.97949   0.17584   0.00000  Uiso   1.00
O399   O     0.43393   0.69261   0.01932   0.00000  Uiso   1.00
C400   C     0.38806   0.71517   0.49814   0.00000  Uiso   1.00
H401   H     0.39526   0.75064   0.48847   0.00000  Uiso   1.00
H402   H     0.35893   0.71470   0.02318   0.00000  Uiso   1.00
C403   C     0.36512   0.69106   0.45230   0.00000  Uiso   1.00
H404   H     0.35590   0.65570   0.46020   0.00000  Uiso   1.00
H405   H     0.66201   0.70823   0.43553   0.00000  Uiso   1.00
H406   H     0.39369   0.69152   0.42675   0.00000  Uiso   1.00
O407   O     0.48351   0.83033   0.46937   0.00000  Uiso   1.00
C408   C     0.43389   0.84873   0.45156   0.00000  Uiso   1.00
H409   H     0.40212   0.82321   0.45045   0.00000  Uiso   1.00
H410   H     0.43349   0.86299   0.41523   0.00000  Uiso   1.00
C411   C     0.42247   0.88669   0.48431   0.00000  Uiso   1.00
H412   H     0.38286   0.90066   0.47165   0.00000  Uiso   1.00
H413   H     0.45206   0.91379   0.48427   0.00000  Uiso   1.00
H414   H     0.42393   0.87406   0.02139   0.00000  Uiso   1.00
O415   O     0.57004   0.80632   0.03894   0.00000  Uiso   1.00
C416   C     0.62232   0.79646   0.05922   0.00000  Uiso   1.00
H417   H     0.62977   0.75959   0.06100   0.00000  Uiso   1.00
H418   H     0.63163   0.81106   0.09570   0.00000  Uiso   1.00
C419   C     0.65918   0.81737   0.02846   0.00000  Uiso   1.00
H420   H     0.36712   0.80979   0.04398   0.00000  Uiso   1.00
H421   H     0.65090   0.80356   0.49161   0.00000  Uiso   1.00
H422   H     0.65378   0.85433   0.02695   0.00000  Uiso   1.00
O423   O     0.52043   0.67120   0.47439   0.00000  Uiso   1.00
C424   C     0.57492   0.66320   0.48291   0.00000  Uiso   1.00
H425   H     0.59695   0.69302   0.49930   0.00000  Uiso   1.00
H426   H     0.58900   0.65419   0.44894   0.00000  Uiso   1.00
C427   C     0.58631   0.62417   0.01751   0.00000  Uiso   1.00
H428   H     0.62918   0.61760   0.02447   0.00000  Uiso   1.00
H429   H     0.56575   0.59352   0.00206   0.00000  Uiso   1.00
H430   H     0.57275   0.63233   0.05187   0.00000  Uiso   1.00
C431   C     0.83412   0.66376   0.25014   0.00000  Uiso   1.00
C432   C     0.83406   0.83622   0.25010   0.00000  Uiso   1.00
C433   C     0.79973   0.72235   0.04736   0.00000  Uiso   1.00
C434   C     0.82406   0.79031   0.44631   0.00000  Uiso   1.00
C435   C     0.80064   0.72220   0.09723   0.00000  Uiso   1.00
C436   C     0.82465   0.78903   0.39637   0.00000  Uiso   1.00
C437   C     0.86660   0.77798   0.10754   0.00000  Uiso   1.00
C438   C     0.84299   0.71140   0.39939   0.00000  Uiso   1.00
C439   C     0.86906   0.77819   0.05790   0.00000  Uiso   1.00
C440   C     0.84469   0.71098   0.44943   0.00000  Uiso   1.00
C441   C     0.83440   0.75067   0.02692   0.00000  Uiso   1.00
C442   C     0.83487   0.75078   0.47360   0.00000  Uiso   1.00
C443   C     0.73362   0.75005   0.23746   0.00000  Uiso   1.00
C444   C     0.93305   0.75004   0.26254   0.00000  Uiso   1.00
C445   C     0.67854   0.75018   0.23072   0.00000  Uiso   1.00
C446   C     0.98811   0.75006   0.26926   0.00000  Uiso   1.00
C447   C     0.87638   0.54949   0.29214   0.00000  Uiso   1.00
C448   C     0.87790   0.95055   0.22191   0.00000  Uiso   1.00
C449   C     0.86888   0.59549   0.29138   0.00000  Uiso   1.00
C450   C     0.87028   0.90454   0.22014   0.00000  Uiso   1.00
C451   C     0.84007   0.61586   0.25108   0.00000  Uiso   1.00
C452   C     0.83993   0.88411   0.25099   0.00000  Uiso   1.00
C453   C     0.81915   0.59059   0.21111   0.00000  Uiso   1.00
C454   C     0.81754   0.90927   0.28415   0.00000  Uiso   1.00
C455   C     0.82556   0.54461   0.21205   0.00000  Uiso   1.00
C456   C     0.82398   0.95526   0.28532   0.00000  Uiso   1.00
C457   C     0.85397   0.52410   0.25242   0.00000  Uiso   1.00
C458   C     0.85394   0.97586   0.25428   0.00000  Uiso   1.00
H459   H     0.99105   0.75037   0.19421   0.00000  Uiso   1.00
H460   H     0.67560   0.74990   0.30576   0.00000  Uiso   1.00
H461   H     0.88619   0.61535   0.32186   0.00000  Uiso   1.00
H462   H     0.88873   0.88470   0.19534   0.00000  Uiso   1.00
H463   H     0.79699   0.60628   0.17980   0.00000  Uiso   1.00
H464   H     0.79424   0.89348   0.30823   0.00000  Uiso   1.00
H465   H     0.80750   0.52481   0.18178   0.00000  Uiso   1.00
H466   H     0.80477   0.97499   0.30970   0.00000  Uiso   1.00
H467   H     0.77478   0.69992   0.11281   0.00000  Uiso   1.00
H468   H     0.81857   0.81951   0.37565   0.00000  Uiso   1.00
H469   H     0.89145   0.80018   0.13140   0.00000  Uiso   1.00
H470   H     0.84992   0.68062   0.38119   0.00000  Uiso   1.00
N471   N     0.83333   0.74999   0.12624   0.00000  Uiso   1.00
N472   N     0.83333   0.75001   0.37377   0.00000  Uiso   1.00
O473   O     0.83334   0.68454   0.28974   0.00000  Uiso   1.00
O474   O     0.83333   0.81547   0.21026   0.00000  Uiso   1.00
O475   O     0.83334   0.68453   0.21026   0.00000  Uiso   1.00
O476   O     0.83333   0.81547   0.28974   0.00000  Uiso   1.00
O477   O     0.75725   0.75000   0.28045   0.00000  Uiso   1.00
O478   O     0.90942   0.75000   0.21956   0.00000  Uiso   1.00
O479   O     0.75725   0.75000   0.20097   0.00000  Uiso   1.00
O480   O     0.90942   0.75001   0.29904   0.00000  Uiso   1.00
Zn481  Zn    0.83333   0.75001   0.30307   0.00000  Uiso   1.00
Zn482  Zn    0.83333   0.75000   0.19693   0.00000  Uiso   1.00
I483   I     0.92217   0.52071   0.35346   0.00000  Uiso   1.00
I484   I     0.92632   0.97949   0.17584   0.00000  Uiso   1.00
O485   O     0.76726   0.69261   0.01932   0.00000  Uiso   1.00
C486   C     0.72139   0.71517   0.49814   0.00000  Uiso   1.00
H487   H     0.72859   0.75064   0.48847   0.00000  Uiso   1.00
H488   H     0.69226   0.71470   0.02318   0.00000  Uiso   1.00
C489   C     0.69845   0.69106   0.45230   0.00000  Uiso   1.00
H490   H     0.68923   0.65570   0.46020   0.00000  Uiso   1.00
H491   H     0.99535   0.70823   0.43553   0.00000  Uiso   1.00
H492   H     0.72703   0.69152   0.42675   0.00000  Uiso   1.00
O493   O     0.81684   0.83033   0.46937   0.00000  Uiso   1.00
C494   C     0.76723   0.84873   0.45156   0.00000  Uiso   1.00
H495   H     0.73545   0.82321   0.45045   0.00000  Uiso   1.00
H496   H     0.76683   0.86299   0.41523   0.00000  Uiso   1.00
C497   C     0.75580   0.88669   0.48431   0.00000  Uiso   1.00
H498   H     0.71619   0.90066   0.47165   0.00000  Uiso   1.00
H499   H     0.78539   0.91379   0.48427   0.00000  Uiso   1.00
H500   H     0.75726   0.87406   0.02139   0.00000  Uiso   1.00
O501   O     0.90337   0.80632   0.03894   0.00000  Uiso   1.00
C502   C     0.95565   0.79646   0.05922   0.00000  Uiso   1.00
H503   H     0.96310   0.75959   0.06100   0.00000  Uiso   1.00
H504   H     0.96496   0.81106   0.09570   0.00000  Uiso   1.00
C505   C     0.99251   0.81737   0.02846   0.00000  Uiso   1.00
H506   H     0.70045   0.80979   0.04398   0.00000  Uiso   1.00
H507   H     0.98424   0.80356   0.49161   0.00000  Uiso   1.00
H508   H     0.98711   0.85433   0.02695   0.00000  Uiso   1.00
O509   O     0.85376   0.67120   0.47439   0.00000  Uiso   1.00
C510   C     0.90825   0.66320   0.48291   0.00000  Uiso   1.00
H511   H     0.93028   0.69302   0.49930   0.00000  Uiso   1.00
H512   H     0.92234   0.65419   0.44894   0.00000  Uiso   1.00
C513   C     0.91964   0.62417   0.01751   0.00000  Uiso   1.00
H514   H     0.96251   0.61760   0.02447   0.00000  Uiso   1.00
H515   H     0.89908   0.59352   0.00206   0.00000  Uiso   1.00
H516   H     0.90608   0.63233   0.05187   0.00000  Uiso   1.00
C517   C     0.16746   0.16376   0.75014   0.00000  Uiso   1.00
C518   C     0.16739   0.33622   0.75010   0.00000  Uiso   1.00
C519   C     0.13307   0.22235   0.54736   0.00000  Uiso   1.00
C520   C     0.15740   0.29031   0.94631   0.00000  Uiso   1.00
C521   C     0.13397   0.22220   0.59723   0.00000  Uiso   1.00
C522   C     0.15798   0.28903   0.89637   0.00000  Uiso   1.00
C523   C     0.19994   0.27798   0.60754   0.00000  Uiso   1.00
C524   C     0.17632   0.21140   0.89939   0.00000  Uiso   1.00
C525   C     0.20239   0.27819   0.55790   0.00000  Uiso   1.00
C526   C     0.17803   0.21098   0.94943   0.00000  Uiso   1.00
C527   C     0.16773   0.25067   0.52692   0.00000  Uiso   1.00
C528   C     0.16820   0.25078   0.97360   0.00000  Uiso   1.00
C529   C     0.06695   0.25005   0.73746   0.00000  Uiso   1.00
C530   C     0.26638   0.25004   0.76254   0.00000  Uiso   1.00
C531   C     0.01188   0.25018   0.73072   0.00000  Uiso   1.00
C532   C     0.32145   0.25006   0.76926   0.00000  Uiso   1.00
C533   C     0.20971   0.04949   0.79214   0.00000  Uiso   1.00
C534   C     0.21123   0.45055   0.72191   0.00000  Uiso   1.00
C535   C     0.20222   0.09549   0.79138   0.00000  Uiso   1.00
C536   C     0.20362   0.40454   0.72014   0.00000  Uiso   1.00
C537   C     0.17341   0.11586   0.75108   0.00000  Uiso   1.00
C538   C     0.17326   0.38411   0.75099   0.00000  Uiso   1.00
C539   C     0.15249   0.09059   0.71111   0.00000  Uiso   1.00
C540   C     0.15087   0.40927   0.78415   0.00000  Uiso   1.00
C541   C     0.15890   0.04461   0.71205   0.00000  Uiso   1.00
C542   C     0.15731   0.45526   0.78532   0.00000  Uiso   1.00
C543   C     0.18731   0.02410   0.75242   0.00000  Uiso   1.00
C544   C     0.18728   0.47586   0.75428   0.00000  Uiso   1.00
H545   H     0.32439   0.25037   0.69421   0.00000  Uiso   1.00
H546   H     0.00894   0.24990   0.80576   0.00000  Uiso   1.00
H547   H     0.21952   0.11535   0.82186   0.00000  Uiso   1.00
H548   H     0.22207   0.38470   0.69534   0.00000  Uiso   1.00
H549   H     0.13032   0.10628   0.67980   0.00000  Uiso   1.00
H550   H     0.12758   0.39348   0.80823   0.00000  Uiso   1.00
H551   H     0.14083   0.02481   0.68178   0.00000  Uiso   1.00
H552   H     0.13811   0.47499   0.80970   0.00000  Uiso   1.00
H553   H     0.10811   0.19992   0.61281   0.00000  Uiso   1.00
H554   H     0.15190   0.31951   0.87565   0.00000  Uiso   1.00
H555   H     0.22478   0.30018   0.63140   0.00000  Uiso   1.00
H556   H     0.18325   0.18062   0.88119   0.00000  Uiso   1.00
N557   N     0.16667   0.24999   0.62624   0.00000  Uiso   1.00
N558   N     0.16667   0.25001   0.87377   0.00000  Uiso   1.00
O559   O     0.16667   0.18454   0.78974   0.00000  Uiso   1.00
O560   O     0.16666   0.31547   0.71026   0.00000  Uiso   1.00
O561   O     0.16667   0.18453   0.71026   0.00000  Uiso   1.00
O562   O     0.16666   0.31547   0.78974   0.00000  Uiso   1.00
O563   O     0.09058   0.25000   0.78045   0.00000  Uiso   1.00
O564   O     0.24275   0.25000   0.71956   0.00000  Uiso   1.00
O565   O     0.09058   0.25000   0.70097   0.00000  Uiso   1.00
O566   O     0.24275   0.25001   0.79904   0.00000  Uiso   1.00
Zn567  Zn    0.16667   0.25001   0.80307   0.00000  Uiso   1.00
Zn568  Zn    0.16667   0.25000   0.69693   0.00000  Uiso   1.00
I569   I     0.25551   0.02071   0.85346   0.00000  Uiso   1.00
I570   I     0.25965   0.47949   0.67584   0.00000  Uiso   1.00
O571   O     0.10059   0.19261   0.51932   0.00000  Uiso   1.00
C572   C     0.05472   0.21517   0.99814   0.00000  Uiso   1.00
H573   H     0.06193   0.25064   0.98847   0.00000  Uiso   1.00
H574   H     0.02560   0.21470   0.52318   0.00000  Uiso   1.00
C575   C     0.03178   0.19106   0.95230   0.00000  Uiso   1.00
H576   H     0.02257   0.15570   0.96020   0.00000  Uiso   1.00
H577   H     0.32868   0.20823   0.93553   0.00000  Uiso   1.00
H578   H     0.06036   0.19152   0.92675   0.00000  Uiso   1.00
O579   O     0.15017   0.33033   0.96937   0.00000  Uiso   1.00
C580   C     0.10056   0.34873   0.95156   0.00000  Uiso   1.00
H581   H     0.06879   0.32321   0.95045   0.00000  Uiso   1.00
H582   H     0.10016   0.36299   0.91523   0.00000  Uiso   1.00
C583   C     0.08913   0.38669   0.98431   0.00000  Uiso   1.00
H584   H     0.04953   0.40066   0.97165   0.00000  Uiso   1.00
H585   H     0.11873   0.41379   0.98427   0.00000  Uiso   1.00
H586   H     0.09060   0.37406   0.52139   0.00000  Uiso   1.00
O587   O     0.23670   0.30632   0.53894   0.00000  Uiso   1.00
C588   C     0.28899   0.29646   0.55922   0.00000  Uiso   1.00
H589   H     0.29644   0.25959   0.56100   0.00000  Uiso   1.00
H590   H     0.29830   0.31106   0.59570   0.00000  Uiso   1.00
C591   C     0.32584   0.31737   0.52846   0.00000  Uiso   1.00
H592   H     0.03378   0.30979   0.54398   0.00000  Uiso   1.00
H593   H     0.31757   0.30356   0.99161   0.00000  Uiso   1.00
H594   H     0.32045   0.35433   0.52695   0.00000  Uiso   1.00
O595   O     0.18709   0.17120   0.97439   0.00000  Uiso   1.00
C596   C     0.24158   0.16320   0.98291   0.00000  Uiso   1.00
H597   H     0.26361   0.19302   0.99930   0.00000  Uiso   1.00
H598   H     0.25567   0.15419   0.94894   0.00000  Uiso   1.00
C599   C     0.25298   0.12417   0.51751   0.00000  Uiso   1.00
H600   H     0.29584   0.11760   0.52447   0.00000  Uiso   1.00
H601   H     0.23242   0.09352   0.50206   0.00000  Uiso   1.00
H602   H     0.23942   0.13233   0.55187   0.00000  Uiso   1.00
C603   C     0.50079   0.16376   0.75014   0.00000  Uiso   1.00
C604   C     0.50073   0.33622   0.75010   0.00000  Uiso   1.00
C605   C     0.46640   0.22235   0.54736   0.00000  Uiso   1.00
C606   C     0.49073   0.29031   0.94631   0.00000  Uiso   1.00
C607   C     0.46730   0.22220   0.59723   0.00000  Uiso   1.00
C608   C     0.49131   0.28903   0.89637   0.00000  Uiso   1.00
C609   C     0.53327   0.27798   0.60754   0.00000  Uiso   1.00
C610   C     0.50965   0.21140   0.89939   0.00000  Uiso   1.00
C611   C     0.53572   0.27819   0.55790   0.00000  Uiso   1.00
C612   C     0.51136   0.21098   0.94943   0.00000  Uiso   1.00
C613   C     0.50106   0.25067   0.52692   0.00000  Uiso   1.00
C614   C     0.50154   0.25078   0.97360   0.00000  Uiso   1.00
C615   C     0.40028   0.25005   0.73746   0.00000  Uiso   1.00
C616   C     0.59972   0.25004   0.76254   0.00000  Uiso   1.00
C617   C     0.34521   0.25018   0.73072   0.00000  Uiso   1.00
C618   C     0.65478   0.25006   0.76926   0.00000  Uiso   1.00
C619   C     0.54305   0.04949   0.79214   0.00000  Uiso   1.00
C620   C     0.54457   0.45055   0.72191   0.00000  Uiso   1.00
C621   C     0.53555   0.09549   0.79138   0.00000  Uiso   1.00
C622   C     0.53695   0.40454   0.72014   0.00000  Uiso   1.00
C623   C     0.50674   0.11586   0.75108   0.00000  Uiso   1.00
C624   C     0.50659   0.38411   0.75099   0.00000  Uiso   1.00
C625   C     0.48582   0.09059   0.71111   0.00000  Uiso   1.00
C626   C     0.48421   0.40927   0.78415   0.00000  Uiso   1.00
C627   C     0.49223   0.04461   0.71205   0.00000  Uiso   1.00
C628   C     0.49065   0.45526   0.78532   0.00000  Uiso   1.00
C629   C     0.52064   0.02410   0.75242   0.00000  Uiso   1.00
C630   C     0.52061   0.47586   0.75428   0.00000  Uiso   1.00
H631   H     0.65772   0.25037   0.69421   0.00000  Uiso   1.00
H632   H     0.34227   0.24990   0.80576   0.00000  Uiso   1.00
H633   H     0.55285   0.11535   0.82186   0.00000  Uiso   1.00
H634   H     0.55540   0.38470   0.69534   0.00000  Uiso   1.00
H635   H     0.46365   0.10628   0.67980   0.00000  Uiso   1.00
H636   H     0.46091   0.39348   0.80823   0.00000  Uiso   1.00
H637   H     0.47417   0.02481   0.68178   0.00000  Uiso   1.00
H638   H     0.47144   0.47499   0.80970   0.00000  Uiso   1.00
H639   H     0.44144   0.19992   0.61281   0.00000  Uiso   1.00
H640   H     0.48524   0.31951   0.87565   0.00000  Uiso   1.00
H641   H     0.55811   0.30018   0.63140   0.00000  Uiso   1.00
H642   H     0.51658   0.18062   0.88119   0.00000  Uiso   1.00
N643   N     0.50000   0.24999   0.62624   0.00000  Uiso   1.00
N644   N     0.50000   0.25001   0.87377   0.00000  Uiso   1.00
O645   O     0.50000   0.18454   0.78974   0.00000  Uiso   1.00
O646   O     0.50000   0.31547   0.71026   0.00000  Uiso   1.00
O647   O     0.50000   0.18453   0.71026   0.00000  Uiso   1.00
O648   O     0.50000   0.31547   0.78974   0.00000  Uiso   1.00
O649   O     0.42392   0.25000   0.78045   0.00000  Uiso   1.00
O650   O     0.57608   0.25000   0.71956   0.00000  Uiso   1.00
O651   O     0.42392   0.25000   0.70097   0.00000  Uiso   1.00
O652   O     0.57608   0.25001   0.79904   0.00000  Uiso   1.00
Zn653  Zn    0.50000   0.25001   0.80307   0.00000  Uiso   1.00
Zn654  Zn    0.50000   0.25000   0.69693   0.00000  Uiso   1.00
I655   I     0.58884   0.02071   0.85346   0.00000  Uiso   1.00
I656   I     0.59298   0.47949   0.67584   0.00000  Uiso   1.00
O657   O     0.43393   0.19261   0.51932   0.00000  Uiso   1.00
C658   C     0.38806   0.21517   0.99814   0.00000  Uiso   1.00
H659   H     0.39526   0.25064   0.98847   0.00000  Uiso   1.00
H660   H     0.35893   0.21470   0.52318   0.00000  Uiso   1.00
C661   C     0.36512   0.19106   0.95230   0.00000  Uiso   1.00
H662   H     0.35590   0.15570   0.96020   0.00000  Uiso   1.00
H663   H     0.66201   0.20823   0.93553   0.00000  Uiso   1.00
H664   H     0.39369   0.19152   0.92675   0.00000  Uiso   1.00
O665   O     0.48351   0.33033   0.96937   0.00000  Uiso   1.00
C666   C     0.43389   0.34873   0.95156   0.00000  Uiso   1.00
H667   H     0.40212   0.32321   0.95045   0.00000  Uiso   1.00
H668   H     0.43349   0.36299   0.91523   0.00000  Uiso   1.00
C669   C     0.42247   0.38669   0.98431   0.00000  Uiso   1.00
H670   H     0.38286   0.40066   0.97165   0.00000  Uiso   1.00
H671   H     0.45206   0.41379   0.98427   0.00000  Uiso   1.00
H672   H     0.42393   0.37406   0.52139   0.00000  Uiso   1.00
O673   O     0.57004   0.30632   0.53894   0.00000  Uiso   1.00
C674   C     0.62232   0.29646   0.55922   0.00000  Uiso   1.00
H675   H     0.62977   0.25959   0.56100   0.00000  Uiso   1.00
H676   H     0.63163   0.31106   0.59570   0.00000  Uiso   1.00
C677   C     0.65918   0.31737   0.52846   0.00000  Uiso   1.00
H678   H     0.36712   0.30979   0.54398   0.00000  Uiso   1.00
H679   H     0.65090   0.30356   0.99161   0.00000  Uiso   1.00
H680   H     0.65378   0.35433   0.52695   0.00000  Uiso   1.00
O681   O     0.52043   0.17120   0.97439   0.00000  Uiso   1.00
C682   C     0.57492   0.16320   0.98291   0.00000  Uiso   1.00
H683   H     0.59695   0.19302   0.99930   0.00000  Uiso   1.00
H684   H     0.58900   0.15419   0.94894   0.00000  Uiso   1.00
C685   C     0.58631   0.12417   0.51751   0.00000  Uiso   1.00
H686   H     0.62918   0.11760   0.52447   0.00000  Uiso   1.00
H687   H     0.56575   0.09352   0.50206   0.00000  Uiso   1.00
H688   H     0.57275   0.13233   0.55187   0.00000  Uiso   1.00
C689   C     0.83412   0.16376   0.75014   0.00000  Uiso   1.00
C690   C     0.83406   0.33622   0.75010   0.00000  Uiso   1.00
C691   C     0.79973   0.22235   0.54736   0.00000  Uiso   1.00
C692   C     0.82406   0.29031   0.94631   0.00000  Uiso   1.00
C693   C     0.80064   0.22220   0.59723   0.00000  Uiso   1.00
C694   C     0.82465   0.28903   0.89637   0.00000  Uiso   1.00
C695   C     0.86660   0.27798   0.60754   0.00000  Uiso   1.00
C696   C     0.84299   0.21140   0.89939   0.00000  Uiso   1.00
C697   C     0.86906   0.27819   0.55790   0.00000  Uiso   1.00
C698   C     0.84469   0.21098   0.94943   0.00000  Uiso   1.00
C699   C     0.83440   0.25067   0.52692   0.00000  Uiso   1.00
C700   C     0.83487   0.25078   0.97360   0.00000  Uiso   1.00
C701   C     0.73362   0.25005   0.73746   0.00000  Uiso   1.00
C702   C     0.93305   0.25004   0.76254   0.00000  Uiso   1.00
C703   C     0.67854   0.25018   0.73072   0.00000  Uiso   1.00
C704   C     0.98811   0.25006   0.76926   0.00000  Uiso   1.00
C705   C     0.87638   0.04949   0.79214   0.00000  Uiso   1.00
C706   C     0.87790   0.45055   0.72191   0.00000  Uiso   1.00
C707   C     0.86888   0.09549   0.79138   0.00000  Uiso   1.00
C708   C     0.87028   0.40454   0.72014   0.00000  Uiso   1.00
C709   C     0.84007   0.11586   0.75108   0.00000  Uiso   1.00
C710   C     0.83993   0.38411   0.75099   0.00000  Uiso   1.00
C711   C     0.81915   0.09059   0.71111   0.00000  Uiso   1.00
C712   C     0.81754   0.40927   0.78415   0.00000  Uiso   1.00
C713   C     0.82556   0.04461   0.71205   0.00000  Uiso   1.00
C714   C     0.82398   0.45526   0.78532   0.00000  Uiso   1.00
C715   C     0.85397   0.02410   0.75242   0.00000  Uiso   1.00
C716   C     0.85394   0.47586   0.75428   0.00000  Uiso   1.00
H717   H     0.99105   0.25037   0.69421   0.00000  Uiso   1.00
H718   H     0.67560   0.24990   0.80576   0.00000  Uiso   1.00
H719   H     0.88619   0.11535   0.82186   0.00000  Uiso   1.00
H720   H     0.88873   0.38470   0.69534   0.00000  Uiso   1.00
H721   H     0.79699   0.10628   0.67980   0.00000  Uiso   1.00
H722   H     0.79424   0.39348   0.80823   0.00000  Uiso   1.00
H723   H     0.80750   0.02481   0.68178   0.00000  Uiso   1.00
H724   H     0.80477   0.47499   0.80970   0.00000  Uiso   1.00
H725   H     0.77478   0.19992   0.61281   0.00000  Uiso   1.00
H726   H     0.81857   0.31951   0.87565   0.00000  Uiso   1.00
H727   H     0.89145   0.30018   0.63140   0.00000  Uiso   1.00
H728   H     0.84992   0.18062   0.88119   0.00000  Uiso   1.00
N729   N     0.83333   0.24999   0.62624   0.00000  Uiso   1.00
N730   N     0.83333   0.25001   0.87377   0.00000  Uiso   1.00
O731   O     0.83334   0.18454   0.78974   0.00000  Uiso   1.00
O732   O     0.83333   0.31547   0.71026   0.00000  Uiso   1.00
O733   O     0.83334   0.18453   0.71026   0.00000  Uiso   1.00
O734   O     0.83333   0.31547   0.78974   0.00000  Uiso   1.00
O735   O     0.75725   0.25000   0.78045   0.00000  Uiso   1.00
O736   O     0.90942   0.25000   0.71956   0.00000  Uiso   1.00
O737   O     0.75725   0.25000   0.70097   0.00000  Uiso   1.00
O738   O     0.90942   0.25001   0.79904   0.00000  Uiso   1.00
Zn739  Zn    0.83333   0.25001   0.80307   0.00000  Uiso   1.00
Zn740  Zn    0.83333   0.25000   0.69693   0.00000  Uiso   1.00
I741   I     0.92217   0.02071   0.85346   0.00000  Uiso   1.00
I742   I     0.92632   0.47949   0.67584   0.00000  Uiso   1.00
O743   O     0.76726   0.19261   0.51932   0.00000  Uiso   1.00
C744   C     0.72139   0.21517   0.99814   0.00000  Uiso   1.00
H745   H     0.72859   0.25064   0.98847   0.00000  Uiso   1.00
H746   H     0.69226   0.21470   0.52318   0.00000  Uiso   1.00
C747   C     0.69845   0.19106   0.95230   0.00000  Uiso   1.00
H748   H     0.68923   0.15570   0.96020   0.00000  Uiso   1.00
H749   H     0.99535   0.20823   0.93553   0.00000  Uiso   1.00
H750   H     0.72703   0.19152   0.92675   0.00000  Uiso   1.00
O751   O     0.81684   0.33033   0.96937   0.00000  Uiso   1.00
C752   C     0.76723   0.34873   0.95156   0.00000  Uiso   1.00
H753   H     0.73545   0.32321   0.95045   0.00000  Uiso   1.00
H754   H     0.76683   0.36299   0.91523   0.00000  Uiso   1.00
C755   C     0.75580   0.38669   0.98431   0.00000  Uiso   1.00
H756   H     0.71619   0.40066   0.97165   0.00000  Uiso   1.00
H757   H     0.78539   0.41379   0.98427   0.00000  Uiso   1.00
H758   H     0.75726   0.37406   0.52139   0.00000  Uiso   1.00
O759   O     0.90337   0.30632   0.53894   0.00000  Uiso   1.00
C760   C     0.95565   0.29646   0.55922   0.00000  Uiso   1.00
H761   H     0.96310   0.25959   0.56100   0.00000  Uiso   1.00
H762   H     0.96496   0.31106   0.59570   0.00000  Uiso   1.00
C763   C     0.99251   0.31737   0.52846   0.00000  Uiso   1.00
H764   H     0.70045   0.30979   0.54398   0.00000  Uiso   1.00
H765   H     0.98424   0.30356   0.99161   0.00000  Uiso   1.00
H766   H     0.98711   0.35433   0.52695   0.00000  Uiso   1.00
O767   O     0.85376   0.17120   0.97439   0.00000  Uiso   1.00
C768   C     0.90825   0.16320   0.98291   0.00000  Uiso   1.00
H769   H     0.93028   0.19302   0.99930   0.00000  Uiso   1.00
H770   H     0.92234   0.15419   0.94894   0.00000  Uiso   1.00
C771   C     0.91964   0.12417   0.51751   0.00000  Uiso   1.00
H772   H     0.96251   0.11760   0.52447   0.00000  Uiso   1.00
H773   H     0.89908   0.09352   0.50206   0.00000  Uiso   1.00
H774   H     0.90608   0.13233   0.55187   0.00000  Uiso   1.00
C775   C     0.16746   0.66376   0.75014   0.00000  Uiso   1.00
C776   C     0.16739   0.83622   0.75010   0.00000  Uiso   1.00
C777   C     0.13307   0.72235   0.54736   0.00000  Uiso   1.00
C778   C     0.15740   0.79031   0.94631   0.00000  Uiso   1.00
C779   C     0.13397   0.72220   0.59723   0.00000  Uiso   1.00
C780   C     0.15798   0.78903   0.89637   0.00000  Uiso   1.00
C781   C     0.19994   0.77798   0.60754   0.00000  Uiso   1.00
C782   C     0.17632   0.71140   0.89939   0.00000  Uiso   1.00
C783   C     0.20239   0.77819   0.55790   0.00000  Uiso   1.00
C784   C     0.17803   0.71098   0.94943   0.00000  Uiso   1.00
C785   C     0.16773   0.75067   0.52692   0.00000  Uiso   1.00
C786   C     0.16820   0.75078   0.97360   0.00000  Uiso   1.00
C787   C     0.06695   0.75005   0.73746   0.00000  Uiso   1.00
C788   C     0.26638   0.75004   0.76254   0.00000  Uiso   1.00
C789   C     0.01188   0.75018   0.73072   0.00000  Uiso   1.00
C790   C     0.32145   0.75006   0.76926   0.00000  Uiso   1.00
C791   C     0.20971   0.54949   0.79214   0.00000  Uiso   1.00
C792   C     0.21123   0.95055   0.72191   0.00000  Uiso   1.00
C793   C     0.20222   0.59549   0.79138   0.00000  Uiso   1.00
C794   C     0.20362   0.90454   0.72014   0.00000  Uiso   1.00
C795   C     0.17341   0.61586   0.75108   0.00000  Uiso   1.00
C796   C     0.17326   0.88411   0.75099   0.00000  Uiso   1.00
C797   C     0.15249   0.59059   0.71111   0.00000  Uiso   1.00
C798   C     0.15087   0.90927   0.78415   0.00000  Uiso   1.00
C799   C     0.15890   0.54461   0.71205   0.00000  Uiso   1.00
C800   C     0.15731   0.95526   0.78532   0.00000  Uiso   1.00
C801   C     0.18731   0.52410   0.75242   0.00000  Uiso   1.00
C802   C     0.18728   0.97586   0.75428   0.00000  Uiso   1.00
H803   H     0.32439   0.75037   0.69421   0.00000  Uiso   1.00
H804   H     0.00894   0.74990   0.80576   0.00000  Uiso   1.00
H805   H     0.21952   0.61535   0.82186   0.00000  Uiso   1.00
H806   H     0.22207   0.88470   0.69534   0.00000  Uiso   1.00
H807   H     0.13032   0.60628   0.67980   0.00000  Uiso   1.00
H808   H     0.12758   0.89348   0.80823   0.00000  Uiso   1.00
H809   H     0.14083   0.52481   0.68178   0.00000  Uiso   1.00
H810   H     0.13811   0.97499   0.80970   0.00000  Uiso   1.00
H811   H     0.10811   0.69992   0.61281   0.00000  Uiso   1.00
H812   H     0.15190   0.81951   0.87565   0.00000  Uiso   1.00
H813   H     0.22478   0.80018   0.63140   0.00000  Uiso   1.00
H814   H     0.18325   0.68062   0.88119   0.00000  Uiso   1.00
N815   N     0.16667   0.74999   0.62624   0.00000  Uiso   1.00
N816   N     0.16667   0.75001   0.87377   0.00000  Uiso   1.00
O817   O     0.16667   0.68454   0.78974   0.00000  Uiso   1.00
O818   O     0.16666   0.81547   0.71026   0.00000  Uiso   1.00
O819   O     0.16667   0.68453   0.71026   0.00000  Uiso   1.00
O820   O     0.16666   0.81547   0.78974   0.00000  Uiso   1.00
O821   O     0.09058   0.75000   0.78045   0.00000  Uiso   1.00
O822   O     0.24275   0.75000   0.71956   0.00000  Uiso   1.00
O823   O     0.09058   0.75000   0.70097   0.00000  Uiso   1.00
O824   O     0.24275   0.75001   0.79904   0.00000  Uiso   1.00
Zn825  Zn    0.16667   0.75001   0.80307   0.00000  Uiso   1.00
Zn826  Zn    0.16667   0.75000   0.69693   0.00000  Uiso   1.00
I827   I     0.25551   0.52071   0.85346   0.00000  Uiso   1.00
I828   I     0.25965   0.97949   0.67584   0.00000  Uiso   1.00
O829   O     0.10059   0.69261   0.51932   0.00000  Uiso   1.00
C830   C     0.05472   0.71517   0.99814   0.00000  Uiso   1.00
H831   H     0.06193   0.75064   0.98847   0.00000  Uiso   1.00
H832   H     0.02560   0.71470   0.52318   0.00000  Uiso   1.00
C833   C     0.03178   0.69106   0.95230   0.00000  Uiso   1.00
H834   H     0.02257   0.65570   0.96020   0.00000  Uiso   1.00
H835   H     0.32868   0.70823   0.93553   0.00000  Uiso   1.00
H836   H     0.06036   0.69152   0.92675   0.00000  Uiso   1.00
O837   O     0.15017   0.83033   0.96937   0.00000  Uiso   1.00
C838   C     0.10056   0.84873   0.95156   0.00000  Uiso   1.00
H839   H     0.06879   0.82321   0.95045   0.00000  Uiso   1.00
H840   H     0.10016   0.86299   0.91523   0.00000  Uiso   1.00
C841   C     0.08913   0.88669   0.98431   0.00000  Uiso   1.00
H842   H     0.04953   0.90066   0.97165   0.00000  Uiso   1.00
H843   H     0.11873   0.91379   0.98427   0.00000  Uiso   1.00
H844   H     0.09060   0.87406   0.52139   0.00000  Uiso   1.00
O845   O     0.23670   0.80632   0.53894   0.00000  Uiso   1.00
C846   C     0.28899   0.79646   0.55922   0.00000  Uiso   1.00
H847   H     0.29644   0.75959   0.56100   0.00000  Uiso   1.00
H848   H     0.29830   0.81106   0.59570   0.00000  Uiso   1.00
C849   C     0.32584   0.81737   0.52846   0.00000  Uiso   1.00
H850   H     0.03378   0.80979   0.54398   0.00000  Uiso   1.00
H851   H     0.31757   0.80356   0.99161   0.00000  Uiso   1.00
H852   H     0.32045   0.85433   0.52695   0.00000  Uiso   1.00
O853   O     0.18709   0.67120   0.97439   0.00000  Uiso   1.00
C854   C     0.24158   0.66320   0.98291   0.00000  Uiso   1.00
H855   H     0.26361   0.69302   0.99930   0.00000  Uiso   1.00
H856   H     0.25567   0.65419   0.94894   0.00000  Uiso   1.00
C857   C     0.25298   0.62417   0.51751   0.00000  Uiso   1.00
H858   H     0.29584   0.61760   0.52447   0.00000  Uiso   1.00
H859   H     0.23242   0.59352   0.50206   0.00000  Uiso   1.00
H860   H     0.23942   0.63233   0.55187   0.00000  Uiso   1.00
C861   C     0.50079   0.66376   0.75014   0.00000  Uiso   1.00
C862   C     0.50073   0.83622   0.75010   0.00000  Uiso   1.00
C863   C     0.46640   0.72235   0.54736   0.00000  Uiso   1.00
C864   C     0.49073   0.79031   0.94631   0.00000  Uiso   1.00
C865   C     0.46730   0.72220   0.59723   0.00000  Uiso   1.00
C866   C     0.49131   0.78903   0.89637   0.00000  Uiso   1.00
C867   C     0.53327   0.77798   0.60754   0.00000  Uiso   1.00
C868   C     0.50965   0.71140   0.89939   0.00000  Uiso   1.00
C869   C     0.53572   0.77819   0.55790   0.00000  Uiso   1.00
C870   C     0.51136   0.71098   0.94943   0.00000  Uiso   1.00
C871   C     0.50106   0.75067   0.52692   0.00000  Uiso   1.00
C872   C     0.50154   0.75078   0.97360   0.00000  Uiso   1.00
C873   C     0.40028   0.75005   0.73746   0.00000  Uiso   1.00
C874   C     0.59972   0.75004   0.76254   0.00000  Uiso   1.00
C875   C     0.34521   0.75018   0.73072   0.00000  Uiso   1.00
C876   C     0.65478   0.75006   0.76926   0.00000  Uiso   1.00
C877   C     0.54305   0.54949   0.79214   0.00000  Uiso   1.00
C878   C     0.54457   0.95055   0.72191   0.00000  Uiso   1.00
C879   C     0.53555   0.59549   0.79138   0.00000  Uiso   1.00
C880   C     0.53695   0.90454   0.72014   0.00000  Uiso   1.00
C881   C     0.50674   0.61586   0.75108   0.00000  Uiso   1.00
C882   C     0.50659   0.88411   0.75099   0.00000  Uiso   1.00
C883   C     0.48582   0.59059   0.71111   0.00000  Uiso   1.00
C884   C     0.48421   0.90927   0.78415   0.00000  Uiso   1.00
C885   C     0.49223   0.54461   0.71205   0.00000  Uiso   1.00
C886   C     0.49065   0.95526   0.78532   0.00000  Uiso   1.00
C887   C     0.52064   0.52410   0.75242   0.00000  Uiso   1.00
C888   C     0.52061   0.97586   0.75428   0.00000  Uiso   1.00
H889   H     0.65772   0.75037   0.69421   0.00000  Uiso   1.00
H890   H     0.34227   0.74990   0.80576   0.00000  Uiso   1.00
H891   H     0.55285   0.61535   0.82186   0.00000  Uiso   1.00
H892   H     0.55540   0.88470   0.69534   0.00000  Uiso   1.00
H893   H     0.46365   0.60628   0.67980   0.00000  Uiso   1.00
H894   H     0.46091   0.89348   0.80823   0.00000  Uiso   1.00
H895   H     0.47417   0.52481   0.68178   0.00000  Uiso   1.00
H896   H     0.47144   0.97499   0.80970   0.00000  Uiso   1.00
H897   H     0.44144   0.69992   0.61281   0.00000  Uiso   1.00
H898   H     0.48524   0.81951   0.87565   0.00000  Uiso   1.00
H899   H     0.55811   0.80018   0.63140   0.00000  Uiso   1.00
H900   H     0.51658   0.68062   0.88119   0.00000  Uiso   1.00
N901   N     0.50000   0.74999   0.62624   0.00000  Uiso   1.00
N902   N     0.50000   0.75001   0.87377   0.00000  Uiso   1.00
O903   O     0.50000   0.68454   0.78974   0.00000  Uiso   1.00
O904   O     0.50000   0.81547   0.71026   0.00000  Uiso   1.00
O905   O     0.50000   0.68453   0.71026   0.00000  Uiso   1.00
O906   O     0.50000   0.81547   0.78974   0.00000  Uiso   1.00
O907   O     0.42392   0.75000   0.78045   0.00000  Uiso   1.00
O908   O     0.57608   0.75000   0.71956   0.00000  Uiso   1.00
O909   O     0.42392   0.75000   0.70097   0.00000  Uiso   1.00
O910   O     0.57608   0.75001   0.79904   0.00000  Uiso   1.00
Zn911  Zn    0.50000   0.75001   0.80307   0.00000  Uiso   1.00
Zn912  Zn    0.50000   0.75000   0.69693   0.00000  Uiso   1.00
I913   I     0.58884   0.52071   0.85346   0.00000  Uiso   1.00
I914   I     0.59298   0.97949   0.67584   0.00000  Uiso   1.00
O915   O     0.43393   0.69261   0.51932   0.00000  Uiso   1.00
C916   C     0.38806   0.71517   0.99814   0.00000  Uiso   1.00
H917   H     0.39526   0.75064   0.98847   0.00000  Uiso   1.00
H918   H     0.35893   0.71470   0.52318   0.00000  Uiso   1.00
C919   C     0.36512   0.69106   0.95230   0.00000  Uiso   1.00
H920   H     0.35590   0.65570   0.96020   0.00000  Uiso   1.00
H921   H     0.66201   0.70823   0.93553   0.00000  Uiso   1.00
H922   H     0.39369   0.69152   0.92675   0.00000  Uiso   1.00
O923   O     0.48351   0.83033   0.96937   0.00000  Uiso   1.00
C924   C     0.43389   0.84873   0.95156   0.00000  Uiso   1.00
H925   H     0.40212   0.82321   0.95045   0.00000  Uiso   1.00
H926   H     0.43349   0.86299   0.91523   0.00000  Uiso   1.00
C927   C     0.42247   0.88669   0.98431   0.00000  Uiso   1.00
H928   H     0.38286   0.90066   0.97165   0.00000  Uiso   1.00
H929   H     0.45206   0.91379   0.98427   0.00000  Uiso   1.00
H930   H     0.42393   0.87406   0.52139   0.00000  Uiso   1.00
O931   O     0.57004   0.80632   0.53894   0.00000  Uiso   1.00
C932   C     0.62232   0.79646   0.55922   0.00000  Uiso   1.00
H933   H     0.62977   0.75959   0.56100   0.00000  Uiso   1.00
H934   H     0.63163   0.81106   0.59570   0.00000  Uiso   1.00
C935   C     0.65918   0.81737   0.52846   0.00000  Uiso   1.00
H936   H     0.36712   0.80979   0.54398   0.00000  Uiso   1.00
H937   H     0.65090   0.80356   0.99161   0.00000  Uiso   1.00
H938   H     0.65378   0.85433   0.52695   0.00000  Uiso   1.00
O939   O     0.52043   0.67120   0.97439   0.00000  Uiso   1.00
C940   C     0.57492   0.66320   0.98291   0.00000  Uiso   1.00
H941   H     0.59695   0.69302   0.99930   0.00000  Uiso   1.00
H942   H     0.58900   0.65419   0.94894   0.00000  Uiso   1.00
C943   C     0.58631   0.62417   0.51751   0.00000  Uiso   1.00
H944   H     0.62918   0.61760   0.52447   0.00000  Uiso   1.00
H945   H     0.56575   0.59352   0.50206   0.00000  Uiso   1.00
H946   H     0.57275   0.63233   0.55187   0.00000  Uiso   1.00
C947   C     0.83412   0.66376   0.75014   0.00000  Uiso   1.00
C948   C     0.83406   0.83622   0.75010   0.00000  Uiso   1.00
C949   C     0.79973   0.72235   0.54736   0.00000  Uiso   1.00
C950   C     0.82406   0.79031   0.94631   0.00000  Uiso   1.00
C951   C     0.80064   0.72220   0.59723   0.00000  Uiso   1.00
C952   C     0.82465   0.78903   0.89637   0.00000  Uiso   1.00
C953   C     0.86660   0.77798   0.60754   0.00000  Uiso   1.00
C954   C     0.84299   0.71140   0.89939   0.00000  Uiso   1.00
C955   C     0.86906   0.77819   0.55790   0.00000  Uiso   1.00
C956   C     0.84469   0.71098   0.94943   0.00000  Uiso   1.00
C957   C     0.83440   0.75067   0.52692   0.00000  Uiso   1.00
C958   C     0.83487   0.75078   0.97360   0.00000  Uiso   1.00
C959   C     0.73362   0.75005   0.73746   0.00000  Uiso   1.00
C960   C     0.93305   0.75004   0.76254   0.00000  Uiso   1.00
C961   C     0.67854   0.75018   0.73072   0.00000  Uiso   1.00
C962   C     0.98811   0.75006   0.76926   0.00000  Uiso   1.00
C963   C     0.87638   0.54949   0.79214   0.00000  Uiso   1.00
C964   C     0.87790   0.95055   0.72191   0.00000  Uiso   1.00
C965   C     0.86888   0.59549   0.79138   0.00000  Uiso   1.00
C966   C     0.87028   0.90454   0.72014   0.00000  Uiso   1.00
C967   C     0.84007   0.61586   0.75108   0.00000  Uiso   1.00
C968   C     0.83993   0.88411   0.75099   0.00000  Uiso   1.00
C969   C     0.81915   0.59059   0.71111   0.00000  Uiso   1.00
C970   C     0.81754   0.90927   0.78415   0.00000  Uiso   1.00
C971   C     0.82556   0.54461   0.71205   0.00000  Uiso   1.00
C972   C     0.82398   0.95526   0.78532   0.00000  Uiso   1.00
C973   C     0.85397   0.52410   0.75242   0.00000  Uiso   1.00
C974   C     0.85394   0.97586   0.75428   0.00000  Uiso   1.00
H975   H     0.99105   0.75037   0.69421   0.00000  Uiso   1.00
H976   H     0.67560   0.74990   0.80576   0.00000  Uiso   1.00
H977   H     0.88619   0.61535   0.82186   0.00000  Uiso   1.00
H978   H     0.88873   0.88470   0.69534   0.00000  Uiso   1.00
H979   H     0.79699   0.60628   0.67980   0.00000  Uiso   1.00
H980   H     0.79424   0.89348   0.80823   0.00000  Uiso   1.00
H981   H     0.80750   0.52481   0.68178   0.00000  Uiso   1.00
H982   H     0.80477   0.97499   0.80970   0.00000  Uiso   1.00
H983   H     0.77478   0.69992   0.61281   0.00000  Uiso   1.00
H984   H     0.81857   0.81951   0.87565   0.00000  Uiso   1.00
H985   H     0.89145   0.80018   0.63140   0.00000  Uiso   1.00
H986   H     0.84992   0.68062   0.88119   0.00000  Uiso   1.00
N987   N     0.83333   0.74999   0.62624   0.00000  Uiso   1.00
N988   N     0.83333   0.75001   0.87377   0.00000  Uiso   1.00
O989   O     0.83334   0.68454   0.78974   0.00000  Uiso   1.00
O990   O     0.83333   0.81547   0.71026   0.00000  Uiso   1.00
O991   O     0.83334   0.68453   0.71026   0.00000  Uiso   1.00
O992   O     0.83333   0.81547   0.78974   0.00000  Uiso   1.00
O993   O     0.75725   0.75000   0.78045   0.00000  Uiso   1.00
O994   O     0.90942   0.75000   0.71956   0.00000  Uiso   1.00
O995   O     0.75725   0.75000   0.70097   0.00000  Uiso   1.00
O996   O     0.90942   0.75001   0.79904   0.00000  Uiso   1.00
Zn997  Zn    0.83333   0.75001   0.80307   0.00000  Uiso   1.00
Zn998  Zn    0.83333   0.75000   0.69693   0.00000  Uiso   1.00
I999   I     0.92217   0.52071   0.85346   0.00000  Uiso   1.00
I1000  I     0.92632   0.97949   0.67584   0.00000  Uiso   1.00
O1001  O     0.76726   0.69261   0.51932   0.00000  Uiso   1.00
C1002  C     0.72139   0.71517   0.99814   0.00000  Uiso   1.00
H1003  H     0.72859   0.75064   0.98847   0.00000  Uiso   1.00
H1004  H     0.69226   0.71470   0.52318   0.00000  Uiso   1.00
C1005  C     0.69845   0.69106   0.95230   0.00000  Uiso   1.00
H1006  H     0.68923   0.65570   0.96020   0.00000  Uiso   1.00
H1007  H     0.99535   0.70823   0.93553   0.00000  Uiso   1.00
H1008  H     0.72703   0.69152   0.92675   0.00000  Uiso   1.00
O1009  O     0.81684   0.83033   0.96937   0.00000  Uiso   1.00
C1010  C     0.76723   0.84873   0.95156   0.00000  Uiso   1.00
H1011  H     0.73545   0.82321   0.95045   0.00000  Uiso   1.00
H1012  H     0.76683   0.86299   0.91523   0.00000  Uiso   1.00
C1013  C     0.75580   0.88669   0.98431   0.00000  Uiso   1.00
H1014  H     0.71619   0.90066   0.97165   0.00000  Uiso   1.00
H1015  H     0.78539   0.91379   0.98427   0.00000  Uiso   1.00
H1016  H     0.75726   0.87406   0.52139   0.00000  Uiso   1.00
O1017  O     0.90337   0.80632   0.53894   0.00000  Uiso   1.00
C1018  C     0.95565   0.79646   0.55922   0.00000  Uiso   1.00
H1019  H     0.96310   0.75959   0.56100   0.00000  Uiso   1.00
H1020  H     0.96496   0.81106   0.59570   0.00000  Uiso   1.00
C1021  C     0.99251   0.81737   0.52846   0.00000  Uiso   1.00
H1022  H     0.70045   0.80979   0.54398   0.00000  Uiso   1.00
H1023  H     0.98424   0.80356   0.99161   0.00000  Uiso   1.00
H1024  H     0.98711   0.85433   0.52695   0.00000  Uiso   1.00
O1025  O     0.85376   0.67120   0.97439   0.00000  Uiso   1.00
C1026  C     0.90825   0.66320   0.98291   0.00000  Uiso   1.00
H1027  H     0.93028   0.69302   0.99930   0.00000  Uiso   1.00
H1028  H     0.92234   0.65419   0.94894   0.00000  Uiso   1.00
C1029  C     0.91964   0.62417   0.51751   0.00000  Uiso   1.00
H1030  H     0.96251   0.61760   0.52447   0.00000  Uiso   1.00
H1031  H     0.89908   0.59352   0.50206   0.00000  Uiso   1.00
H1032  H     0.90608   0.63233   0.55187   0.00000  Uiso   1.00
loop_
_geom_bond_atom_site_label_1
_geom_bond_atom_site_label_2
_geom_bond_distance
_geom_bond_site_symmetry_2
_ccdc_geom_bond_type
C1     C21     1.436   .     S
C1     O43     1.284   .     A
C1     O45     1.285   .     A
C2     O46     1.284   .     A
C2     O44     1.284   .     A
C2     C22     1.435   .     S
C3     O55     1.382   .     S
C3     C5      1.409   .     A
C3     C11     1.416   .     A
C4     O63     1.386   .     S
C4     C12     1.413   .     A
C4     C6      1.417   .     A
C5     H37     1.082   .     S
C5     N41     1.362   .     A
C6     H38     1.079   .     S
C6     N42     1.363   .     A
C7     C9      1.417   .     A
C7     N41     1.361   .     A
C7     H39     1.081   .     S
C8     N42     1.363   .     A
C8     C10     1.411   .     A
C8     H40     1.081   .     S
C9     C11     1.413   .     A
C9     O71     1.386   .     S
C10    C12     1.412   .     A
C10    O79     1.381   .     S
C11    C528    1.511   1_554 S
C12    C527    1.511   .     S
C13    O47     1.274   .     A
C13    O49     1.279   .     A
C13    C15     1.404   .     S
C14    C16     1.404   .     S
C14    O48     1.274   .     A
C14    O50     1.279   .     A
C15    C188    1.332   1_455 S
C15    H201    1.088   1_455 S
C16    C101    1.332   .     S
C16    H116    1.088   .     S
C17    C27     1.403   .     A
C17    I53     2.124   .     S
C17    C19     1.384   .     A
C18    C20     1.384   .     A
C18    C28     1.403   .     A
C18    I54     2.124   .     S
C19    H31     1.084   .     S
C19    C21     1.400   .     A
C20    C22     1.400   .     A
C20    H32     1.084   .     S
C21    C23     1.396   .     A
C22    C24     1.396   .     A
C23    H33     1.084   .     S
C23    C25     1.380   .     A
C24    H34     1.084   .     S
C24    C26     1.380   .     A
C25    H35     1.084   .     S
C25    C27     1.399   .     A
C26    H36     1.084   .     S
C26    C28     1.399   .     A
C27    C286    1.439   1_545 S
C28    C285    1.439   .     S
H29    C101    1.088   .     S
H30    C188    1.088   1_455 S
N41    Zn52    2.002   .     S
N42    Zn51    2.002   .     S
O43    Zn51    1.987   .     S
O44    Zn52    1.987   .     S
O45    Zn52    1.987   .     S
O46    Zn51    1.987   .     S
O47    Zn51    1.968   .     S
O48    Zn52    1.968   .     S
O49    Zn52    1.984   .     S
O50    Zn51    1.984   .     S
O55    C572    1.412   1_554 S
C56    H57     1.114   .     S
C56    C59     1.520   .     S
C56    O571    1.412   .     S
C56    H574    1.111   .     S
H58    C572    1.111   1_554 S
C59    H60     1.110   .     S
C59    H62     1.111   .     S
C59    H233    1.111   1_455 S
H61    C145    1.111   .     S
O63    C64     1.412   .     S
C64    C67     1.521   .     S
C64    H66     1.112   .     S
C64    H65     1.114   .     S
C67    H68     1.111   .     S
C67    H69     1.111   .     S
C67    H586    1.110   .     S
H70    C583    1.110   1_554 S
O71    C72     1.413   .     S
C72    C75     1.519   .     S
C72    H74     1.112   .     S
C72    H73     1.116   .     S
C75    H78     1.111   .     S
C75    H162    1.111   .     S
C75    H593    1.111   1_554 S
H76    C247    1.111   1_455 S
H77    C591    1.111   .     S
O79    C80     1.410   .     S
C80    H82     1.113   .     S
C80    H81     1.116   .     S
C80    C599    1.520   .     S
C83    H84     1.111   .     S
C83    H85     1.111   .     S
C83    H86     1.111   .     S
C83    C596    1.520   1_554 S
C87    C107    1.436   .     S
C87    O129    1.284   .     A
C87    O131    1.285   .     A
C88    O132    1.284   .     A
C88    O130    1.284   .     A
C88    C108    1.435   .     S
C89    O141    1.382   .     S
C89    C91     1.409   .     A
C89    C97     1.416   .     A
C90    O149    1.386   .     S
C90    C98     1.413   .     A
C90    C92     1.417   .     A
C91    H123    1.082   .     S
C91    N127    1.362   .     A
C92    H124    1.079   .     S
C92    N128    1.363   .     A
C93    C95     1.417   .     A
C93    N127    1.361   .     A
C93    H125    1.081   .     S
C94    N128    1.363   .     A
C94    C96     1.411   .     A
C94    H126    1.081   .     S
C95    C97     1.413   .     A
C95    O157    1.386   .     S
C96    C98     1.412   .     A
C96    O165    1.381   .     S
C97    C614    1.511   1_554 S
C98    C613    1.511   .     S
C99    O133    1.274   .     A
C99    O135    1.279   .     A
C99    C101    1.404   .     S
C100   C102    1.404   .     S
C100   O134    1.274   .     A
C100   O136    1.279   .     A
C102   C187    1.332   .     S
C102   H202    1.088   .     S
C103   C113    1.403   .     A
C103   I139    2.124   .     S
C103   C105    1.384   .     A
C104   C106    1.384   .     A
C104   C114    1.403   .     A
C104   I140    2.124   .     S
C105   H117    1.084   .     S
C105   C107    1.400   .     A
C106   C108    1.400   .     A
C106   H118    1.084   .     S
C107   C109    1.396   .     A
C108   C110    1.396   .     A
C109   H119    1.084   .     S
C109   C111    1.380   .     A
C110   H120    1.084   .     S
C110   C112    1.380   .     A
C111   H121    1.084   .     S
C111   C113    1.399   .     A
C112   H122    1.084   .     S
C112   C114    1.399   .     A
C113   C372    1.439   1_545 S
C114   C371    1.439   .     S
H115   C187    1.088   .     S
N127   Zn138   2.002   .     S
N128   Zn137   2.002   .     S
O129   Zn137   1.987   .     S
O130   Zn138   1.987   .     S
O131   Zn138   1.987   .     S
O132   Zn137   1.987   .     S
O133   Zn137   1.968   .     S
O134   Zn138   1.968   .     S
O135   Zn138   1.984   .     S
O136   Zn137   1.984   .     S
O141   C658    1.412   1_554 S
C142   H143    1.114   .     S
C142   C145    1.520   .     S
C142   O657    1.412   .     S
C142   H660    1.111   .     S
H144   C658    1.111   1_554 S
C145   H146    1.110   .     S
C145   H148    1.111   .     S
H147   C231    1.111   .     S
O149   C150    1.412   .     S
C150   C153    1.521   .     S
C150   H152    1.112   .     S
C150   H151    1.114   .     S
C153   H154    1.111   .     S
C153   H155    1.111   .     S
C153   H672    1.110   .     S
H156   C669    1.110   1_554 S
O157   C158    1.413   .     S
C158   C161    1.519   .     S
C158   H160    1.112   .     S
C158   H159    1.116   .     S
C161   H164    1.111   .     S
C161   H248    1.111   .     S
C161   H679    1.111   1_554 S
H163   C677    1.111   .     S
O165   C166    1.410   .     S
C166   H168    1.113   .     S
C166   H167    1.116   .     S
C166   C685    1.520   .     S
C169   H170    1.111   .     S
C169   H171    1.111   .     S
C169   H172    1.111   .     S
C169   C682    1.520   1_554 S
C173   C193    1.436   .     S
C173   O215    1.284   .     A
C173   O217    1.285   .     A
C174   O218    1.284   .     A
C174   O216    1.284   .     A
C174   C194    1.435   .     S
C175   O227    1.382   .     S
C175   C177    1.409   .     A
C175   C183    1.416   .     A
C176   O235    1.386   .     S
C176   C184    1.413   .     A
C176   C178    1.417   .     A
C177   H209    1.082   .     S
C177   N213    1.362   .     A
C178   H210    1.079   .     S
C178   N214    1.363   .     A
C179   C181    1.417   .     A
C179   N213    1.361   .     A
C179   H211    1.081   .     S
C180   N214    1.363   .     A
C180   C182    1.411   .     A
C180   H212    1.081   .     S
C181   C183    1.413   .     A
C181   O243    1.386   .     S
C182   C184    1.412   .     A
C182   O251    1.381   .     S
C183   C700    1.511   1_554 S
C184   C699    1.511   .     S
C185   O219    1.274   .     A
C185   O221    1.279   .     A
C185   C187    1.404   .     S
C186   C188    1.404   .     S
C186   O220    1.274   .     A
C186   O222    1.279   .     A
C188   C15     1.332   1_655 S
C188   H30     1.088   1_655 S
C189   C199    1.403   .     A
C189   I225    2.124   .     S
C189   C191    1.384   .     A
C190   C192    1.384   .     A
C190   C200    1.403   .     A
C190   I226    2.124   .     S
C191   H203    1.084   .     S
C191   C193    1.400   .     A
C192   C194    1.400   .     A
C192   H204    1.084   .     S
C193   C195    1.396   .     A
C194   C196    1.396   .     A
C195   H205    1.084   .     S
C195   C197    1.380   .     A
C196   H206    1.084   .     S
C196   C198    1.380   .     A
C197   H207    1.084   .     S
C197   C199    1.399   .     A
C198   H208    1.084   .     S
C198   C200    1.399   .     A
C199   C458    1.439   1_545 S
C200   C457    1.439   .     S
H201   C15     1.088   1_655 S
N213   Zn224   2.002   .     S
N214   Zn223   2.002   .     S
O215   Zn223   1.987   .     S
O216   Zn224   1.987   .     S
O217   Zn224   1.987   .     S
O218   Zn223   1.987   .     S
O219   Zn223   1.968   .     S
O220   Zn224   1.968   .     S
O221   Zn224   1.984   .     S
O222   Zn223   1.984   .     S
O227   C744    1.412   1_554 S
C228   H229    1.114   .     S
C228   C231    1.520   .     S
C228   O743    1.412   .     S
C228   H746    1.111   .     S
H230   C744    1.111   1_554 S
C231   H232    1.110   .     S
C231   H234    1.111   .     S
H233   C59     1.111   1_655 S
O235   C236    1.412   .     S
C236   C239    1.521   .     S
C236   H238    1.112   .     S
C236   H237    1.114   .     S
C239   H240    1.111   .     S
C239   H241    1.111   .     S
C239   H758    1.110   .     S
H242   C755    1.110   1_554 S
O243   C244    1.413   .     S
C244   C247    1.519   .     S
C244   H246    1.112   .     S
C244   H245    1.116   .     S
C247   H250    1.111   .     S
C247   H76     1.111   1_655 S
C247   H765    1.111   1_554 S
H249   C763    1.111   .     S
O251   C252    1.410   .     S
C252   H254    1.113   .     S
C252   H253    1.116   .     S
C252   C771    1.520   .     S
C255   H256    1.111   .     S
C255   H257    1.111   .     S
C255   H258    1.111   .     S
C255   C768    1.520   1_554 S
C259   C279    1.436   .     S
C259   O301    1.284   .     A
C259   O303    1.285   .     A
C260   O304    1.284   .     A
C260   O302    1.284   .     A
C260   C280    1.435   .     S
C261   O313    1.382   .     S
C261   C263    1.409   .     A
C261   C269    1.416   .     A
C262   O321    1.386   .     S
C262   C270    1.413   .     A
C262   C264    1.417   .     A
C263   H295    1.082   .     S
C263   N299    1.362   .     A
C264   H296    1.079   .     S
C264   N300    1.363   .     A
C265   C267    1.417   .     A
C265   N299    1.361   .     A
C265   H297    1.081   .     S
C266   N300    1.363   .     A
C266   C268    1.411   .     A
C266   H298    1.081   .     S
C267   C269    1.413   .     A
C267   O329    1.386   .     S
C268   C270    1.412   .     A
C268   O337    1.381   .     S
C269   C786    1.511   1_554 S
C270   C785    1.511   .     S
C271   O305    1.274   .     A
C271   O307    1.279   .     A
C271   C273    1.404   .     S
C272   C274    1.404   .     S
C272   O306    1.274   .     A
C272   O308    1.279   .     A
C273   C446    1.332   1_455 S
C273   H459    1.088   1_455 S
C274   C359    1.332   .     S
C274   H374    1.088   .     S
C275   C285    1.403   .     A
C275   I311    2.124   .     S
C275   C277    1.384   .     A
C276   C278    1.384   .     A
C276   C286    1.403   .     A
C276   I312    2.124   .     S
C277   H289    1.084   .     S
C277   C279    1.400   .     A
C278   C280    1.400   .     A
C278   H290    1.084   .     S
C279   C281    1.396   .     A
C280   C282    1.396   .     A
C281   H291    1.084   .     S
C281   C283    1.380   .     A
C282   H292    1.084   .     S
C282   C284    1.380   .     A
C283   H293    1.084   .     S
C283   C285    1.399   .     A
C284   H294    1.084   .     S
C284   C286    1.399   .     A
C286   C27     1.439   1_565 S
H287   C359    1.088   .     S
H288   C446    1.088   1_455 S
N299   Zn310   2.002   .     S
N300   Zn309   2.002   .     S
O301   Zn309   1.987   .     S
O302   Zn310   1.987   .     S
O303   Zn310   1.987   .     S
O304   Zn309   1.987   .     S
O305   Zn309   1.968   .     S
O306   Zn310   1.968   .     S
O307   Zn310   1.984   .     S
O308   Zn309   1.984   .     S
O313   C830    1.412   1_554 S
C314   H315    1.114   .     S
C314   C317    1.520   .     S
C314   O829    1.412   .     S
C314   H832    1.111   .     S
H316   C830    1.111   1_554 S
C317   H318    1.110   .     S
C317   H320    1.111   .     S
C317   H491    1.111   1_455 S
H319   C403    1.111   .     S
O321   C322    1.412   .     S
C322   C325    1.521   .     S
C322   H324    1.112   .     S
C322   H323    1.114   .     S
C325   H326    1.111   .     S
C325   H327    1.111   .     S
C325   H844    1.110   .     S
H328   C841    1.110   1_554 S
O329   C330    1.413   .     S
C330   C333    1.519   .     S
C330   H332    1.112   .     S
C330   H331    1.116   .     S
C333   H336    1.111   .     S
C333   H420    1.111   .     S
C333   H851    1.111   1_554 S
H334   C505    1.111   1_455 S
H335   C849    1.111   .     S
O337   C338    1.410   .     S
C338   H340    1.113   .     S
C338   H339    1.116   .     S
C338   C857    1.520   .     S
C341   H342    1.111   .     S
C341   H343    1.111   .     S
C341   H344    1.111   .     S
C341   C854    1.520   1_554 S
C345   C365    1.436   .     S
C345   O387    1.284   .     A
C345   O389    1.285   .     A
C346   O390    1.284   .     A
C346   O388    1.284   .     A
C346   C366    1.435   .     S
C347   O399    1.382   .     S
C347   C349    1.409   .     A
C347   C355    1.416   .     A
C348   O407    1.386   .     S
C348   C356    1.413   .     A
C348   C350    1.417   .     A
C349   H381    1.082   .     S
C349   N385    1.362   .     A
C350   H382    1.079   .     S
C350   N386    1.363   .     A
C351   C353    1.417   .     A
C351   N385    1.361   .     A
C351   H383    1.081   .     S
C352   N386    1.363   .     A
C352   C354    1.411   .     A
C352   H384    1.081   .     S
C353   C355    1.413   .     A
C353   O415    1.386   .     S
C354   C356    1.412   .     A
C354   O423    1.381   .     S
C355   C872    1.511   1_554 S
C356   C871    1.511   .     S
C357   O391    1.274   .     A
C357   O393    1.279   .     A
C357   C359    1.404   .     S
C358   C360    1.404   .     S
C358   O392    1.274   .     A
C358   O394    1.279   .     A
C360   C445    1.332   .     S
C360   H460    1.088   .     S
C361   C371    1.403   .     A
C361   I397    2.124   .     S
C361   C363    1.384   .     A
C362   C364    1.384   .     A
C362   C372    1.403   .     A
C362   I398    2.124   .     S
C363   H375    1.084   .     S
C363   C365    1.400   .     A
C364   C366    1.400   .     A
C364   H376    1.084   .     S
C365   C367    1.396   .     A
C366   C368    1.396   .     A
C367   H377    1.084   .     S
C367   C369    1.380   .     A
C368   H378    1.084   .     S
C368   C370    1.380   .     A
C369   H379    1.084   .     S
C369   C371    1.399   .     A
C370   H380    1.084   .     S
C370   C372    1.399   .     A
C372   C113    1.439   1_565 S
H373   C445    1.088   .     S
N385   Zn396   2.002   .     S
N386   Zn395   2.002   .     S
O387   Zn395   1.987   .     S
O388   Zn396   1.987   .     S
O389   Zn396   1.987   .     S
O390   Zn395   1.987   .     S
O391   Zn395   1.968   .     S
O392   Zn396   1.968   .     S
O393   Zn396   1.984   .     S
O394   Zn395   1.984   .     S
O399   C916    1.412   1_554 S
C400   H401    1.114   .     S
C400   C403    1.520   .     S
C400   O915    1.412   .     S
C400   H918    1.111   .     S
H402   C916    1.111   1_554 S
C403   H404    1.110   .     S
C403   H406    1.111   .     S
H405   C489    1.111   .     S
O407   C408    1.412   .     S
C408   C411    1.521   .     S
C408   H410    1.112   .     S
C408   H409    1.114   .     S
C411   H412    1.111   .     S
C411   H413    1.111   .     S
C411   H930    1.110   .     S
H414   C927    1.110   1_554 S
O415   C416    1.413   .     S
C416   C419    1.519   .     S
C416   H418    1.112   .     S
C416   H417    1.116   .     S
C419   H422    1.111   .     S
C419   H506    1.111   .     S
C419   H937    1.111   1_554 S
H421   C935    1.111   .     S
O423   C424    1.410   .     S
C424   H426    1.113   .     S
C424   H425    1.116   .     S
C424   C943    1.520   .     S
C427   H428    1.111   .     S
C427   H429    1.111   .     S
C427   H430    1.111   .     S
C427   C940    1.520   1_554 S
C431   C451    1.436   .     S
C431   O473    1.284   .     A
C431   O475    1.285   .     A
C432   O476    1.284   .     A
C432   O474    1.284   .     A
C432   C452    1.435   .     S
C433   O485    1.382   .     S
C433   C435    1.409   .     A
C433   C441    1.416   .     A
C434   O493    1.386   .     S
C434   C442    1.413   .     A
C434   C436    1.417   .     A
C435   H467    1.082   .     S
C435   N471    1.362   .     A
C436   H468    1.079   .     S
C436   N472    1.363   .     A
C437   C439    1.417   .     A
C437   N471    1.361   .     A
C437   H469    1.081   .     S
C438   N472    1.363   .     A
C438   C440    1.411   .     A
C438   H470    1.081   .     S
C439   C441    1.413   .     A
C439   O501    1.386   .     S
C440   C442    1.412   .     A
C440   O509    1.381   .     S
C441   C958    1.511   1_554 S
C442   C957    1.511   .     S
C443   O477    1.274   .     A
C443   O479    1.279   .     A
C443   C445    1.404   .     S
C444   C446    1.404   .     S
C444   O478    1.274   .     A
C444   O480    1.279   .     A
C446   C273    1.332   1_655 S
C446   H288    1.088   1_655 S
C447   C457    1.403   .     A
C447   I483    2.124   .     S
C447   C449    1.384   .     A
C448   C450    1.384   .     A
C448   C458    1.403   .     A
C448   I484    2.124   .     S
C449   H461    1.084   .     S
C449   C451    1.400   .     A
C450   C452    1.400   .     A
C450   H462    1.084   .     S
C451   C453    1.396   .     A
C452   C454    1.396   .     A
C453   H463    1.084   .     S
C453   C455    1.380   .     A
C454   H464    1.084   .     S
C454   C456    1.380   .     A
C455   H465    1.084   .     S
C455   C457    1.399   .     A
C456   H466    1.084   .     S
C456   C458    1.399   .     A
C458   C199    1.439   1_565 S
H459   C273    1.088   1_655 S
N471   Zn482   2.002   .     S
N472   Zn481   2.002   .     S
O473   Zn481   1.987   .     S
O474   Zn482   1.987   .     S
O475   Zn482   1.987   .     S
O476   Zn481   1.987   .     S
O477   Zn481   1.968   .     S
O478   Zn482   1.968   .     S
O479   Zn482   1.984   .     S
O480   Zn481   1.984   .     S
O485   C1002   1.412   1_554 S
C486   H487    1.114   .     S
C486   C489    1.520   .     S
C486   O1001   1.412   .     S
C486   H1004   1.111   .     S
H488   C1002   1.111   1_554 S
C489   H490    1.110   .     S
C489   H492    1.111   .     S
H491   C317    1.111   1_655 S
O493   C494    1.412   .     S
C494   C497    1.521   .     S
C494   H496    1.112   .     S
C494   H495    1.114   .     S
C497   H498    1.111   .     S
C497   H499    1.111   .     S
C497   H1016   1.110   .     S
H500   C1013   1.110   1_554 S
O501   C502    1.413   .     S
C502   C505    1.519   .     S
C502   H504    1.112   .     S
C502   H503    1.116   .     S
C505   H508    1.111   .     S
C505   H334    1.111   1_655 S
C505   H1023   1.111   1_554 S
H507   C1021   1.111   .     S
O509   C510    1.410   .     S
C510   H512    1.113   .     S
C510   H511    1.116   .     S
C510   C1029   1.520   .     S
C513   H514    1.111   .     S
C513   H515    1.111   .     S
C513   H516    1.111   .     S
C513   C1026   1.520   1_554 S
C517   C537    1.436   .     S
C517   O559    1.284   .     A
C517   O561    1.285   .     A
C518   O562    1.284   .     A
C518   O560    1.284   .     A
C518   C538    1.435   .     S
C519   O571    1.382   .     S
C519   C521    1.409   .     A
C519   C527    1.416   .     A
C520   O579    1.386   .     S
C520   C528    1.413   .     A
C520   C522    1.417   .     A
C521   H553    1.082   .     S
C521   N557    1.362   .     A
C522   H554    1.079   .     S
C522   N558    1.363   .     A
C523   C525    1.417   .     A
C523   N557    1.361   .     A
C523   H555    1.081   .     S
C524   N558    1.363   .     A
C524   C526    1.411   .     A
C524   H556    1.081   .     S
C525   C527    1.413   .     A
C525   O587    1.386   .     S
C526   C528    1.412   .     A
C526   O595    1.381   .     S
C528   C11     1.511   1_556 S
C529   O563    1.274   .     A
C529   O565    1.279   .     A
C529   C531    1.404   .     S
C530   C532    1.404   .     S
C530   O564    1.274   .     A
C530   O566    1.279   .     A
C531   C704    1.332   1_455 S
C531   H717    1.088   1_455 S
C532   C617    1.332   .     S
C532   H632    1.088   .     S
C533   C543    1.403   .     A
C533   I569    2.124   .     S
C533   C535    1.384   .     A
C534   C536    1.384   .     A
C534   C544    1.403   .     A
C534   I570    2.124   .     S
C535   H547    1.084   .     S
C535   C537    1.400   .     A
C536   C538    1.400   .     A
C536   H548    1.084   .     S
C537   C539    1.396   .     A
C538   C540    1.396   .     A
C539   H549    1.084   .     S
C539   C541    1.380   .     A
C540   H550    1.084   .     S
C540   C542    1.380   .     A
C541   H551    1.084   .     S
C541   C543    1.399   .     A
C542   H552    1.084   .     S
C542   C544    1.399   .     A
C543   C802    1.439   1_545 S
C544   C801    1.439   .     S
H545   C617    1.088   .     S
H546   C704    1.088   1_455 S
N557   Zn568   2.002   .     S
N558   Zn567   2.002   .     S
O559   Zn567   1.987   .     S
O560   Zn568   1.987   .     S
O561   Zn568   1.987   .     S
O562   Zn567   1.987   .     S
O563   Zn567   1.968   .     S
O564   Zn568   1.968   .     S
O565   Zn568   1.984   .     S
O566   Zn567   1.984   .     S
C572   H573    1.114   .     S
C572   C575    1.520   .     S
C572   O55     1.412   1_556 S
C572   H58     1.111   1_556 S
C575   H576    1.110   .     S
C575   H578    1.111   .     S
C575   H749    1.111   1_455 S
H577   C661    1.111   .     S
O579   C580    1.412   .     S
C580   C583    1.521   .     S
C580   H582    1.112   .     S
C580   H581    1.114   .     S
C583   H584    1.111   .     S
C583   H585    1.111   .     S
C583   H70     1.110   1_556 S
O587   C588    1.413   .     S
C588   C591    1.519   .     S
C588   H590    1.112   .     S
C588   H589    1.116   .     S
C591   H594    1.111   .     S
C591   H678    1.111   .     S
H592   C763    1.111   1_455 S
H593   C75     1.111   1_556 S
O595   C596    1.410   .     S
C596   H598    1.113   .     S
C596   H597    1.116   .     S
C596   C83     1.520   1_556 S
C599   H600    1.111   .     S
C599   H601    1.111   .     S
C599   H602    1.111   .     S
C603   C623    1.436   .     S
C603   O645    1.284   .     A
C603   O647    1.285   .     A
C604   O648    1.284   .     A
C604   O646    1.284   .     A
C604   C624    1.435   .     S
C605   O657    1.382   .     S
C605   C607    1.409   .     A
C605   C613    1.416   .     A
C606   O665    1.386   .     S
C606   C614    1.413   .     A
C606   C608    1.417   .     A
C607   H639    1.082   .     S
C607   N643    1.362   .     A
C608   H640    1.079   .     S
C608   N644    1.363   .     A
C609   C611    1.417   .     A
C609   N643    1.361   .     A
C609   H641    1.081   .     S
C610   N644    1.363   .     A
C610   C612    1.411   .     A
C610   H642    1.081   .     S
C611   C613    1.413   .     A
C611   O673    1.386   .     S
C612   C614    1.412   .     A
C612   O681    1.381   .     S
C614   C97     1.511   1_556 S
C615   O649    1.274   .     A
C615   O651    1.279   .     A
C615   C617    1.404   .     S
C616   C618    1.404   .     S
C616   O650    1.274   .     A
C616   O652    1.279   .     A
C618   C703    1.332   .     S
C618   H718    1.088   .     S
C619   C629    1.403   .     A
C619   I655    2.124   .     S
C619   C621    1.384   .     A
C620   C622    1.384   .     A
C620   C630    1.403   .     A
C620   I656    2.124   .     S
C621   H633    1.084   .     S
C621   C623    1.400   .     A
C622   C624    1.400   .     A
C622   H634    1.084   .     S
C623   C625    1.396   .     A
C624   C626    1.396   .     A
C625   H635    1.084   .     S
C625   C627    1.380   .     A
C626   H636    1.084   .     S
C626   C628    1.380   .     A
C627   H637    1.084   .     S
C627   C629    1.399   .     A
C628   H638    1.084   .     S
C628   C630    1.399   .     A
C629   C888    1.439   1_545 S
C630   C887    1.439   .     S
H631   C703    1.088   .     S
N643   Zn654   2.002   .     S
N644   Zn653   2.002   .     S
O645   Zn653   1.987   .     S
O646   Zn654   1.987   .     S
O647   Zn654   1.987   .     S
O648   Zn653   1.987   .     S
O649   Zn653   1.968   .     S
O650   Zn654   1.968   .     S
O651   Zn654   1.984   .     S
O652   Zn653   1.984   .     S
C658   H659    1.114   .     S
C658   C661    1.520   .     S
C658   O141    1.412   1_556 S
C658   H144    1.111   1_556 S
C661   H662    1.110   .     S
C661   H664    1.111   .     S
H663   C747    1.111   .     S
O665   C666    1.412   .     S
C666   C669    1.521   .     S
C666   H668    1.112   .     S
C666   H667    1.114   .     S
C669   H670    1.111   .     S
C669   H671    1.111   .     S
C669   H156    1.110   1_556 S
O673   C674    1.413   .     S
C674   C677    1.519   .     S
C674   H676    1.112   .     S
C674   H675    1.116   .     S
C677   H680    1.111   .     S
C677   H764    1.111   .     S
H679   C161    1.111   1_556 S
O681   C682    1.410   .     S
C682   H684    1.113   .     S
C682   H683    1.116   .     S
C682   C169    1.520   1_556 S
C685   H686    1.111   .     S
C685   H687    1.111   .     S
C685   H688    1.111   .     S
C689   C709    1.436   .     S
C689   O731    1.284   .     A
C689   O733    1.285   .     A
C690   O734    1.284   .     A
C690   O732    1.284   .     A
C690   C710    1.435   .     S
C691   O743    1.382   .     S
C691   C693    1.409   .     A
C691   C699    1.416   .     A
C692   O751    1.386   .     S
C692   C700    1.413   .     A
C692   C694    1.417   .     A
C693   H725    1.082   .     S
C693   N729    1.362   .     A
C694   H726    1.079   .     S
C694   N730    1.363   .     A
C695   C697    1.417   .     A
C695   N729    1.361   .     A
C695   H727    1.081   .     S
C696   N730    1.363   .     A
C696   C698    1.411   .     A
C696   H728    1.081   .     S
C697   C699    1.413   .     A
C697   O759    1.386   .     S
C698   C700    1.412   .     A
C698   O767    1.381   .     S
C700   C183    1.511   1_556 S
C701   O735    1.274   .     A
C701   O737    1.279   .     A
C701   C703    1.404   .     S
C702   C704    1.404   .     S
C702   O736    1.274   .     A
C702   O738    1.279   .     A
C704   C531    1.332   1_655 S
C704   H546    1.088   1_655 S
C705   C715    1.403   .     A
C705   I741    2.124   .     S
C705   C707    1.384   .     A
C706   C708    1.384   .     A
C706   C716    1.403   .     A
C706   I742    2.124   .     S
C707   H719    1.084   .     S
C707   C709    1.400   .     A
C708   C710    1.400   .     A
C708   H720    1.084   .     S
C709   C711    1.396   .     A
C710   C712    1.396   .     A
C711   H721    1.084   .     S
C711   C713    1.380   .     A
C712   H722    1.084   .     S
C712   C714    1.380   .     A
C713   H723    1.084   .     S
C713   C715    1.399   .     A
C714   H724    1.084   .     S
C714   C716    1.399   .     A
C715   C974    1.439   1_545 S
C716   C973    1.439   .     S
H717   C531    1.088   1_655 S
N729   Zn740   2.002   .     S
N730   Zn739   2.002   .     S
O731   Zn739   1.987   .     S
O732   Zn740   1.987   .     S
O733   Zn740   1.987   .     S
O734   Zn739   1.987   .     S
O735   Zn739   1.968   .     S
O736   Zn740   1.968   .     S
O737   Zn740   1.984   .     S
O738   Zn739   1.984   .     S
C744   H745    1.114   .     S
C744   C747    1.520   .     S
C744   O227    1.412   1_556 S
C744   H230    1.111   1_556 S
C747   H748    1.110   .     S
C747   H750    1.111   .     S
H749   C575    1.111   1_655 S
O751   C752    1.412   .     S
C752   C755    1.521   .     S
C752   H754    1.112   .     S
C752   H753    1.114   .     S
C755   H756    1.111   .     S
C755   H757    1.111   .     S
C755   H242    1.110   1_556 S
O759   C760    1.413   .     S
C760   C763    1.519   .     S
C760   H762    1.112   .     S
C760   H761    1.116   .     S
C763   H766    1.111   .     S
C763   H592    1.111   1_655 S
H765   C247    1.111   1_556 S
O767   C768    1.410   .     S
C768   H770    1.113   .     S
C768   H769    1.116   .     S
C768   C255    1.520   1_556 S
C771   H772    1.111   .     S
C771   H773    1.111   .     S
C771   H774    1.111   .     S
C775   C795    1.436   .     S
C775   O817    1.284   .     A
C775   O819    1.285   .     A
C776   O820    1.284   .     A
C776   O818    1.284   .     A
C776   C796    1.435   .     S
C777   O829    1.382   .     S
C777   C779    1.409   .     A
C777   C785    1.416   .     A
C778   O837    1.386   .     S
C778   C786    1.413   .     A
C778   C780    1.417   .     A
C779   H811    1.082   .     S
C779   N815    1.362   .     A
C780   H812    1.079   .     S
C780   N816    1.363   .     A
C781   C783    1.417   .     A
C781   N815    1.361   .     A
C781   H813    1.081   .     S
C782   N816    1.363   .     A
C782   C784    1.411   .     A
C782   H814    1.081   .     S
C783   C785    1.413   .     A
C783   O845    1.386   .     S
C784   C786    1.412   .     A
C784   O853    1.381   .     S
C786   C269    1.511   1_556 S
C787   O821    1.274   .     A
C787   O823    1.279   .     A
C787   C789    1.404   .     S
C788   C790    1.404   .     S
C788   O822    1.274   .     A
C788   O824    1.279   .     A
C789   C962    1.332   1_455 S
C789   H975    1.088   1_455 S
C790   C875    1.332   .     S
C790   H890    1.088   .     S
C791   C801    1.403   .     A
C791   I827    2.124   .     S
C791   C793    1.384   .     A
C792   C794    1.384   .     A
C792   C802    1.403   .     A
C792   I828    2.124   .     S
C793   H805    1.084   .     S
C793   C795    1.400   .     A
C794   C796    1.400   .     A
C794   H806    1.084   .     S
C795   C797    1.396   .     A
C796   C798    1.396   .     A
C797   H807    1.084   .     S
C797   C799    1.380   .     A
C798   H808    1.084   .     S
C798   C800    1.380   .     A
C799   H809    1.084   .     S
C799   C801    1.399   .     A
C800   H810    1.084   .     S
C800   C802    1.399   .     A
C802   C543    1.439   1_565 S
H803   C875    1.088   .     S
H804   C962    1.088   1_455 S
N815   Zn826   2.002   .     S
N816   Zn825   2.002   .     S
O817   Zn825   1.987   .     S
O818   Zn826   1.987   .     S
O819   Zn826   1.987   .     S
O820   Zn825   1.987   .     S
O821   Zn825   1.968   .     S
O822   Zn826   1.968   .     S
O823   Zn826   1.984   .     S
O824   Zn825   1.984   .     S
C830   H831    1.114   .     S
C830   C833    1.520   .     S
C830   O313    1.412   1_556 S
C830   H316    1.111   1_556 S
C833   H834    1.110   .     S
C833   H836    1.111   .     S
C833   H1007   1.111   1_455 S
H835   C919    1.111   .     S
O837   C838    1.412   .     S
C838   C841    1.521   .     S
C838   H840    1.112   .     S
C838   H839    1.114   .     S
C841   H842    1.111   .     S
C841   H843    1.111   .     S
C841   H328    1.110   1_556 S
O845   C846    1.413   .     S
C846   C849    1.519   .     S
C846   H848    1.112   .     S
C846   H847    1.116   .     S
C849   H852    1.111   .     S
C849   H936    1.111   .     S
H850   C1021   1.111   1_455 S
H851   C333    1.111   1_556 S
O853   C854    1.410   .     S
C854   H856    1.113   .     S
C854   H855    1.116   .     S
C854   C341    1.520   1_556 S
C857   H858    1.111   .     S
C857   H859    1.111   .     S
C857   H860    1.111   .     S
C861   C881    1.436   .     S
C861   O903    1.284   .     A
C861   O905    1.285   .     A
C862   O906    1.284   .     A
C862   O904    1.284   .     A
C862   C882    1.435   .     S
C863   O915    1.382   .     S
C863   C865    1.409   .     A
C863   C871    1.416   .     A
C864   O923    1.386   .     S
C864   C872    1.413   .     A
C864   C866    1.417   .     A
C865   H897    1.082   .     S
C865   N901    1.362   .     A
C866   H898    1.079   .     S
C866   N902    1.363   .     A
C867   C869    1.417   .     A
C867   N901    1.361   .     A
C867   H899    1.081   .     S
C868   N902    1.363   .     A
C868   C870    1.411   .     A
C868   H900    1.081   .     S
C869   C871    1.413   .     A
C869   O931    1.386   .     S
C870   C872    1.412   .     A
C870   O939    1.381   .     S
C872   C355    1.511   1_556 S
C873   O907    1.274   .     A
C873   O909    1.279   .     A
C873   C875    1.404   .     S
C874   C876    1.404   .     S
C874   O908    1.274   .     A
C874   O910    1.279   .     A
C876   C961    1.332   .     S
C876   H976    1.088   .     S
C877   C887    1.403   .     A
C877   I913    2.124   .     S
C877   C879    1.384   .     A
C878   C880    1.384   .     A
C878   C888    1.403   .     A
C878   I914    2.124   .     S
C879   H891    1.084   .     S
C879   C881    1.400   .     A
C880   C882    1.400   .     A
C880   H892    1.084   .     S
C881   C883    1.396   .     A
C882   C884    1.396   .     A
C883   H893    1.084   .     S
C883   C885    1.380   .     A
C884   H894    1.084   .     S
C884   C886    1.380   .     A
C885   H895    1.084   .     S
C885   C887    1.399   .     A
C886   H896    1.084   .     S
C886   C888    1.399   .     A
C888   C629    1.439   1_565 S
H889   C961    1.088   .     S
N901   Zn912   2.002   .     S
N902   Zn911   2.002   .     S
O903   Zn911   1.987   .     S
O904   Zn912   1.987   .     S
O905   Zn912   1.987   .     S
O906   Zn911   1.987   .     S
O907   Zn911   1.968   .     S
O908   Zn912   1.968   .     S
O909   Zn912   1.984   .     S
O910   Zn911   1.984   .     S
C916   H917    1.114   .     S
C916   C919    1.520   .     S
C916   O399    1.412   1_556 S
C916   H402    1.111   1_556 S
C919   H920    1.110   .     S
C919   H922    1.111   .     S
H921   C1005   1.111   .     S
O923   C924    1.412   .     S
C924   C927    1.521   .     S
C924   H926    1.112   .     S
C924   H925    1.114   .     S
C927   H928    1.111   .     S
C927   H929    1.111   .     S
C927   H414    1.110   1_556 S
O931   C932    1.413   .     S
C932   C935    1.519   .     S
C932   H934    1.112   .     S
C932   H933    1.116   .     S
C935   H938    1.111   .     S
C935   H1022   1.111   .     S
H937   C419    1.111   1_556 S
O939   C940    1.410   .     S
C940   H942    1.113   .     S
C940   H941    1.116   .     S
C940   C427    1.520   1_556 S
C943   H944    1.111   .     S
C943   H945    1.111   .     S
C943   H946    1.111   .     S
C947   C967    1.436   .     S
C947   O989    1.284   .     A
C947   O991    1.285   .     A
C948   O992    1.284   .     A
C948   O990    1.284   .     A
C948   C968    1.435   .     S
C949   O1001   1.382   .     S
C949   C951    1.409   .     A
C949   C957    1.416   .     A
C950   O1009   1.386   .     S
C950   C958    1.413   .     A
C950   C952    1.417   .     A
C951   H983    1.082   .     S
C951   N987    1.362   .     A
C952   H984    1.079   .     S
C952   N988    1.363   .     A
C953   C955    1.417   .     A
C953   N987    1.361   .     A
C953   H985    1.081   .     S
C954   N988    1.363   .     A
C954   C956    1.411   .     A
C954   H986    1.081   .     S
C955   C957    1.413   .     A
C955   O1017   1.386   .     S
C956   C958    1.412   .     A
C956   O1025   1.381   .     S
C958   C441    1.511   1_556 S
C959   O993    1.274   .     A
C959   O995    1.279   .     A
C959   C961    1.404   .     S
C960   C962    1.404   .     S
C960   O994    1.274   .     A
C960   O996    1.279   .     A
C962   C789    1.332   1_655 S
C962   H804    1.088   1_655 S
C963   C973    1.403   .     A
C963   I999    2.124   .     S
C963   C965    1.384   .     A
C964   C966    1.384   .     A
C964   C974    1.403   .     A
C964   I1000   2.124   .     S
C965   H977    1.084   .     S
C965   C967    1.400   .     A
C966   C968    1.400   .     A
C966   H978    1.084   .     S
C967   C969    1.396   .     A
C968   C970    1.396   .     A
C969   H979    1.084   .     S
C969   C971    1.380   .     A
C970   H980    1.084   .     S
C970   C972    1.380   .     A
C971   H981    1.084   .     S
C971   C973    1.399   .     A
C972   H982    1.084   .     S
C972   C974    1.399   .     A
C974   C715    1.439   1_565 S
H975   C789    1.088   1_655 S
N987   Zn998   2.002   .     S
N988   Zn997   2.002   .     S
O989   Zn997   1.987   .     S
O990   Zn998   1.987   .     S
O991   Zn998   1.987   .     S
O992   Zn997   1.987   .     S
O993   Zn997   1.968   .     S
O994   Zn998   1.968   .     S
O995   Zn998   1.984   .     S
O996   Zn997   1.984   .     S
C1002  H1003   1.114   .     S
C1002  C1005   1.520   .     S
C1002  O485    1.412   1_556 S
C1002  H488    1.111   1_556 S
C1005  H1006   1.110   .     S
C1005  H1008   1.111   .     S
H1007  C833    1.111   1_655 S
O1009  C1010   1.412   .     S
C1010  C1013   1.521   .     S
C1010  H1012   1.112   .     S
C1010  H1011   1.114   .     S
C1013  H1014   1.111   .     S
C1013  H1015   1.111   .     S
C1013  H500    1.110   1_556 S
O1017  C1018   1.413   .     S
C1018  C1021   1.519   .     S
C1018  H1020   1.112   .     S
C1018  H1019   1.116   .     S
C1021  H1024   1.111   .     S
C1021  H850    1.111   1_655 S
H1023  C505    1.111   1_556 S
O1025  C1026   1.410   .     S
C1026  H1028   1.113   .     S
C1026  H1027   1.116   .     S
C1026  C513    1.520   1_556 S
C1029  H1030   1.111   .     S
C1029  H1031   1.111   .     S
C1029  H1032   1.111   .     S
