data_str_m3_o1_o5_pcu_sym.2
_audit_creation_date              2020-01-03
_audit_creation_method            'Materials Studio'
_symmetry_space_group_name_H-M    'P1'
_symmetry_Int_Tables_number       1
_symmetry_cell_setting            triclinic
loop_
_symmetry_equiv_pos_as_xyz
  x,y,z
_cell_length_a                    32.1642
_cell_length_b                    29.8468
_cell_length_c                    26.7270
_cell_angle_alpha                 88.5505
_cell_angle_beta                  91.7966
_cell_angle_gamma                 91.9323
loop_
_atom_site_label
_atom_site_type_symbol
_atom_site_fract_x
_atom_site_fract_y
_atom_site_fract_z
_atom_site_U_iso_or_equiv
_atom_site_adp_type
_atom_site_occupancy
C1     C     0.08690   0.16597   0.16526   0.00000  Uiso   1.00
C2     C     0.02142   0.18976   0.12782   0.00000  Uiso   1.00
C3     C     0.29135   0.16974   0.16962   0.00000  Uiso   1.00
C4     C     0.04274   0.16453   0.16529   0.00000  Uiso   1.00
C5     C     0.19067   0.02426   0.20073   0.00000  Uiso   1.00
C6     C     0.14245   0.30957   0.13296   0.00000  Uiso   1.00
C7     C     0.13873   0.02396   0.13682   0.00000  Uiso   1.00
C8     C     0.19317   0.30940   0.19843   0.00000  Uiso   1.00
C9     C     0.04766   0.11997   0.24880   0.00000  Uiso   1.00
C10    C     0.05086   0.06946   0.24207   0.00000  Uiso   1.00
C11    C     0.29284   0.23773   0.10777   0.00000  Uiso   1.00
C12    C     0.24670   0.16757   0.16743   0.00000  Uiso   1.00
C13    C     0.26873   0.22508   0.06002   0.00000  Uiso   1.00
C14    C     0.28981   0.12438   0.25240   0.00000  Uiso   1.00
C15    C     0.28648   0.15943   0.29230   0.00000  Uiso   1.00
C16    C     0.04310   0.20658   0.08020   0.00000  Uiso   1.00
C17    C     0.05233   0.16807   0.04653   0.00000  Uiso   1.00
C18    C     0.19265   0.03708   0.28476   0.00000  Uiso   1.00
C19    C     0.21777   0.05997   0.32661   0.00000  Uiso   1.00
C20    C     0.14709   0.29324   0.05109   0.00000  Uiso   1.00
C21    C     0.12369   0.27351   0.00594   0.00000  Uiso   1.00
C22    C     0.08803   0.04747   0.07766   0.00000  Uiso   1.00
C23    C     0.16638   0.16698   0.07297   0.00000  Uiso   1.00
C24    C     0.04197   0.05769   0.07457   0.00000  Uiso   1.00
C25    C     0.26204   0.30470   0.22630   0.00000  Uiso   1.00
C26    C     0.29333   0.27177   0.24738   0.00000  Uiso   1.00
C27    C     0.16667   0.16633   0.26035   0.00000  Uiso   1.00
C28    C     0.16640   0.16707   0.02179   0.00000  Uiso   1.00
C29    C     0.16641   0.16619   0.31152   0.00000  Uiso   1.00
C30    C     0.02268   0.14255   0.20580   0.00000  Uiso   1.00
C31    C     0.31283   0.19743   0.13435   0.00000  Uiso   1.00
C32    C     0.31254   0.14393   0.20700   0.00000  Uiso   1.00
H33    H     0.01993   0.05311   0.23429   0.00000  Uiso   1.00
H34    H     0.31623   0.26481   0.09936   0.00000  Uiso   1.00
H35    H     0.27959   0.14275   0.32882   0.00000  Uiso   1.00
H36    H     0.31607   0.17939   0.29665   0.00000  Uiso   1.00
H37    H     0.26092   0.18227   0.28193   0.00000  Uiso   1.00
H38    H     0.25834   0.11167   0.24296   0.00000  Uiso   1.00
H39    H     0.30490   0.09450   0.26894   0.00000  Uiso   1.00
H40    H     0.07679   0.14715   0.06403   0.00000  Uiso   1.00
H41    H     0.02348   0.14754   0.03928   0.00000  Uiso   1.00
H42    H     0.06360   0.18135   0.01009   0.00000  Uiso   1.00
H43    H     0.02479   0.22997   0.05661   0.00000  Uiso   1.00
H44    H     0.07115   0.06270   0.21076   0.00000  Uiso   1.00
H45    H     0.07209   0.22551   0.08943   0.00000  Uiso   1.00
H46    H     0.19272   0.00054   0.29344   0.00000  Uiso   1.00
H47    H     0.16005   0.04852   0.28479   0.00000  Uiso   1.00
H48    H     0.21872   0.09663   0.31989   0.00000  Uiso   1.00
H49    H     0.20338   0.05278   0.02990   0.00000  Uiso   1.00
H50    H     0.25007   0.04786   0.32826   0.00000  Uiso   1.00
H51    H     0.17750   0.27701   0.05632   0.00000  Uiso   1.00
H52    H     0.15405   0.32921   0.04228   0.00000  Uiso   1.00
H53    H     0.09512   0.29234   0.33032   0.00000  Uiso   1.00
H54    H     0.14369   0.27498   0.30619   0.00000  Uiso   1.00
H55    H     0.06471   0.05397   0.27667   0.00000  Uiso   1.00
H56    H     0.11467   0.23810   0.01393   0.00000  Uiso   1.00
H57    H     0.09041   0.01683   0.05638   0.00000  Uiso   1.00
H58    H     0.10658   0.07511   0.05968   0.00000  Uiso   1.00
H59    H     0.03540   0.08571   0.09931   0.00000  Uiso   1.00
H60    H     0.03246   0.06643   0.03532   0.00000  Uiso   1.00
H61    H     0.02324   0.02775   0.08707   0.00000  Uiso   1.00
H62    H     0.26614   0.00107   0.25009   0.00000  Uiso   1.00
H63    H     0.27027   0.31429   0.18721   0.00000  Uiso   1.00
H64    H     0.29136   0.24069   0.22598   0.00000  Uiso   1.00
H65    H     0.32535   0.28663   0.24488   0.00000  Uiso   1.00
H66    H     0.07937   0.13520   0.25363   0.00000  Uiso   1.00
H67    H     0.28698   0.26383   0.28722   0.00000  Uiso   1.00
H68    H     0.03385   0.12574   0.28530   0.00000  Uiso   1.00
H69    H     0.29080   0.21969   0.03023   0.00000  Uiso   1.00
H70    H     0.24942   0.19408   0.06579   0.00000  Uiso   1.00
H71    H     0.24845   0.25281   0.04754   0.00000  Uiso   1.00
H72    H     0.27274   0.25550   0.13271   0.00000  Uiso   1.00
N73    N     0.16667   0.28573   0.16667   0.00000  Uiso   1.00
N74    N     0.16667   0.04760   0.16667   0.00000  Uiso   1.00
O75    O     0.10559   0.20487   0.16666   0.00000  Uiso   1.00
O76    O     0.12257   0.28718   0.09418   0.00000  Uiso   1.00
O77    O     0.10001   0.04241   0.12855   0.00000  Uiso   1.00
O78    O     0.22107   0.28555   0.22887   0.00000  Uiso   1.00
O79    O     0.22774   0.12846   0.16667   0.00000  Uiso   1.00
O80    O     0.22774   0.20487   0.16667   0.00000  Uiso   1.00
O81    O     0.10559   0.12846   0.16666   0.00000  Uiso   1.00
O82    O     0.16667   0.20488   0.09511   0.00000  Uiso   1.00
O83    O     0.16666   0.12845   0.23822   0.00000  Uiso   1.00
O84    O     0.16666   0.20488   0.23822   0.00000  Uiso   1.00
O85    O     0.16667   0.12845   0.09511   0.00000  Uiso   1.00
O86    O     0.21099   0.04800   0.23836   0.00000  Uiso   1.00
Zn87   Zn    0.16667   0.21771   0.16667   0.00000  Uiso   1.00
Zn88   Zn    0.16667   0.11563   0.16667   0.00000  Uiso   1.00
C89    C     0.42024   0.16597   0.16526   0.00000  Uiso   1.00
C90    C     0.35476   0.18976   0.12782   0.00000  Uiso   1.00
C91    C     0.62468   0.16974   0.16962   0.00000  Uiso   1.00
C92    C     0.37607   0.16453   0.16529   0.00000  Uiso   1.00
C93    C     0.52400   0.02426   0.20073   0.00000  Uiso   1.00
C94    C     0.47578   0.30957   0.13296   0.00000  Uiso   1.00
C95    C     0.47207   0.02396   0.13682   0.00000  Uiso   1.00
C96    C     0.52650   0.30940   0.19843   0.00000  Uiso   1.00
C97    C     0.38099   0.11997   0.24880   0.00000  Uiso   1.00
C98    C     0.38419   0.06946   0.24207   0.00000  Uiso   1.00
C99    C     0.62617   0.23773   0.10777   0.00000  Uiso   1.00
C100   C     0.58004   0.16757   0.16743   0.00000  Uiso   1.00
C101   C     0.60207   0.22508   0.06002   0.00000  Uiso   1.00
C102   C     0.62314   0.12438   0.25240   0.00000  Uiso   1.00
C103   C     0.61982   0.15943   0.29230   0.00000  Uiso   1.00
C104   C     0.37643   0.20658   0.08020   0.00000  Uiso   1.00
C105   C     0.38567   0.16807   0.04653   0.00000  Uiso   1.00
C106   C     0.52598   0.03708   0.28476   0.00000  Uiso   1.00
C107   C     0.55110   0.05997   0.32661   0.00000  Uiso   1.00
C108   C     0.48042   0.29324   0.05109   0.00000  Uiso   1.00
C109   C     0.45702   0.27351   0.00594   0.00000  Uiso   1.00
C110   C     0.42137   0.04747   0.07766   0.00000  Uiso   1.00
C111   C     0.49971   0.16698   0.07297   0.00000  Uiso   1.00
C112   C     0.37530   0.05769   0.07457   0.00000  Uiso   1.00
C113   C     0.59537   0.30470   0.22630   0.00000  Uiso   1.00
C114   C     0.62667   0.27177   0.24738   0.00000  Uiso   1.00
C115   C     0.50001   0.16633   0.26035   0.00000  Uiso   1.00
C116   C     0.49973   0.16707   0.02179   0.00000  Uiso   1.00
C117   C     0.49975   0.16619   0.31152   0.00000  Uiso   1.00
C118   C     0.35601   0.14255   0.20580   0.00000  Uiso   1.00
C119   C     0.64616   0.19743   0.13435   0.00000  Uiso   1.00
C120   C     0.64588   0.14393   0.20700   0.00000  Uiso   1.00
H121   H     0.35326   0.05311   0.23429   0.00000  Uiso   1.00
H122   H     0.64956   0.26481   0.09936   0.00000  Uiso   1.00
H123   H     0.61292   0.14275   0.32882   0.00000  Uiso   1.00
H124   H     0.64940   0.17939   0.29665   0.00000  Uiso   1.00
H125   H     0.59425   0.18227   0.28193   0.00000  Uiso   1.00
H126   H     0.59167   0.11167   0.24296   0.00000  Uiso   1.00
H127   H     0.63823   0.09450   0.26894   0.00000  Uiso   1.00
H128   H     0.41013   0.14715   0.06403   0.00000  Uiso   1.00
H129   H     0.35682   0.14754   0.03928   0.00000  Uiso   1.00
H130   H     0.39693   0.18135   0.01009   0.00000  Uiso   1.00
H131   H     0.35812   0.22997   0.05661   0.00000  Uiso   1.00
H132   H     0.40448   0.06270   0.21076   0.00000  Uiso   1.00
H133   H     0.40542   0.22551   0.08943   0.00000  Uiso   1.00
H134   H     0.52605   0.00054   0.29344   0.00000  Uiso   1.00
H135   H     0.49338   0.04852   0.28479   0.00000  Uiso   1.00
H136   H     0.55206   0.09663   0.31989   0.00000  Uiso   1.00
H137   H     0.53671   0.05278   0.02990   0.00000  Uiso   1.00
H138   H     0.58340   0.04786   0.32826   0.00000  Uiso   1.00
H139   H     0.51083   0.27701   0.05632   0.00000  Uiso   1.00
H140   H     0.48739   0.32921   0.04228   0.00000  Uiso   1.00
H141   H     0.42846   0.29234   0.33032   0.00000  Uiso   1.00
H142   H     0.47703   0.27498   0.30619   0.00000  Uiso   1.00
H143   H     0.39804   0.05397   0.27667   0.00000  Uiso   1.00
H144   H     0.44800   0.23810   0.01393   0.00000  Uiso   1.00
H145   H     0.42374   0.01683   0.05638   0.00000  Uiso   1.00
H146   H     0.43991   0.07511   0.05968   0.00000  Uiso   1.00
H147   H     0.36873   0.08571   0.09931   0.00000  Uiso   1.00
H148   H     0.36579   0.06643   0.03532   0.00000  Uiso   1.00
H149   H     0.35657   0.02775   0.08707   0.00000  Uiso   1.00
H150   H     0.59947   0.00107   0.25009   0.00000  Uiso   1.00
H151   H     0.60360   0.31429   0.18721   0.00000  Uiso   1.00
H152   H     0.62469   0.24069   0.22598   0.00000  Uiso   1.00
H153   H     0.65868   0.28663   0.24488   0.00000  Uiso   1.00
H154   H     0.41270   0.13520   0.25363   0.00000  Uiso   1.00
H155   H     0.62031   0.26383   0.28722   0.00000  Uiso   1.00
H156   H     0.36718   0.12574   0.28530   0.00000  Uiso   1.00
H157   H     0.62413   0.21969   0.03023   0.00000  Uiso   1.00
H158   H     0.58275   0.19408   0.06579   0.00000  Uiso   1.00
H159   H     0.58178   0.25281   0.04754   0.00000  Uiso   1.00
H160   H     0.60607   0.25550   0.13271   0.00000  Uiso   1.00
N161   N     0.50000   0.28573   0.16667   0.00000  Uiso   1.00
N162   N     0.50000   0.04760   0.16667   0.00000  Uiso   1.00
O163   O     0.43892   0.20487   0.16666   0.00000  Uiso   1.00
O164   O     0.45590   0.28718   0.09418   0.00000  Uiso   1.00
O165   O     0.43334   0.04241   0.12855   0.00000  Uiso   1.00
O166   O     0.55441   0.28555   0.22887   0.00000  Uiso   1.00
O167   O     0.56108   0.12846   0.16667   0.00000  Uiso   1.00
O168   O     0.56108   0.20487   0.16667   0.00000  Uiso   1.00
O169   O     0.43892   0.12846   0.16666   0.00000  Uiso   1.00
O170   O     0.50000   0.20488   0.09511   0.00000  Uiso   1.00
O171   O     0.50000   0.12845   0.23822   0.00000  Uiso   1.00
O172   O     0.50000   0.20488   0.23822   0.00000  Uiso   1.00
O173   O     0.50000   0.12845   0.09511   0.00000  Uiso   1.00
O174   O     0.54432   0.04800   0.23836   0.00000  Uiso   1.00
Zn175  Zn    0.50000   0.21771   0.16667   0.00000  Uiso   1.00
Zn176  Zn    0.50000   0.11563   0.16667   0.00000  Uiso   1.00
C177   C     0.75357   0.16597   0.16526   0.00000  Uiso   1.00
C178   C     0.68809   0.18976   0.12782   0.00000  Uiso   1.00
C179   C     0.95802   0.16974   0.16962   0.00000  Uiso   1.00
C180   C     0.70941   0.16453   0.16529   0.00000  Uiso   1.00
C181   C     0.85734   0.02426   0.20073   0.00000  Uiso   1.00
C182   C     0.80912   0.30957   0.13296   0.00000  Uiso   1.00
C183   C     0.80540   0.02396   0.13682   0.00000  Uiso   1.00
C184   C     0.85984   0.30940   0.19843   0.00000  Uiso   1.00
C185   C     0.71433   0.11997   0.24880   0.00000  Uiso   1.00
C186   C     0.71752   0.06946   0.24207   0.00000  Uiso   1.00
C187   C     0.95951   0.23773   0.10777   0.00000  Uiso   1.00
C188   C     0.91337   0.16757   0.16743   0.00000  Uiso   1.00
C189   C     0.93540   0.22508   0.06002   0.00000  Uiso   1.00
C190   C     0.95647   0.12438   0.25240   0.00000  Uiso   1.00
C191   C     0.95315   0.15943   0.29230   0.00000  Uiso   1.00
C192   C     0.70976   0.20658   0.08020   0.00000  Uiso   1.00
C193   C     0.71900   0.16807   0.04653   0.00000  Uiso   1.00
C194   C     0.85931   0.03708   0.28476   0.00000  Uiso   1.00
C195   C     0.88443   0.05997   0.32661   0.00000  Uiso   1.00
C196   C     0.81376   0.29324   0.05109   0.00000  Uiso   1.00
C197   C     0.79036   0.27351   0.00594   0.00000  Uiso   1.00
C198   C     0.75470   0.04747   0.07766   0.00000  Uiso   1.00
C199   C     0.83304   0.16698   0.07297   0.00000  Uiso   1.00
C200   C     0.70864   0.05769   0.07457   0.00000  Uiso   1.00
C201   C     0.92870   0.30470   0.22630   0.00000  Uiso   1.00
C202   C     0.96000   0.27177   0.24738   0.00000  Uiso   1.00
C203   C     0.83334   0.16633   0.26035   0.00000  Uiso   1.00
C204   C     0.83306   0.16707   0.02179   0.00000  Uiso   1.00
C205   C     0.83308   0.16619   0.31152   0.00000  Uiso   1.00
C206   C     0.68934   0.14255   0.20580   0.00000  Uiso   1.00
C207   C     0.97950   0.19743   0.13435   0.00000  Uiso   1.00
C208   C     0.97921   0.14393   0.20700   0.00000  Uiso   1.00
H209   H     0.68660   0.05311   0.23429   0.00000  Uiso   1.00
H210   H     0.98290   0.26481   0.09936   0.00000  Uiso   1.00
H211   H     0.94626   0.14275   0.32882   0.00000  Uiso   1.00
H212   H     0.98274   0.17939   0.29665   0.00000  Uiso   1.00
H213   H     0.92758   0.18227   0.28193   0.00000  Uiso   1.00
H214   H     0.92500   0.11167   0.24296   0.00000  Uiso   1.00
H215   H     0.97157   0.09450   0.26894   0.00000  Uiso   1.00
H216   H     0.74346   0.14715   0.06403   0.00000  Uiso   1.00
H217   H     0.69015   0.14754   0.03928   0.00000  Uiso   1.00
H218   H     0.73027   0.18135   0.01009   0.00000  Uiso   1.00
H219   H     0.69146   0.22997   0.05661   0.00000  Uiso   1.00
H220   H     0.73781   0.06270   0.21076   0.00000  Uiso   1.00
H221   H     0.73875   0.22551   0.08943   0.00000  Uiso   1.00
H222   H     0.85938   0.00054   0.29344   0.00000  Uiso   1.00
H223   H     0.82672   0.04852   0.28479   0.00000  Uiso   1.00
H224   H     0.88539   0.09663   0.31989   0.00000  Uiso   1.00
H225   H     0.87005   0.05278   0.02990   0.00000  Uiso   1.00
H226   H     0.91673   0.04786   0.32826   0.00000  Uiso   1.00
H227   H     0.84417   0.27701   0.05632   0.00000  Uiso   1.00
H228   H     0.82072   0.32921   0.04228   0.00000  Uiso   1.00
H229   H     0.76179   0.29234   0.33032   0.00000  Uiso   1.00
H230   H     0.81036   0.27498   0.30619   0.00000  Uiso   1.00
H231   H     0.73137   0.05397   0.27667   0.00000  Uiso   1.00
H232   H     0.78133   0.23810   0.01393   0.00000  Uiso   1.00
H233   H     0.75708   0.01683   0.05638   0.00000  Uiso   1.00
H234   H     0.77324   0.07511   0.05968   0.00000  Uiso   1.00
H235   H     0.70206   0.08571   0.09931   0.00000  Uiso   1.00
H236   H     0.69913   0.06643   0.03532   0.00000  Uiso   1.00
H237   H     0.68991   0.02775   0.08707   0.00000  Uiso   1.00
H238   H     0.93280   0.00107   0.25009   0.00000  Uiso   1.00
H239   H     0.93694   0.31429   0.18721   0.00000  Uiso   1.00
H240   H     0.95803   0.24069   0.22598   0.00000  Uiso   1.00
H241   H     0.99202   0.28663   0.24488   0.00000  Uiso   1.00
H242   H     0.74603   0.13520   0.25363   0.00000  Uiso   1.00
H243   H     0.95364   0.26383   0.28722   0.00000  Uiso   1.00
H244   H     0.70051   0.12574   0.28530   0.00000  Uiso   1.00
H245   H     0.95746   0.21969   0.03023   0.00000  Uiso   1.00
H246   H     0.91608   0.19408   0.06579   0.00000  Uiso   1.00
H247   H     0.91512   0.25281   0.04754   0.00000  Uiso   1.00
H248   H     0.93940   0.25550   0.13271   0.00000  Uiso   1.00
N249   N     0.83333   0.28573   0.16667   0.00000  Uiso   1.00
N250   N     0.83333   0.04760   0.16667   0.00000  Uiso   1.00
O251   O     0.77226   0.20487   0.16666   0.00000  Uiso   1.00
O252   O     0.78924   0.28718   0.09418   0.00000  Uiso   1.00
O253   O     0.76668   0.04241   0.12855   0.00000  Uiso   1.00
O254   O     0.88774   0.28555   0.22887   0.00000  Uiso   1.00
O255   O     0.89441   0.12846   0.16667   0.00000  Uiso   1.00
O256   O     0.89441   0.20487   0.16667   0.00000  Uiso   1.00
O257   O     0.77226   0.12846   0.16666   0.00000  Uiso   1.00
O258   O     0.83334   0.20488   0.09511   0.00000  Uiso   1.00
O259   O     0.83333   0.12845   0.23822   0.00000  Uiso   1.00
O260   O     0.83333   0.20488   0.23822   0.00000  Uiso   1.00
O261   O     0.83334   0.12845   0.09511   0.00000  Uiso   1.00
O262   O     0.87766   0.04800   0.23836   0.00000  Uiso   1.00
Zn263  Zn    0.83333   0.21771   0.16667   0.00000  Uiso   1.00
Zn264  Zn    0.83333   0.11563   0.16667   0.00000  Uiso   1.00
C265   C     0.08690   0.49930   0.16526   0.00000  Uiso   1.00
C266   C     0.02142   0.52309   0.12782   0.00000  Uiso   1.00
C267   C     0.29135   0.50307   0.16962   0.00000  Uiso   1.00
C268   C     0.04274   0.49786   0.16529   0.00000  Uiso   1.00
C269   C     0.19067   0.35759   0.20073   0.00000  Uiso   1.00
C270   C     0.14245   0.64291   0.13296   0.00000  Uiso   1.00
C271   C     0.13873   0.35729   0.13682   0.00000  Uiso   1.00
C272   C     0.19317   0.64273   0.19843   0.00000  Uiso   1.00
C273   C     0.04766   0.45330   0.24880   0.00000  Uiso   1.00
C274   C     0.05086   0.40279   0.24207   0.00000  Uiso   1.00
C275   C     0.29284   0.57107   0.10777   0.00000  Uiso   1.00
C276   C     0.24670   0.50090   0.16743   0.00000  Uiso   1.00
C277   C     0.26873   0.55841   0.06002   0.00000  Uiso   1.00
C278   C     0.28981   0.45772   0.25240   0.00000  Uiso   1.00
C279   C     0.28648   0.49276   0.29230   0.00000  Uiso   1.00
C280   C     0.04310   0.53992   0.08020   0.00000  Uiso   1.00
C281   C     0.05233   0.50141   0.04653   0.00000  Uiso   1.00
C282   C     0.19265   0.37041   0.28476   0.00000  Uiso   1.00
C283   C     0.21777   0.39330   0.32661   0.00000  Uiso   1.00
C284   C     0.14709   0.62658   0.05109   0.00000  Uiso   1.00
C285   C     0.12369   0.60684   0.00594   0.00000  Uiso   1.00
C286   C     0.08803   0.38080   0.07766   0.00000  Uiso   1.00
C287   C     0.16638   0.50032   0.07297   0.00000  Uiso   1.00
C288   C     0.04197   0.39103   0.07457   0.00000  Uiso   1.00
C289   C     0.26204   0.63803   0.22630   0.00000  Uiso   1.00
C290   C     0.29333   0.60510   0.24738   0.00000  Uiso   1.00
C291   C     0.16667   0.49966   0.26035   0.00000  Uiso   1.00
C292   C     0.16640   0.50040   0.02179   0.00000  Uiso   1.00
C293   C     0.16641   0.49952   0.31152   0.00000  Uiso   1.00
C294   C     0.02268   0.47589   0.20580   0.00000  Uiso   1.00
C295   C     0.31283   0.53077   0.13435   0.00000  Uiso   1.00
C296   C     0.31254   0.47727   0.20700   0.00000  Uiso   1.00
H297   H     0.01993   0.38644   0.23429   0.00000  Uiso   1.00
H298   H     0.31623   0.59815   0.09936   0.00000  Uiso   1.00
H299   H     0.27959   0.47608   0.32882   0.00000  Uiso   1.00
H300   H     0.31607   0.51272   0.29665   0.00000  Uiso   1.00
H301   H     0.26092   0.51560   0.28193   0.00000  Uiso   1.00
H302   H     0.25834   0.44501   0.24296   0.00000  Uiso   1.00
H303   H     0.30490   0.42784   0.26894   0.00000  Uiso   1.00
H304   H     0.07679   0.48048   0.06403   0.00000  Uiso   1.00
H305   H     0.02348   0.48088   0.03928   0.00000  Uiso   1.00
H306   H     0.06360   0.51468   0.01009   0.00000  Uiso   1.00
H307   H     0.02479   0.56331   0.05661   0.00000  Uiso   1.00
H308   H     0.07115   0.39603   0.21076   0.00000  Uiso   1.00
H309   H     0.07209   0.55884   0.08943   0.00000  Uiso   1.00
H310   H     0.19272   0.33388   0.29344   0.00000  Uiso   1.00
H311   H     0.16005   0.38185   0.28479   0.00000  Uiso   1.00
H312   H     0.21872   0.42997   0.31989   0.00000  Uiso   1.00
H313   H     0.20338   0.38611   0.02990   0.00000  Uiso   1.00
H314   H     0.25007   0.38119   0.32826   0.00000  Uiso   1.00
H315   H     0.17750   0.61035   0.05632   0.00000  Uiso   1.00
H316   H     0.15405   0.66254   0.04228   0.00000  Uiso   1.00
H317   H     0.09512   0.62568   0.33032   0.00000  Uiso   1.00
H318   H     0.14369   0.60831   0.30619   0.00000  Uiso   1.00
H319   H     0.06471   0.38730   0.27667   0.00000  Uiso   1.00
H320   H     0.11467   0.57143   0.01393   0.00000  Uiso   1.00
H321   H     0.09041   0.35017   0.05638   0.00000  Uiso   1.00
H322   H     0.10658   0.40844   0.05968   0.00000  Uiso   1.00
H323   H     0.03540   0.41905   0.09931   0.00000  Uiso   1.00
H324   H     0.03246   0.39976   0.03532   0.00000  Uiso   1.00
H325   H     0.02324   0.36108   0.08707   0.00000  Uiso   1.00
H326   H     0.26614   0.33440   0.25009   0.00000  Uiso   1.00
H327   H     0.27027   0.64762   0.18721   0.00000  Uiso   1.00
H328   H     0.29136   0.57403   0.22598   0.00000  Uiso   1.00
H329   H     0.32535   0.61997   0.24488   0.00000  Uiso   1.00
H330   H     0.07937   0.46853   0.25363   0.00000  Uiso   1.00
H331   H     0.28698   0.59716   0.28722   0.00000  Uiso   1.00
H332   H     0.03385   0.45908   0.28530   0.00000  Uiso   1.00
H333   H     0.29080   0.55302   0.03023   0.00000  Uiso   1.00
H334   H     0.24942   0.52741   0.06579   0.00000  Uiso   1.00
H335   H     0.24845   0.58614   0.04754   0.00000  Uiso   1.00
H336   H     0.27274   0.58883   0.13271   0.00000  Uiso   1.00
N337   N     0.16667   0.61907   0.16667   0.00000  Uiso   1.00
N338   N     0.16667   0.38093   0.16667   0.00000  Uiso   1.00
O339   O     0.10559   0.53821   0.16666   0.00000  Uiso   1.00
O340   O     0.12257   0.62052   0.09418   0.00000  Uiso   1.00
O341   O     0.10001   0.37575   0.12855   0.00000  Uiso   1.00
O342   O     0.22107   0.61889   0.22887   0.00000  Uiso   1.00
O343   O     0.22774   0.46179   0.16667   0.00000  Uiso   1.00
O344   O     0.22774   0.53821   0.16667   0.00000  Uiso   1.00
O345   O     0.10559   0.46179   0.16666   0.00000  Uiso   1.00
O346   O     0.16667   0.53821   0.09511   0.00000  Uiso   1.00
O347   O     0.16666   0.46179   0.23822   0.00000  Uiso   1.00
O348   O     0.16666   0.53821   0.23822   0.00000  Uiso   1.00
O349   O     0.16667   0.46179   0.09511   0.00000  Uiso   1.00
O350   O     0.21099   0.38134   0.23836   0.00000  Uiso   1.00
Zn351  Zn    0.16667   0.55104   0.16667   0.00000  Uiso   1.00
Zn352  Zn    0.16667   0.44896   0.16667   0.00000  Uiso   1.00
C353   C     0.42024   0.49930   0.16526   0.00000  Uiso   1.00
C354   C     0.35476   0.52309   0.12782   0.00000  Uiso   1.00
C355   C     0.62468   0.50307   0.16962   0.00000  Uiso   1.00
C356   C     0.37607   0.49786   0.16529   0.00000  Uiso   1.00
C357   C     0.52400   0.35759   0.20073   0.00000  Uiso   1.00
C358   C     0.47578   0.64291   0.13296   0.00000  Uiso   1.00
C359   C     0.47207   0.35729   0.13682   0.00000  Uiso   1.00
C360   C     0.52650   0.64273   0.19843   0.00000  Uiso   1.00
C361   C     0.38099   0.45330   0.24880   0.00000  Uiso   1.00
C362   C     0.38419   0.40279   0.24207   0.00000  Uiso   1.00
C363   C     0.62617   0.57107   0.10777   0.00000  Uiso   1.00
C364   C     0.58004   0.50090   0.16743   0.00000  Uiso   1.00
C365   C     0.60207   0.55841   0.06002   0.00000  Uiso   1.00
C366   C     0.62314   0.45772   0.25240   0.00000  Uiso   1.00
C367   C     0.61982   0.49276   0.29230   0.00000  Uiso   1.00
C368   C     0.37643   0.53992   0.08020   0.00000  Uiso   1.00
C369   C     0.38567   0.50141   0.04653   0.00000  Uiso   1.00
C370   C     0.52598   0.37041   0.28476   0.00000  Uiso   1.00
C371   C     0.55110   0.39330   0.32661   0.00000  Uiso   1.00
C372   C     0.48042   0.62658   0.05109   0.00000  Uiso   1.00
C373   C     0.45702   0.60684   0.00594   0.00000  Uiso   1.00
C374   C     0.42137   0.38080   0.07766   0.00000  Uiso   1.00
C375   C     0.49971   0.50032   0.07297   0.00000  Uiso   1.00
C376   C     0.37530   0.39103   0.07457   0.00000  Uiso   1.00
C377   C     0.59537   0.63803   0.22630   0.00000  Uiso   1.00
C378   C     0.62667   0.60510   0.24738   0.00000  Uiso   1.00
C379   C     0.50001   0.49966   0.26035   0.00000  Uiso   1.00
C380   C     0.49973   0.50040   0.02179   0.00000  Uiso   1.00
C381   C     0.49975   0.49952   0.31152   0.00000  Uiso   1.00
C382   C     0.35601   0.47589   0.20580   0.00000  Uiso   1.00
C383   C     0.64616   0.53077   0.13435   0.00000  Uiso   1.00
C384   C     0.64588   0.47727   0.20700   0.00000  Uiso   1.00
H385   H     0.35326   0.38644   0.23429   0.00000  Uiso   1.00
H386   H     0.64956   0.59815   0.09936   0.00000  Uiso   1.00
H387   H     0.61292   0.47608   0.32882   0.00000  Uiso   1.00
H388   H     0.64940   0.51272   0.29665   0.00000  Uiso   1.00
H389   H     0.59425   0.51560   0.28193   0.00000  Uiso   1.00
H390   H     0.59167   0.44501   0.24296   0.00000  Uiso   1.00
H391   H     0.63823   0.42784   0.26894   0.00000  Uiso   1.00
H392   H     0.41013   0.48048   0.06403   0.00000  Uiso   1.00
H393   H     0.35682   0.48088   0.03928   0.00000  Uiso   1.00
H394   H     0.39693   0.51468   0.01009   0.00000  Uiso   1.00
H395   H     0.35812   0.56331   0.05661   0.00000  Uiso   1.00
H396   H     0.40448   0.39603   0.21076   0.00000  Uiso   1.00
H397   H     0.40542   0.55884   0.08943   0.00000  Uiso   1.00
H398   H     0.52605   0.33388   0.29344   0.00000  Uiso   1.00
H399   H     0.49338   0.38185   0.28479   0.00000  Uiso   1.00
H400   H     0.55206   0.42997   0.31989   0.00000  Uiso   1.00
H401   H     0.53671   0.38611   0.02990   0.00000  Uiso   1.00
H402   H     0.58340   0.38119   0.32826   0.00000  Uiso   1.00
H403   H     0.51083   0.61035   0.05632   0.00000  Uiso   1.00
H404   H     0.48739   0.66254   0.04228   0.00000  Uiso   1.00
H405   H     0.42846   0.62568   0.33032   0.00000  Uiso   1.00
H406   H     0.47703   0.60831   0.30619   0.00000  Uiso   1.00
H407   H     0.39804   0.38730   0.27667   0.00000  Uiso   1.00
H408   H     0.44800   0.57143   0.01393   0.00000  Uiso   1.00
H409   H     0.42374   0.35017   0.05638   0.00000  Uiso   1.00
H410   H     0.43991   0.40844   0.05968   0.00000  Uiso   1.00
H411   H     0.36873   0.41905   0.09931   0.00000  Uiso   1.00
H412   H     0.36579   0.39976   0.03532   0.00000  Uiso   1.00
H413   H     0.35657   0.36108   0.08707   0.00000  Uiso   1.00
H414   H     0.59947   0.33440   0.25009   0.00000  Uiso   1.00
H415   H     0.60360   0.64762   0.18721   0.00000  Uiso   1.00
H416   H     0.62469   0.57403   0.22598   0.00000  Uiso   1.00
H417   H     0.65868   0.61997   0.24488   0.00000  Uiso   1.00
H418   H     0.41270   0.46853   0.25363   0.00000  Uiso   1.00
H419   H     0.62031   0.59716   0.28722   0.00000  Uiso   1.00
H420   H     0.36718   0.45908   0.28530   0.00000  Uiso   1.00
H421   H     0.62413   0.55302   0.03023   0.00000  Uiso   1.00
H422   H     0.58275   0.52741   0.06579   0.00000  Uiso   1.00
H423   H     0.58178   0.58614   0.04754   0.00000  Uiso   1.00
H424   H     0.60607   0.58883   0.13271   0.00000  Uiso   1.00
N425   N     0.50000   0.61907   0.16667   0.00000  Uiso   1.00
N426   N     0.50000   0.38093   0.16667   0.00000  Uiso   1.00
O427   O     0.43892   0.53821   0.16666   0.00000  Uiso   1.00
O428   O     0.45590   0.62052   0.09418   0.00000  Uiso   1.00
O429   O     0.43334   0.37575   0.12855   0.00000  Uiso   1.00
O430   O     0.55441   0.61889   0.22887   0.00000  Uiso   1.00
O431   O     0.56108   0.46179   0.16667   0.00000  Uiso   1.00
O432   O     0.56108   0.53821   0.16667   0.00000  Uiso   1.00
O433   O     0.43892   0.46179   0.16666   0.00000  Uiso   1.00
O434   O     0.50000   0.53821   0.09511   0.00000  Uiso   1.00
O435   O     0.50000   0.46179   0.23822   0.00000  Uiso   1.00
O436   O     0.50000   0.53821   0.23822   0.00000  Uiso   1.00
O437   O     0.50000   0.46179   0.09511   0.00000  Uiso   1.00
O438   O     0.54432   0.38134   0.23836   0.00000  Uiso   1.00
Zn439  Zn    0.50000   0.55104   0.16667   0.00000  Uiso   1.00
Zn440  Zn    0.50000   0.44896   0.16667   0.00000  Uiso   1.00
C441   C     0.75357   0.49930   0.16526   0.00000  Uiso   1.00
C442   C     0.68809   0.52309   0.12782   0.00000  Uiso   1.00
C443   C     0.95802   0.50307   0.16962   0.00000  Uiso   1.00
C444   C     0.70941   0.49786   0.16529   0.00000  Uiso   1.00
C445   C     0.85734   0.35759   0.20073   0.00000  Uiso   1.00
C446   C     0.80912   0.64291   0.13296   0.00000  Uiso   1.00
C447   C     0.80540   0.35729   0.13682   0.00000  Uiso   1.00
C448   C     0.85984   0.64273   0.19843   0.00000  Uiso   1.00
C449   C     0.71433   0.45330   0.24880   0.00000  Uiso   1.00
C450   C     0.71752   0.40279   0.24207   0.00000  Uiso   1.00
C451   C     0.95951   0.57107   0.10777   0.00000  Uiso   1.00
C452   C     0.91337   0.50090   0.16743   0.00000  Uiso   1.00
C453   C     0.93540   0.55841   0.06002   0.00000  Uiso   1.00
C454   C     0.95647   0.45772   0.25240   0.00000  Uiso   1.00
C455   C     0.95315   0.49276   0.29230   0.00000  Uiso   1.00
C456   C     0.70976   0.53992   0.08020   0.00000  Uiso   1.00
C457   C     0.71900   0.50141   0.04653   0.00000  Uiso   1.00
C458   C     0.85931   0.37041   0.28476   0.00000  Uiso   1.00
C459   C     0.88443   0.39330   0.32661   0.00000  Uiso   1.00
C460   C     0.81376   0.62658   0.05109   0.00000  Uiso   1.00
C461   C     0.79036   0.60684   0.00594   0.00000  Uiso   1.00
C462   C     0.75470   0.38080   0.07766   0.00000  Uiso   1.00
C463   C     0.83304   0.50032   0.07297   0.00000  Uiso   1.00
C464   C     0.70864   0.39103   0.07457   0.00000  Uiso   1.00
C465   C     0.92870   0.63803   0.22630   0.00000  Uiso   1.00
C466   C     0.96000   0.60510   0.24738   0.00000  Uiso   1.00
C467   C     0.83334   0.49966   0.26035   0.00000  Uiso   1.00
C468   C     0.83306   0.50040   0.02179   0.00000  Uiso   1.00
C469   C     0.83308   0.49952   0.31152   0.00000  Uiso   1.00
C470   C     0.68934   0.47589   0.20580   0.00000  Uiso   1.00
C471   C     0.97950   0.53077   0.13435   0.00000  Uiso   1.00
C472   C     0.97921   0.47727   0.20700   0.00000  Uiso   1.00
H473   H     0.68660   0.38644   0.23429   0.00000  Uiso   1.00
H474   H     0.98290   0.59815   0.09936   0.00000  Uiso   1.00
H475   H     0.94626   0.47608   0.32882   0.00000  Uiso   1.00
H476   H     0.98274   0.51272   0.29665   0.00000  Uiso   1.00
H477   H     0.92758   0.51560   0.28193   0.00000  Uiso   1.00
H478   H     0.92500   0.44501   0.24296   0.00000  Uiso   1.00
H479   H     0.97157   0.42784   0.26894   0.00000  Uiso   1.00
H480   H     0.74346   0.48048   0.06403   0.00000  Uiso   1.00
H481   H     0.69015   0.48088   0.03928   0.00000  Uiso   1.00
H482   H     0.73027   0.51468   0.01009   0.00000  Uiso   1.00
H483   H     0.69146   0.56331   0.05661   0.00000  Uiso   1.00
H484   H     0.73781   0.39603   0.21076   0.00000  Uiso   1.00
H485   H     0.73875   0.55884   0.08943   0.00000  Uiso   1.00
H486   H     0.85938   0.33388   0.29344   0.00000  Uiso   1.00
H487   H     0.82672   0.38185   0.28479   0.00000  Uiso   1.00
H488   H     0.88539   0.42997   0.31989   0.00000  Uiso   1.00
H489   H     0.87005   0.38611   0.02990   0.00000  Uiso   1.00
H490   H     0.91673   0.38119   0.32826   0.00000  Uiso   1.00
H491   H     0.84417   0.61035   0.05632   0.00000  Uiso   1.00
H492   H     0.82072   0.66254   0.04228   0.00000  Uiso   1.00
H493   H     0.76179   0.62568   0.33032   0.00000  Uiso   1.00
H494   H     0.81036   0.60831   0.30619   0.00000  Uiso   1.00
H495   H     0.73137   0.38730   0.27667   0.00000  Uiso   1.00
H496   H     0.78133   0.57143   0.01393   0.00000  Uiso   1.00
H497   H     0.75708   0.35017   0.05638   0.00000  Uiso   1.00
H498   H     0.77324   0.40844   0.05968   0.00000  Uiso   1.00
H499   H     0.70206   0.41905   0.09931   0.00000  Uiso   1.00
H500   H     0.69913   0.39976   0.03532   0.00000  Uiso   1.00
H501   H     0.68991   0.36108   0.08707   0.00000  Uiso   1.00
H502   H     0.93280   0.33440   0.25009   0.00000  Uiso   1.00
H503   H     0.93694   0.64762   0.18721   0.00000  Uiso   1.00
H504   H     0.95803   0.57403   0.22598   0.00000  Uiso   1.00
H505   H     0.99202   0.61997   0.24488   0.00000  Uiso   1.00
H506   H     0.74603   0.46853   0.25363   0.00000  Uiso   1.00
H507   H     0.95364   0.59716   0.28722   0.00000  Uiso   1.00
H508   H     0.70051   0.45908   0.28530   0.00000  Uiso   1.00
H509   H     0.95746   0.55302   0.03023   0.00000  Uiso   1.00
H510   H     0.91608   0.52741   0.06579   0.00000  Uiso   1.00
H511   H     0.91512   0.58614   0.04754   0.00000  Uiso   1.00
H512   H     0.93940   0.58883   0.13271   0.00000  Uiso   1.00
N513   N     0.83333   0.61907   0.16667   0.00000  Uiso   1.00
N514   N     0.83333   0.38093   0.16667   0.00000  Uiso   1.00
O515   O     0.77226   0.53821   0.16666   0.00000  Uiso   1.00
O516   O     0.78924   0.62052   0.09418   0.00000  Uiso   1.00
O517   O     0.76668   0.37575   0.12855   0.00000  Uiso   1.00
O518   O     0.88774   0.61889   0.22887   0.00000  Uiso   1.00
O519   O     0.89441   0.46179   0.16667   0.00000  Uiso   1.00
O520   O     0.89441   0.53821   0.16667   0.00000  Uiso   1.00
O521   O     0.77226   0.46179   0.16666   0.00000  Uiso   1.00
O522   O     0.83334   0.53821   0.09511   0.00000  Uiso   1.00
O523   O     0.83333   0.46179   0.23822   0.00000  Uiso   1.00
O524   O     0.83333   0.53821   0.23822   0.00000  Uiso   1.00
O525   O     0.83334   0.46179   0.09511   0.00000  Uiso   1.00
O526   O     0.87766   0.38134   0.23836   0.00000  Uiso   1.00
Zn527  Zn    0.83333   0.55104   0.16667   0.00000  Uiso   1.00
Zn528  Zn    0.83333   0.44896   0.16667   0.00000  Uiso   1.00
C529   C     0.08690   0.83264   0.16526   0.00000  Uiso   1.00
C530   C     0.02142   0.85642   0.12782   0.00000  Uiso   1.00
C531   C     0.29135   0.83641   0.16962   0.00000  Uiso   1.00
C532   C     0.04274   0.83119   0.16529   0.00000  Uiso   1.00
C533   C     0.19067   0.69093   0.20073   0.00000  Uiso   1.00
C534   C     0.14245   0.97624   0.13296   0.00000  Uiso   1.00
C535   C     0.13873   0.69062   0.13682   0.00000  Uiso   1.00
C536   C     0.19317   0.97607   0.19843   0.00000  Uiso   1.00
C537   C     0.04766   0.78663   0.24880   0.00000  Uiso   1.00
C538   C     0.05086   0.73612   0.24207   0.00000  Uiso   1.00
C539   C     0.29284   0.90440   0.10777   0.00000  Uiso   1.00
C540   C     0.24670   0.83423   0.16743   0.00000  Uiso   1.00
C541   C     0.26873   0.89174   0.06002   0.00000  Uiso   1.00
C542   C     0.28981   0.79105   0.25240   0.00000  Uiso   1.00
C543   C     0.28648   0.82609   0.29230   0.00000  Uiso   1.00
C544   C     0.04310   0.87325   0.08020   0.00000  Uiso   1.00
C545   C     0.05233   0.83474   0.04653   0.00000  Uiso   1.00
C546   C     0.19265   0.70374   0.28476   0.00000  Uiso   1.00
C547   C     0.21777   0.72663   0.32661   0.00000  Uiso   1.00
C548   C     0.14709   0.95991   0.05109   0.00000  Uiso   1.00
C549   C     0.12369   0.94017   0.00594   0.00000  Uiso   1.00
C550   C     0.08803   0.71414   0.07766   0.00000  Uiso   1.00
C551   C     0.16638   0.83365   0.07297   0.00000  Uiso   1.00
C552   C     0.04197   0.72436   0.07457   0.00000  Uiso   1.00
C553   C     0.26204   0.97137   0.22630   0.00000  Uiso   1.00
C554   C     0.29333   0.93844   0.24738   0.00000  Uiso   1.00
C555   C     0.16667   0.83299   0.26035   0.00000  Uiso   1.00
C556   C     0.16640   0.83373   0.02179   0.00000  Uiso   1.00
C557   C     0.16641   0.83286   0.31152   0.00000  Uiso   1.00
C558   C     0.02268   0.80922   0.20580   0.00000  Uiso   1.00
C559   C     0.31283   0.86410   0.13435   0.00000  Uiso   1.00
C560   C     0.31254   0.81060   0.20700   0.00000  Uiso   1.00
H561   H     0.01993   0.71977   0.23429   0.00000  Uiso   1.00
H562   H     0.31623   0.93148   0.09936   0.00000  Uiso   1.00
H563   H     0.27959   0.80941   0.32882   0.00000  Uiso   1.00
H564   H     0.31607   0.84605   0.29665   0.00000  Uiso   1.00
H565   H     0.26092   0.84894   0.28193   0.00000  Uiso   1.00
H566   H     0.25834   0.77834   0.24296   0.00000  Uiso   1.00
H567   H     0.30490   0.76117   0.26894   0.00000  Uiso   1.00
H568   H     0.07679   0.81382   0.06403   0.00000  Uiso   1.00
H569   H     0.02348   0.81421   0.03928   0.00000  Uiso   1.00
H570   H     0.06360   0.84802   0.01009   0.00000  Uiso   1.00
H571   H     0.02479   0.89664   0.05661   0.00000  Uiso   1.00
H572   H     0.07115   0.72937   0.21076   0.00000  Uiso   1.00
H573   H     0.07209   0.89218   0.08943   0.00000  Uiso   1.00
H574   H     0.19272   0.66721   0.29344   0.00000  Uiso   1.00
H575   H     0.16005   0.71519   0.28479   0.00000  Uiso   1.00
H576   H     0.21872   0.76330   0.31989   0.00000  Uiso   1.00
H577   H     0.20338   0.71944   0.02990   0.00000  Uiso   1.00
H578   H     0.25007   0.71453   0.32826   0.00000  Uiso   1.00
H579   H     0.17750   0.94368   0.05632   0.00000  Uiso   1.00
H580   H     0.15405   0.99587   0.04228   0.00000  Uiso   1.00
H581   H     0.09512   0.95901   0.33032   0.00000  Uiso   1.00
H582   H     0.14369   0.94165   0.30619   0.00000  Uiso   1.00
H583   H     0.06471   0.72064   0.27667   0.00000  Uiso   1.00
H584   H     0.11467   0.90477   0.01393   0.00000  Uiso   1.00
H585   H     0.09041   0.68350   0.05638   0.00000  Uiso   1.00
H586   H     0.10658   0.74178   0.05968   0.00000  Uiso   1.00
H587   H     0.03540   0.75238   0.09931   0.00000  Uiso   1.00
H588   H     0.03246   0.73310   0.03532   0.00000  Uiso   1.00
H589   H     0.02324   0.69441   0.08707   0.00000  Uiso   1.00
H590   H     0.26614   0.66773   0.25009   0.00000  Uiso   1.00
H591   H     0.27027   0.98096   0.18721   0.00000  Uiso   1.00
H592   H     0.29136   0.90736   0.22598   0.00000  Uiso   1.00
H593   H     0.32535   0.95330   0.24488   0.00000  Uiso   1.00
H594   H     0.07937   0.80186   0.25363   0.00000  Uiso   1.00
H595   H     0.28698   0.93050   0.28722   0.00000  Uiso   1.00
H596   H     0.03385   0.79241   0.28530   0.00000  Uiso   1.00
H597   H     0.29080   0.88635   0.03023   0.00000  Uiso   1.00
H598   H     0.24942   0.86074   0.06579   0.00000  Uiso   1.00
H599   H     0.24845   0.91947   0.04754   0.00000  Uiso   1.00
H600   H     0.27274   0.92216   0.13271   0.00000  Uiso   1.00
N601   N     0.16667   0.95240   0.16667   0.00000  Uiso   1.00
N602   N     0.16667   0.71427   0.16667   0.00000  Uiso   1.00
O603   O     0.10559   0.87154   0.16666   0.00000  Uiso   1.00
O604   O     0.12257   0.95385   0.09418   0.00000  Uiso   1.00
O605   O     0.10001   0.70908   0.12855   0.00000  Uiso   1.00
O606   O     0.22107   0.95222   0.22887   0.00000  Uiso   1.00
O607   O     0.22774   0.79513   0.16667   0.00000  Uiso   1.00
O608   O     0.22774   0.87154   0.16667   0.00000  Uiso   1.00
O609   O     0.10559   0.79513   0.16666   0.00000  Uiso   1.00
O610   O     0.16667   0.87155   0.09511   0.00000  Uiso   1.00
O611   O     0.16666   0.79512   0.23822   0.00000  Uiso   1.00
O612   O     0.16666   0.87155   0.23822   0.00000  Uiso   1.00
O613   O     0.16667   0.79512   0.09511   0.00000  Uiso   1.00
O614   O     0.21099   0.71467   0.23836   0.00000  Uiso   1.00
Zn615  Zn    0.16667   0.88437   0.16667   0.00000  Uiso   1.00
Zn616  Zn    0.16667   0.78229   0.16667   0.00000  Uiso   1.00
C617   C     0.42024   0.83264   0.16526   0.00000  Uiso   1.00
C618   C     0.35476   0.85642   0.12782   0.00000  Uiso   1.00
C619   C     0.62468   0.83641   0.16962   0.00000  Uiso   1.00
C620   C     0.37607   0.83119   0.16529   0.00000  Uiso   1.00
C621   C     0.52400   0.69093   0.20073   0.00000  Uiso   1.00
C622   C     0.47578   0.97624   0.13296   0.00000  Uiso   1.00
C623   C     0.47207   0.69062   0.13682   0.00000  Uiso   1.00
C624   C     0.52650   0.97607   0.19843   0.00000  Uiso   1.00
C625   C     0.38099   0.78663   0.24880   0.00000  Uiso   1.00
C626   C     0.38419   0.73612   0.24207   0.00000  Uiso   1.00
C627   C     0.62617   0.90440   0.10777   0.00000  Uiso   1.00
C628   C     0.58004   0.83423   0.16743   0.00000  Uiso   1.00
C629   C     0.60207   0.89174   0.06002   0.00000  Uiso   1.00
C630   C     0.62314   0.79105   0.25240   0.00000  Uiso   1.00
C631   C     0.61982   0.82609   0.29230   0.00000  Uiso   1.00
C632   C     0.37643   0.87325   0.08020   0.00000  Uiso   1.00
C633   C     0.38567   0.83474   0.04653   0.00000  Uiso   1.00
C634   C     0.52598   0.70374   0.28476   0.00000  Uiso   1.00
C635   C     0.55110   0.72663   0.32661   0.00000  Uiso   1.00
C636   C     0.48042   0.95991   0.05109   0.00000  Uiso   1.00
C637   C     0.45702   0.94017   0.00594   0.00000  Uiso   1.00
C638   C     0.42137   0.71414   0.07766   0.00000  Uiso   1.00
C639   C     0.49971   0.83365   0.07297   0.00000  Uiso   1.00
C640   C     0.37530   0.72436   0.07457   0.00000  Uiso   1.00
C641   C     0.59537   0.97137   0.22630   0.00000  Uiso   1.00
C642   C     0.62667   0.93844   0.24738   0.00000  Uiso   1.00
C643   C     0.50001   0.83299   0.26035   0.00000  Uiso   1.00
C644   C     0.49973   0.83373   0.02179   0.00000  Uiso   1.00
C645   C     0.49975   0.83286   0.31152   0.00000  Uiso   1.00
C646   C     0.35601   0.80922   0.20580   0.00000  Uiso   1.00
C647   C     0.64616   0.86410   0.13435   0.00000  Uiso   1.00
C648   C     0.64588   0.81060   0.20700   0.00000  Uiso   1.00
H649   H     0.35326   0.71977   0.23429   0.00000  Uiso   1.00
H650   H     0.64956   0.93148   0.09936   0.00000  Uiso   1.00
H651   H     0.61292   0.80941   0.32882   0.00000  Uiso   1.00
H652   H     0.64940   0.84605   0.29665   0.00000  Uiso   1.00
H653   H     0.59425   0.84894   0.28193   0.00000  Uiso   1.00
H654   H     0.59167   0.77834   0.24296   0.00000  Uiso   1.00
H655   H     0.63823   0.76117   0.26894   0.00000  Uiso   1.00
H656   H     0.41013   0.81382   0.06403   0.00000  Uiso   1.00
H657   H     0.35682   0.81421   0.03928   0.00000  Uiso   1.00
H658   H     0.39693   0.84802   0.01009   0.00000  Uiso   1.00
H659   H     0.35812   0.89664   0.05661   0.00000  Uiso   1.00
H660   H     0.40448   0.72937   0.21076   0.00000  Uiso   1.00
H661   H     0.40542   0.89218   0.08943   0.00000  Uiso   1.00
H662   H     0.52605   0.66721   0.29344   0.00000  Uiso   1.00
H663   H     0.49338   0.71519   0.28479   0.00000  Uiso   1.00
H664   H     0.55206   0.76330   0.31989   0.00000  Uiso   1.00
H665   H     0.53671   0.71944   0.02990   0.00000  Uiso   1.00
H666   H     0.58340   0.71453   0.32826   0.00000  Uiso   1.00
H667   H     0.51083   0.94368   0.05632   0.00000  Uiso   1.00
H668   H     0.48739   0.99587   0.04228   0.00000  Uiso   1.00
H669   H     0.42846   0.95901   0.33032   0.00000  Uiso   1.00
H670   H     0.47703   0.94165   0.30619   0.00000  Uiso   1.00
H671   H     0.39804   0.72064   0.27667   0.00000  Uiso   1.00
H672   H     0.44800   0.90477   0.01393   0.00000  Uiso   1.00
H673   H     0.42374   0.68350   0.05638   0.00000  Uiso   1.00
H674   H     0.43991   0.74178   0.05968   0.00000  Uiso   1.00
H675   H     0.36873   0.75238   0.09931   0.00000  Uiso   1.00
H676   H     0.36579   0.73310   0.03532   0.00000  Uiso   1.00
H677   H     0.35657   0.69441   0.08707   0.00000  Uiso   1.00
H678   H     0.59947   0.66773   0.25009   0.00000  Uiso   1.00
H679   H     0.60360   0.98096   0.18721   0.00000  Uiso   1.00
H680   H     0.62469   0.90736   0.22598   0.00000  Uiso   1.00
H681   H     0.65868   0.95330   0.24488   0.00000  Uiso   1.00
H682   H     0.41270   0.80186   0.25363   0.00000  Uiso   1.00
H683   H     0.62031   0.93050   0.28722   0.00000  Uiso   1.00
H684   H     0.36718   0.79241   0.28530   0.00000  Uiso   1.00
H685   H     0.62413   0.88635   0.03023   0.00000  Uiso   1.00
H686   H     0.58275   0.86074   0.06579   0.00000  Uiso   1.00
H687   H     0.58178   0.91947   0.04754   0.00000  Uiso   1.00
H688   H     0.60607   0.92216   0.13271   0.00000  Uiso   1.00
N689   N     0.50000   0.95240   0.16667   0.00000  Uiso   1.00
N690   N     0.50000   0.71427   0.16667   0.00000  Uiso   1.00
O691   O     0.43892   0.87154   0.16666   0.00000  Uiso   1.00
O692   O     0.45590   0.95385   0.09418   0.00000  Uiso   1.00
O693   O     0.43334   0.70908   0.12855   0.00000  Uiso   1.00
O694   O     0.55441   0.95222   0.22887   0.00000  Uiso   1.00
O695   O     0.56108   0.79513   0.16667   0.00000  Uiso   1.00
O696   O     0.56108   0.87154   0.16667   0.00000  Uiso   1.00
O697   O     0.43892   0.79513   0.16666   0.00000  Uiso   1.00
O698   O     0.50000   0.87155   0.09511   0.00000  Uiso   1.00
O699   O     0.50000   0.79512   0.23822   0.00000  Uiso   1.00
O700   O     0.50000   0.87155   0.23822   0.00000  Uiso   1.00
O701   O     0.50000   0.79512   0.09511   0.00000  Uiso   1.00
O702   O     0.54432   0.71467   0.23836   0.00000  Uiso   1.00
Zn703  Zn    0.50000   0.88437   0.16667   0.00000  Uiso   1.00
Zn704  Zn    0.50000   0.78229   0.16667   0.00000  Uiso   1.00
C705   C     0.75357   0.83264   0.16526   0.00000  Uiso   1.00
C706   C     0.68809   0.85642   0.12782   0.00000  Uiso   1.00
C707   C     0.95802   0.83641   0.16962   0.00000  Uiso   1.00
C708   C     0.70941   0.83119   0.16529   0.00000  Uiso   1.00
C709   C     0.85734   0.69093   0.20073   0.00000  Uiso   1.00
C710   C     0.80912   0.97624   0.13296   0.00000  Uiso   1.00
C711   C     0.80540   0.69062   0.13682   0.00000  Uiso   1.00
C712   C     0.85984   0.97607   0.19843   0.00000  Uiso   1.00
C713   C     0.71433   0.78663   0.24880   0.00000  Uiso   1.00
C714   C     0.71752   0.73612   0.24207   0.00000  Uiso   1.00
C715   C     0.95951   0.90440   0.10777   0.00000  Uiso   1.00
C716   C     0.91337   0.83423   0.16743   0.00000  Uiso   1.00
C717   C     0.93540   0.89174   0.06002   0.00000  Uiso   1.00
C718   C     0.95647   0.79105   0.25240   0.00000  Uiso   1.00
C719   C     0.95315   0.82609   0.29230   0.00000  Uiso   1.00
C720   C     0.70976   0.87325   0.08020   0.00000  Uiso   1.00
C721   C     0.71900   0.83474   0.04653   0.00000  Uiso   1.00
C722   C     0.85931   0.70374   0.28476   0.00000  Uiso   1.00
C723   C     0.88443   0.72663   0.32661   0.00000  Uiso   1.00
C724   C     0.81376   0.95991   0.05109   0.00000  Uiso   1.00
C725   C     0.79036   0.94017   0.00594   0.00000  Uiso   1.00
C726   C     0.75470   0.71414   0.07766   0.00000  Uiso   1.00
C727   C     0.83304   0.83365   0.07297   0.00000  Uiso   1.00
C728   C     0.70864   0.72436   0.07457   0.00000  Uiso   1.00
C729   C     0.92870   0.97137   0.22630   0.00000  Uiso   1.00
C730   C     0.96000   0.93844   0.24738   0.00000  Uiso   1.00
C731   C     0.83334   0.83299   0.26035   0.00000  Uiso   1.00
C732   C     0.83306   0.83373   0.02179   0.00000  Uiso   1.00
C733   C     0.83308   0.83286   0.31152   0.00000  Uiso   1.00
C734   C     0.68934   0.80922   0.20580   0.00000  Uiso   1.00
C735   C     0.97950   0.86410   0.13435   0.00000  Uiso   1.00
C736   C     0.97921   0.81060   0.20700   0.00000  Uiso   1.00
H737   H     0.68660   0.71977   0.23429   0.00000  Uiso   1.00
H738   H     0.98290   0.93148   0.09936   0.00000  Uiso   1.00
H739   H     0.94626   0.80941   0.32882   0.00000  Uiso   1.00
H740   H     0.98274   0.84605   0.29665   0.00000  Uiso   1.00
H741   H     0.92758   0.84894   0.28193   0.00000  Uiso   1.00
H742   H     0.92500   0.77834   0.24296   0.00000  Uiso   1.00
H743   H     0.97157   0.76117   0.26894   0.00000  Uiso   1.00
H744   H     0.74346   0.81382   0.06403   0.00000  Uiso   1.00
H745   H     0.69015   0.81421   0.03928   0.00000  Uiso   1.00
H746   H     0.73027   0.84802   0.01009   0.00000  Uiso   1.00
H747   H     0.69146   0.89664   0.05661   0.00000  Uiso   1.00
H748   H     0.73781   0.72937   0.21076   0.00000  Uiso   1.00
H749   H     0.73875   0.89218   0.08943   0.00000  Uiso   1.00
H750   H     0.85938   0.66721   0.29344   0.00000  Uiso   1.00
H751   H     0.82672   0.71519   0.28479   0.00000  Uiso   1.00
H752   H     0.88539   0.76330   0.31989   0.00000  Uiso   1.00
H753   H     0.87005   0.71944   0.02990   0.00000  Uiso   1.00
H754   H     0.91673   0.71453   0.32826   0.00000  Uiso   1.00
H755   H     0.84417   0.94368   0.05632   0.00000  Uiso   1.00
H756   H     0.82072   0.99587   0.04228   0.00000  Uiso   1.00
H757   H     0.76179   0.95901   0.33032   0.00000  Uiso   1.00
H758   H     0.81036   0.94165   0.30619   0.00000  Uiso   1.00
H759   H     0.73137   0.72064   0.27667   0.00000  Uiso   1.00
H760   H     0.78133   0.90477   0.01393   0.00000  Uiso   1.00
H761   H     0.75708   0.68350   0.05638   0.00000  Uiso   1.00
H762   H     0.77324   0.74178   0.05968   0.00000  Uiso   1.00
H763   H     0.70206   0.75238   0.09931   0.00000  Uiso   1.00
H764   H     0.69913   0.73310   0.03532   0.00000  Uiso   1.00
H765   H     0.68991   0.69441   0.08707   0.00000  Uiso   1.00
H766   H     0.93280   0.66773   0.25009   0.00000  Uiso   1.00
H767   H     0.93694   0.98096   0.18721   0.00000  Uiso   1.00
H768   H     0.95803   0.90736   0.22598   0.00000  Uiso   1.00
H769   H     0.99202   0.95330   0.24488   0.00000  Uiso   1.00
H770   H     0.74603   0.80186   0.25363   0.00000  Uiso   1.00
H771   H     0.95364   0.93050   0.28722   0.00000  Uiso   1.00
H772   H     0.70051   0.79241   0.28530   0.00000  Uiso   1.00
H773   H     0.95746   0.88635   0.03023   0.00000  Uiso   1.00
H774   H     0.91608   0.86074   0.06579   0.00000  Uiso   1.00
H775   H     0.91512   0.91947   0.04754   0.00000  Uiso   1.00
H776   H     0.93940   0.92216   0.13271   0.00000  Uiso   1.00
N777   N     0.83333   0.95240   0.16667   0.00000  Uiso   1.00
N778   N     0.83333   0.71427   0.16667   0.00000  Uiso   1.00
O779   O     0.77226   0.87154   0.16666   0.00000  Uiso   1.00
O780   O     0.78924   0.95385   0.09418   0.00000  Uiso   1.00
O781   O     0.76668   0.70908   0.12855   0.00000  Uiso   1.00
O782   O     0.88774   0.95222   0.22887   0.00000  Uiso   1.00
O783   O     0.89441   0.79513   0.16667   0.00000  Uiso   1.00
O784   O     0.89441   0.87154   0.16667   0.00000  Uiso   1.00
O785   O     0.77226   0.79513   0.16666   0.00000  Uiso   1.00
O786   O     0.83334   0.87155   0.09511   0.00000  Uiso   1.00
O787   O     0.83333   0.79512   0.23822   0.00000  Uiso   1.00
O788   O     0.83333   0.87155   0.23822   0.00000  Uiso   1.00
O789   O     0.83334   0.79512   0.09511   0.00000  Uiso   1.00
O790   O     0.87766   0.71467   0.23836   0.00000  Uiso   1.00
Zn791  Zn    0.83333   0.88437   0.16667   0.00000  Uiso   1.00
Zn792  Zn    0.83333   0.78229   0.16667   0.00000  Uiso   1.00
C793   C     0.08690   0.16597   0.49859   0.00000  Uiso   1.00
C794   C     0.02142   0.18976   0.46115   0.00000  Uiso   1.00
C795   C     0.29135   0.16974   0.50295   0.00000  Uiso   1.00
C796   C     0.04274   0.16453   0.49862   0.00000  Uiso   1.00
C797   C     0.19067   0.02426   0.53406   0.00000  Uiso   1.00
C798   C     0.14245   0.30957   0.46630   0.00000  Uiso   1.00
C799   C     0.13873   0.02396   0.47015   0.00000  Uiso   1.00
C800   C     0.19317   0.30940   0.53176   0.00000  Uiso   1.00
C801   C     0.04766   0.11997   0.58213   0.00000  Uiso   1.00
C802   C     0.05086   0.06946   0.57540   0.00000  Uiso   1.00
C803   C     0.29284   0.23773   0.44110   0.00000  Uiso   1.00
C804   C     0.24670   0.16757   0.50076   0.00000  Uiso   1.00
C805   C     0.26873   0.22508   0.39336   0.00000  Uiso   1.00
C806   C     0.28981   0.12438   0.58574   0.00000  Uiso   1.00
C807   C     0.28648   0.15943   0.62564   0.00000  Uiso   1.00
C808   C     0.04310   0.20658   0.41354   0.00000  Uiso   1.00
C809   C     0.05233   0.16807   0.37987   0.00000  Uiso   1.00
C810   C     0.19265   0.03708   0.61809   0.00000  Uiso   1.00
C811   C     0.21777   0.05997   0.65994   0.00000  Uiso   1.00
C812   C     0.14709   0.29324   0.38443   0.00000  Uiso   1.00
C813   C     0.12369   0.27351   0.33928   0.00000  Uiso   1.00
C814   C     0.08803   0.04747   0.41099   0.00000  Uiso   1.00
C815   C     0.16638   0.16698   0.40631   0.00000  Uiso   1.00
C816   C     0.04197   0.05769   0.40790   0.00000  Uiso   1.00
C817   C     0.26204   0.30470   0.55964   0.00000  Uiso   1.00
C818   C     0.29333   0.27177   0.58072   0.00000  Uiso   1.00
C819   C     0.16667   0.16633   0.59369   0.00000  Uiso   1.00
C820   C     0.16640   0.16707   0.35513   0.00000  Uiso   1.00
C821   C     0.16641   0.16619   0.64485   0.00000  Uiso   1.00
C822   C     0.02268   0.14255   0.53913   0.00000  Uiso   1.00
C823   C     0.31283   0.19743   0.46769   0.00000  Uiso   1.00
C824   C     0.31254   0.14393   0.54033   0.00000  Uiso   1.00
H825   H     0.01993   0.05311   0.56763   0.00000  Uiso   1.00
H826   H     0.31623   0.26481   0.43269   0.00000  Uiso   1.00
H827   H     0.27959   0.14275   0.66216   0.00000  Uiso   1.00
H828   H     0.31607   0.17939   0.62999   0.00000  Uiso   1.00
H829   H     0.26092   0.18227   0.61526   0.00000  Uiso   1.00
H830   H     0.25834   0.11167   0.57630   0.00000  Uiso   1.00
H831   H     0.30490   0.09450   0.60228   0.00000  Uiso   1.00
H832   H     0.07679   0.14715   0.39737   0.00000  Uiso   1.00
H833   H     0.02348   0.14754   0.37262   0.00000  Uiso   1.00
H834   H     0.06360   0.18135   0.34342   0.00000  Uiso   1.00
H835   H     0.02479   0.22997   0.38995   0.00000  Uiso   1.00
H836   H     0.07115   0.06270   0.54410   0.00000  Uiso   1.00
H837   H     0.07209   0.22551   0.42276   0.00000  Uiso   1.00
H838   H     0.19272   0.00054   0.62678   0.00000  Uiso   1.00
H839   H     0.16005   0.04852   0.61812   0.00000  Uiso   1.00
H840   H     0.21872   0.09663   0.65323   0.00000  Uiso   1.00
H841   H     0.20338   0.05278   0.36323   0.00000  Uiso   1.00
H842   H     0.25007   0.04786   0.66159   0.00000  Uiso   1.00
H843   H     0.17750   0.27701   0.38965   0.00000  Uiso   1.00
H844   H     0.15405   0.32921   0.37561   0.00000  Uiso   1.00
H845   H     0.09512   0.29234   0.66365   0.00000  Uiso   1.00
H846   H     0.14369   0.27498   0.63952   0.00000  Uiso   1.00
H847   H     0.06471   0.05397   0.61000   0.00000  Uiso   1.00
H848   H     0.11467   0.23810   0.34726   0.00000  Uiso   1.00
H849   H     0.09041   0.01683   0.38972   0.00000  Uiso   1.00
H850   H     0.10658   0.07511   0.39301   0.00000  Uiso   1.00
H851   H     0.03540   0.08571   0.43265   0.00000  Uiso   1.00
H852   H     0.03246   0.06643   0.36865   0.00000  Uiso   1.00
H853   H     0.02324   0.02775   0.42040   0.00000  Uiso   1.00
H854   H     0.26614   0.00107   0.58342   0.00000  Uiso   1.00
H855   H     0.27027   0.31429   0.52055   0.00000  Uiso   1.00
H856   H     0.29136   0.24069   0.55931   0.00000  Uiso   1.00
H857   H     0.32535   0.28663   0.57822   0.00000  Uiso   1.00
H858   H     0.07937   0.13520   0.58696   0.00000  Uiso   1.00
H859   H     0.28698   0.26383   0.62055   0.00000  Uiso   1.00
H860   H     0.03385   0.12574   0.61864   0.00000  Uiso   1.00
H861   H     0.29080   0.21969   0.36356   0.00000  Uiso   1.00
H862   H     0.24942   0.19408   0.39912   0.00000  Uiso   1.00
H863   H     0.24845   0.25281   0.38087   0.00000  Uiso   1.00
H864   H     0.27274   0.25550   0.46604   0.00000  Uiso   1.00
N865   N     0.16667   0.28573   0.50000   0.00000  Uiso   1.00
N866   N     0.16667   0.04760   0.50000   0.00000  Uiso   1.00
O867   O     0.10559   0.20487   0.50000   0.00000  Uiso   1.00
O868   O     0.12257   0.28718   0.42751   0.00000  Uiso   1.00
O869   O     0.10001   0.04241   0.46189   0.00000  Uiso   1.00
O870   O     0.22107   0.28555   0.56220   0.00000  Uiso   1.00
O871   O     0.22774   0.12846   0.50000   0.00000  Uiso   1.00
O872   O     0.22774   0.20487   0.50000   0.00000  Uiso   1.00
O873   O     0.10559   0.12846   0.50000   0.00000  Uiso   1.00
O874   O     0.16667   0.20488   0.42845   0.00000  Uiso   1.00
O875   O     0.16666   0.12845   0.57155   0.00000  Uiso   1.00
O876   O     0.16666   0.20488   0.57155   0.00000  Uiso   1.00
O877   O     0.16667   0.12845   0.42845   0.00000  Uiso   1.00
O878   O     0.21099   0.04800   0.57169   0.00000  Uiso   1.00
Zn879  Zn    0.16667   0.21771   0.50000   0.00000  Uiso   1.00
Zn880  Zn    0.16667   0.11563   0.50000   0.00000  Uiso   1.00
C881   C     0.42024   0.16597   0.49859   0.00000  Uiso   1.00
C882   C     0.35476   0.18976   0.46115   0.00000  Uiso   1.00
C883   C     0.62468   0.16974   0.50295   0.00000  Uiso   1.00
C884   C     0.37607   0.16453   0.49862   0.00000  Uiso   1.00
C885   C     0.52400   0.02426   0.53406   0.00000  Uiso   1.00
C886   C     0.47578   0.30957   0.46630   0.00000  Uiso   1.00
C887   C     0.47207   0.02396   0.47015   0.00000  Uiso   1.00
C888   C     0.52650   0.30940   0.53176   0.00000  Uiso   1.00
C889   C     0.38099   0.11997   0.58213   0.00000  Uiso   1.00
C890   C     0.38419   0.06946   0.57540   0.00000  Uiso   1.00
C891   C     0.62617   0.23773   0.44110   0.00000  Uiso   1.00
C892   C     0.58004   0.16757   0.50076   0.00000  Uiso   1.00
C893   C     0.60207   0.22508   0.39336   0.00000  Uiso   1.00
C894   C     0.62314   0.12438   0.58574   0.00000  Uiso   1.00
C895   C     0.61982   0.15943   0.62564   0.00000  Uiso   1.00
C896   C     0.37643   0.20658   0.41354   0.00000  Uiso   1.00
C897   C     0.38567   0.16807   0.37987   0.00000  Uiso   1.00
C898   C     0.52598   0.03708   0.61809   0.00000  Uiso   1.00
C899   C     0.55110   0.05997   0.65994   0.00000  Uiso   1.00
C900   C     0.48042   0.29324   0.38443   0.00000  Uiso   1.00
C901   C     0.45702   0.27351   0.33928   0.00000  Uiso   1.00
C902   C     0.42137   0.04747   0.41099   0.00000  Uiso   1.00
C903   C     0.49971   0.16698   0.40631   0.00000  Uiso   1.00
C904   C     0.37530   0.05769   0.40790   0.00000  Uiso   1.00
C905   C     0.59537   0.30470   0.55964   0.00000  Uiso   1.00
C906   C     0.62667   0.27177   0.58072   0.00000  Uiso   1.00
C907   C     0.50001   0.16633   0.59369   0.00000  Uiso   1.00
C908   C     0.49973   0.16707   0.35513   0.00000  Uiso   1.00
C909   C     0.49975   0.16619   0.64485   0.00000  Uiso   1.00
C910   C     0.35601   0.14255   0.53913   0.00000  Uiso   1.00
C911   C     0.64616   0.19743   0.46769   0.00000  Uiso   1.00
C912   C     0.64588   0.14393   0.54033   0.00000  Uiso   1.00
H913   H     0.35326   0.05311   0.56763   0.00000  Uiso   1.00
H914   H     0.64956   0.26481   0.43269   0.00000  Uiso   1.00
H915   H     0.61292   0.14275   0.66216   0.00000  Uiso   1.00
H916   H     0.64940   0.17939   0.62999   0.00000  Uiso   1.00
H917   H     0.59425   0.18227   0.61526   0.00000  Uiso   1.00
H918   H     0.59167   0.11167   0.57630   0.00000  Uiso   1.00
H919   H     0.63823   0.09450   0.60228   0.00000  Uiso   1.00
H920   H     0.41013   0.14715   0.39737   0.00000  Uiso   1.00
H921   H     0.35682   0.14754   0.37262   0.00000  Uiso   1.00
H922   H     0.39693   0.18135   0.34342   0.00000  Uiso   1.00
H923   H     0.35812   0.22997   0.38995   0.00000  Uiso   1.00
H924   H     0.40448   0.06270   0.54410   0.00000  Uiso   1.00
H925   H     0.40542   0.22551   0.42276   0.00000  Uiso   1.00
H926   H     0.52605   0.00054   0.62678   0.00000  Uiso   1.00
H927   H     0.49338   0.04852   0.61812   0.00000  Uiso   1.00
H928   H     0.55206   0.09663   0.65323   0.00000  Uiso   1.00
H929   H     0.53671   0.05278   0.36323   0.00000  Uiso   1.00
H930   H     0.58340   0.04786   0.66159   0.00000  Uiso   1.00
H931   H     0.51083   0.27701   0.38965   0.00000  Uiso   1.00
H932   H     0.48739   0.32921   0.37561   0.00000  Uiso   1.00
H933   H     0.42846   0.29234   0.66365   0.00000  Uiso   1.00
H934   H     0.47703   0.27498   0.63952   0.00000  Uiso   1.00
H935   H     0.39804   0.05397   0.61000   0.00000  Uiso   1.00
H936   H     0.44800   0.23810   0.34726   0.00000  Uiso   1.00
H937   H     0.42374   0.01683   0.38972   0.00000  Uiso   1.00
H938   H     0.43991   0.07511   0.39301   0.00000  Uiso   1.00
H939   H     0.36873   0.08571   0.43265   0.00000  Uiso   1.00
H940   H     0.36579   0.06643   0.36865   0.00000  Uiso   1.00
H941   H     0.35657   0.02775   0.42040   0.00000  Uiso   1.00
H942   H     0.59947   0.00107   0.58342   0.00000  Uiso   1.00
H943   H     0.60360   0.31429   0.52055   0.00000  Uiso   1.00
H944   H     0.62469   0.24069   0.55931   0.00000  Uiso   1.00
H945   H     0.65868   0.28663   0.57822   0.00000  Uiso   1.00
H946   H     0.41270   0.13520   0.58696   0.00000  Uiso   1.00
H947   H     0.62031   0.26383   0.62055   0.00000  Uiso   1.00
H948   H     0.36718   0.12574   0.61864   0.00000  Uiso   1.00
H949   H     0.62413   0.21969   0.36356   0.00000  Uiso   1.00
H950   H     0.58275   0.19408   0.39912   0.00000  Uiso   1.00
H951   H     0.58178   0.25281   0.38087   0.00000  Uiso   1.00
H952   H     0.60607   0.25550   0.46604   0.00000  Uiso   1.00
N953   N     0.50000   0.28573   0.50000   0.00000  Uiso   1.00
N954   N     0.50000   0.04760   0.50000   0.00000  Uiso   1.00
O955   O     0.43892   0.20487   0.50000   0.00000  Uiso   1.00
O956   O     0.45590   0.28718   0.42751   0.00000  Uiso   1.00
O957   O     0.43334   0.04241   0.46189   0.00000  Uiso   1.00
O958   O     0.55441   0.28555   0.56220   0.00000  Uiso   1.00
O959   O     0.56108   0.12846   0.50000   0.00000  Uiso   1.00
O960   O     0.56108   0.20487   0.50000   0.00000  Uiso   1.00
O961   O     0.43892   0.12846   0.50000   0.00000  Uiso   1.00
O962   O     0.50000   0.20488   0.42845   0.00000  Uiso   1.00
O963   O     0.50000   0.12845   0.57155   0.00000  Uiso   1.00
O964   O     0.50000   0.20488   0.57155   0.00000  Uiso   1.00
O965   O     0.50000   0.12845   0.42845   0.00000  Uiso   1.00
O966   O     0.54432   0.04800   0.57169   0.00000  Uiso   1.00
Zn967  Zn    0.50000   0.21771   0.50000   0.00000  Uiso   1.00
Zn968  Zn    0.50000   0.11563   0.50000   0.00000  Uiso   1.00
C969   C     0.75357   0.16597   0.49859   0.00000  Uiso   1.00
C970   C     0.68809   0.18976   0.46115   0.00000  Uiso   1.00
C971   C     0.95802   0.16974   0.50295   0.00000  Uiso   1.00
C972   C     0.70941   0.16453   0.49862   0.00000  Uiso   1.00
C973   C     0.85734   0.02426   0.53406   0.00000  Uiso   1.00
C974   C     0.80912   0.30957   0.46630   0.00000  Uiso   1.00
C975   C     0.80540   0.02396   0.47015   0.00000  Uiso   1.00
C976   C     0.85984   0.30940   0.53176   0.00000  Uiso   1.00
C977   C     0.71433   0.11997   0.58213   0.00000  Uiso   1.00
C978   C     0.71752   0.06946   0.57540   0.00000  Uiso   1.00
C979   C     0.95951   0.23773   0.44110   0.00000  Uiso   1.00
C980   C     0.91337   0.16757   0.50076   0.00000  Uiso   1.00
C981   C     0.93540   0.22508   0.39336   0.00000  Uiso   1.00
C982   C     0.95647   0.12438   0.58574   0.00000  Uiso   1.00
C983   C     0.95315   0.15943   0.62564   0.00000  Uiso   1.00
C984   C     0.70976   0.20658   0.41354   0.00000  Uiso   1.00
C985   C     0.71900   0.16807   0.37987   0.00000  Uiso   1.00
C986   C     0.85931   0.03708   0.61809   0.00000  Uiso   1.00
C987   C     0.88443   0.05997   0.65994   0.00000  Uiso   1.00
C988   C     0.81376   0.29324   0.38443   0.00000  Uiso   1.00
C989   C     0.79036   0.27351   0.33928   0.00000  Uiso   1.00
C990   C     0.75470   0.04747   0.41099   0.00000  Uiso   1.00
C991   C     0.83304   0.16698   0.40631   0.00000  Uiso   1.00
C992   C     0.70864   0.05769   0.40790   0.00000  Uiso   1.00
C993   C     0.92870   0.30470   0.55964   0.00000  Uiso   1.00
C994   C     0.96000   0.27177   0.58072   0.00000  Uiso   1.00
C995   C     0.83334   0.16633   0.59369   0.00000  Uiso   1.00
C996   C     0.83306   0.16707   0.35513   0.00000  Uiso   1.00
C997   C     0.83308   0.16619   0.64485   0.00000  Uiso   1.00
C998   C     0.68934   0.14255   0.53913   0.00000  Uiso   1.00
C999   C     0.97950   0.19743   0.46769   0.00000  Uiso   1.00
C1000  C     0.97921   0.14393   0.54033   0.00000  Uiso   1.00
H1001  H     0.68660   0.05311   0.56763   0.00000  Uiso   1.00
H1002  H     0.98290   0.26481   0.43269   0.00000  Uiso   1.00
H1003  H     0.94626   0.14275   0.66216   0.00000  Uiso   1.00
H1004  H     0.98274   0.17939   0.62999   0.00000  Uiso   1.00
H1005  H     0.92758   0.18227   0.61526   0.00000  Uiso   1.00
H1006  H     0.92500   0.11167   0.57630   0.00000  Uiso   1.00
H1007  H     0.97157   0.09450   0.60228   0.00000  Uiso   1.00
H1008  H     0.74346   0.14715   0.39737   0.00000  Uiso   1.00
H1009  H     0.69015   0.14754   0.37262   0.00000  Uiso   1.00
H1010  H     0.73027   0.18135   0.34342   0.00000  Uiso   1.00
H1011  H     0.69146   0.22997   0.38995   0.00000  Uiso   1.00
H1012  H     0.73781   0.06270   0.54410   0.00000  Uiso   1.00
H1013  H     0.73875   0.22551   0.42276   0.00000  Uiso   1.00
H1014  H     0.85938   0.00054   0.62678   0.00000  Uiso   1.00
H1015  H     0.82672   0.04852   0.61812   0.00000  Uiso   1.00
H1016  H     0.88539   0.09663   0.65323   0.00000  Uiso   1.00
H1017  H     0.87005   0.05278   0.36323   0.00000  Uiso   1.00
H1018  H     0.91673   0.04786   0.66159   0.00000  Uiso   1.00
H1019  H     0.84417   0.27701   0.38965   0.00000  Uiso   1.00
H1020  H     0.82072   0.32921   0.37561   0.00000  Uiso   1.00
H1021  H     0.76179   0.29234   0.66365   0.00000  Uiso   1.00
H1022  H     0.81036   0.27498   0.63952   0.00000  Uiso   1.00
H1023  H     0.73137   0.05397   0.61000   0.00000  Uiso   1.00
H1024  H     0.78133   0.23810   0.34726   0.00000  Uiso   1.00
H1025  H     0.75708   0.01683   0.38972   0.00000  Uiso   1.00
H1026  H     0.77324   0.07511   0.39301   0.00000  Uiso   1.00
H1027  H     0.70206   0.08571   0.43265   0.00000  Uiso   1.00
H1028  H     0.69913   0.06643   0.36865   0.00000  Uiso   1.00
H1029  H     0.68991   0.02775   0.42040   0.00000  Uiso   1.00
H1030  H     0.93280   0.00107   0.58342   0.00000  Uiso   1.00
H1031  H     0.93694   0.31429   0.52055   0.00000  Uiso   1.00
H1032  H     0.95803   0.24069   0.55931   0.00000  Uiso   1.00
H1033  H     0.99202   0.28663   0.57822   0.00000  Uiso   1.00
H1034  H     0.74603   0.13520   0.58696   0.00000  Uiso   1.00
H1035  H     0.95364   0.26383   0.62055   0.00000  Uiso   1.00
H1036  H     0.70051   0.12574   0.61864   0.00000  Uiso   1.00
H1037  H     0.95746   0.21969   0.36356   0.00000  Uiso   1.00
H1038  H     0.91608   0.19408   0.39912   0.00000  Uiso   1.00
H1039  H     0.91512   0.25281   0.38087   0.00000  Uiso   1.00
H1040  H     0.93940   0.25550   0.46604   0.00000  Uiso   1.00
N1041  N     0.83333   0.28573   0.50000   0.00000  Uiso   1.00
N1042  N     0.83333   0.04760   0.50000   0.00000  Uiso   1.00
O1043  O     0.77226   0.20487   0.50000   0.00000  Uiso   1.00
O1044  O     0.78924   0.28718   0.42751   0.00000  Uiso   1.00
O1045  O     0.76668   0.04241   0.46189   0.00000  Uiso   1.00
O1046  O     0.88774   0.28555   0.56220   0.00000  Uiso   1.00
O1047  O     0.89441   0.12846   0.50000   0.00000  Uiso   1.00
O1048  O     0.89441   0.20487   0.50000   0.00000  Uiso   1.00
O1049  O     0.77226   0.12846   0.50000   0.00000  Uiso   1.00
O1050  O     0.83334   0.20488   0.42845   0.00000  Uiso   1.00
O1051  O     0.83333   0.12845   0.57155   0.00000  Uiso   1.00
O1052  O     0.83333   0.20488   0.57155   0.00000  Uiso   1.00
O1053  O     0.83334   0.12845   0.42845   0.00000  Uiso   1.00
O1054  O     0.87766   0.04800   0.57169   0.00000  Uiso   1.00
Zn1055 Zn    0.83333   0.21771   0.50000   0.00000  Uiso   1.00
Zn1056 Zn    0.83333   0.11563   0.50000   0.00000  Uiso   1.00
C1057  C     0.08690   0.49930   0.49859   0.00000  Uiso   1.00
C1058  C     0.02142   0.52309   0.46115   0.00000  Uiso   1.00
C1059  C     0.29135   0.50307   0.50295   0.00000  Uiso   1.00
C1060  C     0.04274   0.49786   0.49862   0.00000  Uiso   1.00
C1061  C     0.19067   0.35759   0.53406   0.00000  Uiso   1.00
C1062  C     0.14245   0.64291   0.46630   0.00000  Uiso   1.00
C1063  C     0.13873   0.35729   0.47015   0.00000  Uiso   1.00
C1064  C     0.19317   0.64273   0.53176   0.00000  Uiso   1.00
C1065  C     0.04766   0.45330   0.58213   0.00000  Uiso   1.00
C1066  C     0.05086   0.40279   0.57540   0.00000  Uiso   1.00
C1067  C     0.29284   0.57107   0.44110   0.00000  Uiso   1.00
C1068  C     0.24670   0.50090   0.50076   0.00000  Uiso   1.00
C1069  C     0.26873   0.55841   0.39336   0.00000  Uiso   1.00
C1070  C     0.28981   0.45772   0.58574   0.00000  Uiso   1.00
C1071  C     0.28648   0.49276   0.62564   0.00000  Uiso   1.00
C1072  C     0.04310   0.53992   0.41354   0.00000  Uiso   1.00
C1073  C     0.05233   0.50141   0.37987   0.00000  Uiso   1.00
C1074  C     0.19265   0.37041   0.61809   0.00000  Uiso   1.00
C1075  C     0.21777   0.39330   0.65994   0.00000  Uiso   1.00
C1076  C     0.14709   0.62658   0.38443   0.00000  Uiso   1.00
C1077  C     0.12369   0.60684   0.33928   0.00000  Uiso   1.00
C1078  C     0.08803   0.38080   0.41099   0.00000  Uiso   1.00
C1079  C     0.16638   0.50032   0.40631   0.00000  Uiso   1.00
C1080  C     0.04197   0.39103   0.40790   0.00000  Uiso   1.00
C1081  C     0.26204   0.63803   0.55964   0.00000  Uiso   1.00
C1082  C     0.29333   0.60510   0.58072   0.00000  Uiso   1.00
C1083  C     0.16667   0.49966   0.59369   0.00000  Uiso   1.00
C1084  C     0.16640   0.50040   0.35513   0.00000  Uiso   1.00
C1085  C     0.16641   0.49952   0.64485   0.00000  Uiso   1.00
C1086  C     0.02268   0.47589   0.53913   0.00000  Uiso   1.00
C1087  C     0.31283   0.53077   0.46769   0.00000  Uiso   1.00
C1088  C     0.31254   0.47727   0.54033   0.00000  Uiso   1.00
H1089  H     0.01993   0.38644   0.56763   0.00000  Uiso   1.00
H1090  H     0.31623   0.59815   0.43269   0.00000  Uiso   1.00
H1091  H     0.27959   0.47608   0.66216   0.00000  Uiso   1.00
H1092  H     0.31607   0.51272   0.62999   0.00000  Uiso   1.00
H1093  H     0.26092   0.51560   0.61526   0.00000  Uiso   1.00
H1094  H     0.25834   0.44501   0.57630   0.00000  Uiso   1.00
H1095  H     0.30490   0.42784   0.60228   0.00000  Uiso   1.00
H1096  H     0.07679   0.48048   0.39737   0.00000  Uiso   1.00
H1097  H     0.02348   0.48088   0.37262   0.00000  Uiso   1.00
H1098  H     0.06360   0.51468   0.34342   0.00000  Uiso   1.00
H1099  H     0.02479   0.56331   0.38995   0.00000  Uiso   1.00
H1100  H     0.07115   0.39603   0.54410   0.00000  Uiso   1.00
H1101  H     0.07209   0.55884   0.42276   0.00000  Uiso   1.00
H1102  H     0.19272   0.33388   0.62678   0.00000  Uiso   1.00
H1103  H     0.16005   0.38185   0.61812   0.00000  Uiso   1.00
H1104  H     0.21872   0.42997   0.65323   0.00000  Uiso   1.00
H1105  H     0.20338   0.38611   0.36323   0.00000  Uiso   1.00
H1106  H     0.25007   0.38119   0.66159   0.00000  Uiso   1.00
H1107  H     0.17750   0.61035   0.38965   0.00000  Uiso   1.00
H1108  H     0.15405   0.66254   0.37561   0.00000  Uiso   1.00
H1109  H     0.09512   0.62568   0.66365   0.00000  Uiso   1.00
H1110  H     0.14369   0.60831   0.63952   0.00000  Uiso   1.00
H1111  H     0.06471   0.38730   0.61000   0.00000  Uiso   1.00
H1112  H     0.11467   0.57143   0.34726   0.00000  Uiso   1.00
H1113  H     0.09041   0.35017   0.38972   0.00000  Uiso   1.00
H1114  H     0.10658   0.40844   0.39301   0.00000  Uiso   1.00
H1115  H     0.03540   0.41905   0.43265   0.00000  Uiso   1.00
H1116  H     0.03246   0.39976   0.36865   0.00000  Uiso   1.00
H1117  H     0.02324   0.36108   0.42040   0.00000  Uiso   1.00
H1118  H     0.26614   0.33440   0.58342   0.00000  Uiso   1.00
H1119  H     0.27027   0.64762   0.52055   0.00000  Uiso   1.00
H1120  H     0.29136   0.57403   0.55931   0.00000  Uiso   1.00
H1121  H     0.32535   0.61997   0.57822   0.00000  Uiso   1.00
H1122  H     0.07937   0.46853   0.58696   0.00000  Uiso   1.00
H1123  H     0.28698   0.59716   0.62055   0.00000  Uiso   1.00
H1124  H     0.03385   0.45908   0.61864   0.00000  Uiso   1.00
H1125  H     0.29080   0.55302   0.36356   0.00000  Uiso   1.00
H1126  H     0.24942   0.52741   0.39912   0.00000  Uiso   1.00
H1127  H     0.24845   0.58614   0.38087   0.00000  Uiso   1.00
H1128  H     0.27274   0.58883   0.46604   0.00000  Uiso   1.00
N1129  N     0.16667   0.61907   0.50000   0.00000  Uiso   1.00
N1130  N     0.16667   0.38093   0.50000   0.00000  Uiso   1.00
O1131  O     0.10559   0.53821   0.50000   0.00000  Uiso   1.00
O1132  O     0.12257   0.62052   0.42751   0.00000  Uiso   1.00
O1133  O     0.10001   0.37575   0.46189   0.00000  Uiso   1.00
O1134  O     0.22107   0.61889   0.56220   0.00000  Uiso   1.00
O1135  O     0.22774   0.46179   0.50000   0.00000  Uiso   1.00
O1136  O     0.22774   0.53821   0.50000   0.00000  Uiso   1.00
O1137  O     0.10559   0.46179   0.50000   0.00000  Uiso   1.00
O1138  O     0.16667   0.53821   0.42845   0.00000  Uiso   1.00
O1139  O     0.16666   0.46179   0.57155   0.00000  Uiso   1.00
O1140  O     0.16666   0.53821   0.57155   0.00000  Uiso   1.00
O1141  O     0.16667   0.46179   0.42845   0.00000  Uiso   1.00
O1142  O     0.21099   0.38134   0.57169   0.00000  Uiso   1.00
Zn1143 Zn    0.16667   0.55104   0.50000   0.00000  Uiso   1.00
Zn1144 Zn    0.16667   0.44896   0.50000   0.00000  Uiso   1.00
C1145  C     0.42024   0.49930   0.49859   0.00000  Uiso   1.00
C1146  C     0.35476   0.52309   0.46115   0.00000  Uiso   1.00
C1147  C     0.62468   0.50307   0.50295   0.00000  Uiso   1.00
C1148  C     0.37607   0.49786   0.49862   0.00000  Uiso   1.00
C1149  C     0.52400   0.35759   0.53406   0.00000  Uiso   1.00
C1150  C     0.47578   0.64291   0.46630   0.00000  Uiso   1.00
C1151  C     0.47207   0.35729   0.47015   0.00000  Uiso   1.00
C1152  C     0.52650   0.64273   0.53176   0.00000  Uiso   1.00
C1153  C     0.38099   0.45330   0.58213   0.00000  Uiso   1.00
C1154  C     0.38419   0.40279   0.57540   0.00000  Uiso   1.00
C1155  C     0.62617   0.57107   0.44110   0.00000  Uiso   1.00
C1156  C     0.58004   0.50090   0.50076   0.00000  Uiso   1.00
C1157  C     0.60207   0.55841   0.39336   0.00000  Uiso   1.00
C1158  C     0.62314   0.45772   0.58574   0.00000  Uiso   1.00
C1159  C     0.61982   0.49276   0.62564   0.00000  Uiso   1.00
C1160  C     0.37643   0.53992   0.41354   0.00000  Uiso   1.00
C1161  C     0.38567   0.50141   0.37987   0.00000  Uiso   1.00
C1162  C     0.52598   0.37041   0.61809   0.00000  Uiso   1.00
C1163  C     0.55110   0.39330   0.65994   0.00000  Uiso   1.00
C1164  C     0.48042   0.62658   0.38443   0.00000  Uiso   1.00
C1165  C     0.45702   0.60684   0.33928   0.00000  Uiso   1.00
C1166  C     0.42137   0.38080   0.41099   0.00000  Uiso   1.00
C1167  C     0.49971   0.50032   0.40631   0.00000  Uiso   1.00
C1168  C     0.37530   0.39103   0.40790   0.00000  Uiso   1.00
C1169  C     0.59537   0.63803   0.55964   0.00000  Uiso   1.00
C1170  C     0.62667   0.60510   0.58072   0.00000  Uiso   1.00
C1171  C     0.50001   0.49966   0.59369   0.00000  Uiso   1.00
C1172  C     0.49973   0.50040   0.35513   0.00000  Uiso   1.00
C1173  C     0.49975   0.49952   0.64485   0.00000  Uiso   1.00
C1174  C     0.35601   0.47589   0.53913   0.00000  Uiso   1.00
C1175  C     0.64616   0.53077   0.46769   0.00000  Uiso   1.00
C1176  C     0.64588   0.47727   0.54033   0.00000  Uiso   1.00
H1177  H     0.35326   0.38644   0.56763   0.00000  Uiso   1.00
H1178  H     0.64956   0.59815   0.43269   0.00000  Uiso   1.00
H1179  H     0.61292   0.47608   0.66216   0.00000  Uiso   1.00
H1180  H     0.64940   0.51272   0.62999   0.00000  Uiso   1.00
H1181  H     0.59425   0.51560   0.61526   0.00000  Uiso   1.00
H1182  H     0.59167   0.44501   0.57630   0.00000  Uiso   1.00
H1183  H     0.63823   0.42784   0.60228   0.00000  Uiso   1.00
H1184  H     0.41013   0.48048   0.39737   0.00000  Uiso   1.00
H1185  H     0.35682   0.48088   0.37262   0.00000  Uiso   1.00
H1186  H     0.39693   0.51468   0.34342   0.00000  Uiso   1.00
H1187  H     0.35812   0.56331   0.38995   0.00000  Uiso   1.00
H1188  H     0.40448   0.39603   0.54410   0.00000  Uiso   1.00
H1189  H     0.40542   0.55884   0.42276   0.00000  Uiso   1.00
H1190  H     0.52605   0.33388   0.62678   0.00000  Uiso   1.00
H1191  H     0.49338   0.38185   0.61812   0.00000  Uiso   1.00
H1192  H     0.55206   0.42997   0.65323   0.00000  Uiso   1.00
H1193  H     0.53671   0.38611   0.36323   0.00000  Uiso   1.00
H1194  H     0.58340   0.38119   0.66159   0.00000  Uiso   1.00
H1195  H     0.51083   0.61035   0.38965   0.00000  Uiso   1.00
H1196  H     0.48739   0.66254   0.37561   0.00000  Uiso   1.00
H1197  H     0.42846   0.62568   0.66365   0.00000  Uiso   1.00
H1198  H     0.47703   0.60831   0.63952   0.00000  Uiso   1.00
H1199  H     0.39804   0.38730   0.61000   0.00000  Uiso   1.00
H1200  H     0.44800   0.57143   0.34726   0.00000  Uiso   1.00
H1201  H     0.42374   0.35017   0.38972   0.00000  Uiso   1.00
H1202  H     0.43991   0.40844   0.39301   0.00000  Uiso   1.00
H1203  H     0.36873   0.41905   0.43265   0.00000  Uiso   1.00
H1204  H     0.36579   0.39976   0.36865   0.00000  Uiso   1.00
H1205  H     0.35657   0.36108   0.42040   0.00000  Uiso   1.00
H1206  H     0.59947   0.33440   0.58342   0.00000  Uiso   1.00
H1207  H     0.60360   0.64762   0.52055   0.00000  Uiso   1.00
H1208  H     0.62469   0.57403   0.55931   0.00000  Uiso   1.00
H1209  H     0.65868   0.61997   0.57822   0.00000  Uiso   1.00
H1210  H     0.41270   0.46853   0.58696   0.00000  Uiso   1.00
H1211  H     0.62031   0.59716   0.62055   0.00000  Uiso   1.00
H1212  H     0.36718   0.45908   0.61864   0.00000  Uiso   1.00
H1213  H     0.62413   0.55302   0.36356   0.00000  Uiso   1.00
H1214  H     0.58275   0.52741   0.39912   0.00000  Uiso   1.00
H1215  H     0.58178   0.58614   0.38087   0.00000  Uiso   1.00
H1216  H     0.60607   0.58883   0.46604   0.00000  Uiso   1.00
N1217  N     0.50000   0.61907   0.50000   0.00000  Uiso   1.00
N1218  N     0.50000   0.38093   0.50000   0.00000  Uiso   1.00
O1219  O     0.43892   0.53821   0.50000   0.00000  Uiso   1.00
O1220  O     0.45590   0.62052   0.42751   0.00000  Uiso   1.00
O1221  O     0.43334   0.37575   0.46189   0.00000  Uiso   1.00
O1222  O     0.55441   0.61889   0.56220   0.00000  Uiso   1.00
O1223  O     0.56108   0.46179   0.50000   0.00000  Uiso   1.00
O1224  O     0.56108   0.53821   0.50000   0.00000  Uiso   1.00
O1225  O     0.43892   0.46179   0.50000   0.00000  Uiso   1.00
O1226  O     0.50000   0.53821   0.42845   0.00000  Uiso   1.00
O1227  O     0.50000   0.46179   0.57155   0.00000  Uiso   1.00
O1228  O     0.50000   0.53821   0.57155   0.00000  Uiso   1.00
O1229  O     0.50000   0.46179   0.42845   0.00000  Uiso   1.00
O1230  O     0.54432   0.38134   0.57169   0.00000  Uiso   1.00
Zn1231 Zn    0.50000   0.55104   0.50000   0.00000  Uiso   1.00
Zn1232 Zn    0.50000   0.44896   0.50000   0.00000  Uiso   1.00
C1233  C     0.75357   0.49930   0.49859   0.00000  Uiso   1.00
C1234  C     0.68809   0.52309   0.46115   0.00000  Uiso   1.00
C1235  C     0.95802   0.50307   0.50295   0.00000  Uiso   1.00
C1236  C     0.70941   0.49786   0.49862   0.00000  Uiso   1.00
C1237  C     0.85734   0.35759   0.53406   0.00000  Uiso   1.00
C1238  C     0.80912   0.64291   0.46630   0.00000  Uiso   1.00
C1239  C     0.80540   0.35729   0.47015   0.00000  Uiso   1.00
C1240  C     0.85984   0.64273   0.53176   0.00000  Uiso   1.00
C1241  C     0.71433   0.45330   0.58213   0.00000  Uiso   1.00
C1242  C     0.71752   0.40279   0.57540   0.00000  Uiso   1.00
C1243  C     0.95951   0.57107   0.44110   0.00000  Uiso   1.00
C1244  C     0.91337   0.50090   0.50076   0.00000  Uiso   1.00
C1245  C     0.93540   0.55841   0.39336   0.00000  Uiso   1.00
C1246  C     0.95647   0.45772   0.58574   0.00000  Uiso   1.00
C1247  C     0.95315   0.49276   0.62564   0.00000  Uiso   1.00
C1248  C     0.70976   0.53992   0.41354   0.00000  Uiso   1.00
C1249  C     0.71900   0.50141   0.37987   0.00000  Uiso   1.00
C1250  C     0.85931   0.37041   0.61809   0.00000  Uiso   1.00
C1251  C     0.88443   0.39330   0.65994   0.00000  Uiso   1.00
C1252  C     0.81376   0.62658   0.38443   0.00000  Uiso   1.00
C1253  C     0.79036   0.60684   0.33928   0.00000  Uiso   1.00
C1254  C     0.75470   0.38080   0.41099   0.00000  Uiso   1.00
C1255  C     0.83304   0.50032   0.40631   0.00000  Uiso   1.00
C1256  C     0.70864   0.39103   0.40790   0.00000  Uiso   1.00
C1257  C     0.92870   0.63803   0.55964   0.00000  Uiso   1.00
C1258  C     0.96000   0.60510   0.58072   0.00000  Uiso   1.00
C1259  C     0.83334   0.49966   0.59369   0.00000  Uiso   1.00
C1260  C     0.83306   0.50040   0.35513   0.00000  Uiso   1.00
C1261  C     0.83308   0.49952   0.64485   0.00000  Uiso   1.00
C1262  C     0.68934   0.47589   0.53913   0.00000  Uiso   1.00
C1263  C     0.97950   0.53077   0.46769   0.00000  Uiso   1.00
C1264  C     0.97921   0.47727   0.54033   0.00000  Uiso   1.00
H1265  H     0.68660   0.38644   0.56763   0.00000  Uiso   1.00
H1266  H     0.98290   0.59815   0.43269   0.00000  Uiso   1.00
H1267  H     0.94626   0.47608   0.66216   0.00000  Uiso   1.00
H1268  H     0.98274   0.51272   0.62999   0.00000  Uiso   1.00
H1269  H     0.92758   0.51560   0.61526   0.00000  Uiso   1.00
H1270  H     0.92500   0.44501   0.57630   0.00000  Uiso   1.00
H1271  H     0.97157   0.42784   0.60228   0.00000  Uiso   1.00
H1272  H     0.74346   0.48048   0.39737   0.00000  Uiso   1.00
H1273  H     0.69015   0.48088   0.37262   0.00000  Uiso   1.00
H1274  H     0.73027   0.51468   0.34342   0.00000  Uiso   1.00
H1275  H     0.69146   0.56331   0.38995   0.00000  Uiso   1.00
H1276  H     0.73781   0.39603   0.54410   0.00000  Uiso   1.00
H1277  H     0.73875   0.55884   0.42276   0.00000  Uiso   1.00
H1278  H     0.85938   0.33388   0.62678   0.00000  Uiso   1.00
H1279  H     0.82672   0.38185   0.61812   0.00000  Uiso   1.00
H1280  H     0.88539   0.42997   0.65323   0.00000  Uiso   1.00
H1281  H     0.87005   0.38611   0.36323   0.00000  Uiso   1.00
H1282  H     0.91673   0.38119   0.66159   0.00000  Uiso   1.00
H1283  H     0.84417   0.61035   0.38965   0.00000  Uiso   1.00
H1284  H     0.82072   0.66254   0.37561   0.00000  Uiso   1.00
H1285  H     0.76179   0.62568   0.66365   0.00000  Uiso   1.00
H1286  H     0.81036   0.60831   0.63952   0.00000  Uiso   1.00
H1287  H     0.73137   0.38730   0.61000   0.00000  Uiso   1.00
H1288  H     0.78133   0.57143   0.34726   0.00000  Uiso   1.00
H1289  H     0.75708   0.35017   0.38972   0.00000  Uiso   1.00
H1290  H     0.77324   0.40844   0.39301   0.00000  Uiso   1.00
H1291  H     0.70206   0.41905   0.43265   0.00000  Uiso   1.00
H1292  H     0.69913   0.39976   0.36865   0.00000  Uiso   1.00
H1293  H     0.68991   0.36108   0.42040   0.00000  Uiso   1.00
H1294  H     0.93280   0.33440   0.58342   0.00000  Uiso   1.00
H1295  H     0.93694   0.64762   0.52055   0.00000  Uiso   1.00
H1296  H     0.95803   0.57403   0.55931   0.00000  Uiso   1.00
H1297  H     0.99202   0.61997   0.57822   0.00000  Uiso   1.00
H1298  H     0.74603   0.46853   0.58696   0.00000  Uiso   1.00
H1299  H     0.95364   0.59716   0.62055   0.00000  Uiso   1.00
H1300  H     0.70051   0.45908   0.61864   0.00000  Uiso   1.00
H1301  H     0.95746   0.55302   0.36356   0.00000  Uiso   1.00
H1302  H     0.91608   0.52741   0.39912   0.00000  Uiso   1.00
H1303  H     0.91512   0.58614   0.38087   0.00000  Uiso   1.00
H1304  H     0.93940   0.58883   0.46604   0.00000  Uiso   1.00
N1305  N     0.83333   0.61907   0.50000   0.00000  Uiso   1.00
N1306  N     0.83333   0.38093   0.50000   0.00000  Uiso   1.00
O1307  O     0.77226   0.53821   0.50000   0.00000  Uiso   1.00
O1308  O     0.78924   0.62052   0.42751   0.00000  Uiso   1.00
O1309  O     0.76668   0.37575   0.46189   0.00000  Uiso   1.00
O1310  O     0.88774   0.61889   0.56220   0.00000  Uiso   1.00
O1311  O     0.89441   0.46179   0.50000   0.00000  Uiso   1.00
O1312  O     0.89441   0.53821   0.50000   0.00000  Uiso   1.00
O1313  O     0.77226   0.46179   0.50000   0.00000  Uiso   1.00
O1314  O     0.83334   0.53821   0.42845   0.00000  Uiso   1.00
O1315  O     0.83333   0.46179   0.57155   0.00000  Uiso   1.00
O1316  O     0.83333   0.53821   0.57155   0.00000  Uiso   1.00
O1317  O     0.83334   0.46179   0.42845   0.00000  Uiso   1.00
O1318  O     0.87766   0.38134   0.57169   0.00000  Uiso   1.00
Zn1319 Zn    0.83333   0.55104   0.50000   0.00000  Uiso   1.00
Zn1320 Zn    0.83333   0.44896   0.50000   0.00000  Uiso   1.00
C1321  C     0.08690   0.83264   0.49859   0.00000  Uiso   1.00
C1322  C     0.02142   0.85642   0.46115   0.00000  Uiso   1.00
C1323  C     0.29135   0.83641   0.50295   0.00000  Uiso   1.00
C1324  C     0.04274   0.83119   0.49862   0.00000  Uiso   1.00
C1325  C     0.19067   0.69093   0.53406   0.00000  Uiso   1.00
C1326  C     0.14245   0.97624   0.46630   0.00000  Uiso   1.00
C1327  C     0.13873   0.69062   0.47015   0.00000  Uiso   1.00
C1328  C     0.19317   0.97607   0.53176   0.00000  Uiso   1.00
C1329  C     0.04766   0.78663   0.58213   0.00000  Uiso   1.00
C1330  C     0.05086   0.73612   0.57540   0.00000  Uiso   1.00
C1331  C     0.29284   0.90440   0.44110   0.00000  Uiso   1.00
C1332  C     0.24670   0.83423   0.50076   0.00000  Uiso   1.00
C1333  C     0.26873   0.89174   0.39336   0.00000  Uiso   1.00
C1334  C     0.28981   0.79105   0.58574   0.00000  Uiso   1.00
C1335  C     0.28648   0.82609   0.62564   0.00000  Uiso   1.00
C1336  C     0.04310   0.87325   0.41354   0.00000  Uiso   1.00
C1337  C     0.05233   0.83474   0.37987   0.00000  Uiso   1.00
C1338  C     0.19265   0.70374   0.61809   0.00000  Uiso   1.00
C1339  C     0.21777   0.72663   0.65994   0.00000  Uiso   1.00
C1340  C     0.14709   0.95991   0.38443   0.00000  Uiso   1.00
C1341  C     0.12369   0.94017   0.33928   0.00000  Uiso   1.00
C1342  C     0.08803   0.71414   0.41099   0.00000  Uiso   1.00
C1343  C     0.16638   0.83365   0.40631   0.00000  Uiso   1.00
C1344  C     0.04197   0.72436   0.40790   0.00000  Uiso   1.00
C1345  C     0.26204   0.97137   0.55964   0.00000  Uiso   1.00
C1346  C     0.29333   0.93844   0.58072   0.00000  Uiso   1.00
C1347  C     0.16667   0.83299   0.59369   0.00000  Uiso   1.00
C1348  C     0.16640   0.83373   0.35513   0.00000  Uiso   1.00
C1349  C     0.16641   0.83286   0.64485   0.00000  Uiso   1.00
C1350  C     0.02268   0.80922   0.53913   0.00000  Uiso   1.00
C1351  C     0.31283   0.86410   0.46769   0.00000  Uiso   1.00
C1352  C     0.31254   0.81060   0.54033   0.00000  Uiso   1.00
H1353  H     0.01993   0.71977   0.56763   0.00000  Uiso   1.00
H1354  H     0.31623   0.93148   0.43269   0.00000  Uiso   1.00
H1355  H     0.27959   0.80941   0.66216   0.00000  Uiso   1.00
H1356  H     0.31607   0.84605   0.62999   0.00000  Uiso   1.00
H1357  H     0.26092   0.84894   0.61526   0.00000  Uiso   1.00
H1358  H     0.25834   0.77834   0.57630   0.00000  Uiso   1.00
H1359  H     0.30490   0.76117   0.60228   0.00000  Uiso   1.00
H1360  H     0.07679   0.81382   0.39737   0.00000  Uiso   1.00
H1361  H     0.02348   0.81421   0.37262   0.00000  Uiso   1.00
H1362  H     0.06360   0.84802   0.34342   0.00000  Uiso   1.00
H1363  H     0.02479   0.89664   0.38995   0.00000  Uiso   1.00
H1364  H     0.07115   0.72937   0.54410   0.00000  Uiso   1.00
H1365  H     0.07209   0.89218   0.42276   0.00000  Uiso   1.00
H1366  H     0.19272   0.66721   0.62678   0.00000  Uiso   1.00
H1367  H     0.16005   0.71519   0.61812   0.00000  Uiso   1.00
H1368  H     0.21872   0.76330   0.65323   0.00000  Uiso   1.00
H1369  H     0.20338   0.71944   0.36323   0.00000  Uiso   1.00
H1370  H     0.25007   0.71453   0.66159   0.00000  Uiso   1.00
H1371  H     0.17750   0.94368   0.38965   0.00000  Uiso   1.00
H1372  H     0.15405   0.99587   0.37561   0.00000  Uiso   1.00
H1373  H     0.09512   0.95901   0.66365   0.00000  Uiso   1.00
H1374  H     0.14369   0.94165   0.63952   0.00000  Uiso   1.00
H1375  H     0.06471   0.72064   0.61000   0.00000  Uiso   1.00
H1376  H     0.11467   0.90477   0.34726   0.00000  Uiso   1.00
H1377  H     0.09041   0.68350   0.38972   0.00000  Uiso   1.00
H1378  H     0.10658   0.74178   0.39301   0.00000  Uiso   1.00
H1379  H     0.03540   0.75238   0.43265   0.00000  Uiso   1.00
H1380  H     0.03246   0.73310   0.36865   0.00000  Uiso   1.00
H1381  H     0.02324   0.69441   0.42040   0.00000  Uiso   1.00
H1382  H     0.26614   0.66773   0.58342   0.00000  Uiso   1.00
H1383  H     0.27027   0.98096   0.52055   0.00000  Uiso   1.00
H1384  H     0.29136   0.90736   0.55931   0.00000  Uiso   1.00
H1385  H     0.32535   0.95330   0.57822   0.00000  Uiso   1.00
H1386  H     0.07937   0.80186   0.58696   0.00000  Uiso   1.00
H1387  H     0.28698   0.93050   0.62055   0.00000  Uiso   1.00
H1388  H     0.03385   0.79241   0.61864   0.00000  Uiso   1.00
H1389  H     0.29080   0.88635   0.36356   0.00000  Uiso   1.00
H1390  H     0.24942   0.86074   0.39912   0.00000  Uiso   1.00
H1391  H     0.24845   0.91947   0.38087   0.00000  Uiso   1.00
H1392  H     0.27274   0.92216   0.46604   0.00000  Uiso   1.00
N1393  N     0.16667   0.95240   0.50000   0.00000  Uiso   1.00
N1394  N     0.16667   0.71427   0.50000   0.00000  Uiso   1.00
O1395  O     0.10559   0.87154   0.50000   0.00000  Uiso   1.00
O1396  O     0.12257   0.95385   0.42751   0.00000  Uiso   1.00
O1397  O     0.10001   0.70908   0.46189   0.00000  Uiso   1.00
O1398  O     0.22107   0.95222   0.56220   0.00000  Uiso   1.00
O1399  O     0.22774   0.79513   0.50000   0.00000  Uiso   1.00
O1400  O     0.22774   0.87154   0.50000   0.00000  Uiso   1.00
O1401  O     0.10559   0.79513   0.50000   0.00000  Uiso   1.00
O1402  O     0.16667   0.87155   0.42845   0.00000  Uiso   1.00
O1403  O     0.16666   0.79512   0.57155   0.00000  Uiso   1.00
O1404  O     0.16666   0.87155   0.57155   0.00000  Uiso   1.00
O1405  O     0.16667   0.79512   0.42845   0.00000  Uiso   1.00
O1406  O     0.21099   0.71467   0.57169   0.00000  Uiso   1.00
Zn1407 Zn    0.16667   0.88437   0.50000   0.00000  Uiso   1.00
Zn1408 Zn    0.16667   0.78229   0.50000   0.00000  Uiso   1.00
C1409  C     0.42024   0.83264   0.49859   0.00000  Uiso   1.00
C1410  C     0.35476   0.85642   0.46115   0.00000  Uiso   1.00
C1411  C     0.62468   0.83641   0.50295   0.00000  Uiso   1.00
C1412  C     0.37607   0.83119   0.49862   0.00000  Uiso   1.00
C1413  C     0.52400   0.69093   0.53406   0.00000  Uiso   1.00
C1414  C     0.47578   0.97624   0.46630   0.00000  Uiso   1.00
C1415  C     0.47207   0.69062   0.47015   0.00000  Uiso   1.00
C1416  C     0.52650   0.97607   0.53176   0.00000  Uiso   1.00
C1417  C     0.38099   0.78663   0.58213   0.00000  Uiso   1.00
C1418  C     0.38419   0.73612   0.57540   0.00000  Uiso   1.00
C1419  C     0.62617   0.90440   0.44110   0.00000  Uiso   1.00
C1420  C     0.58004   0.83423   0.50076   0.00000  Uiso   1.00
C1421  C     0.60207   0.89174   0.39336   0.00000  Uiso   1.00
C1422  C     0.62314   0.79105   0.58574   0.00000  Uiso   1.00
C1423  C     0.61982   0.82609   0.62564   0.00000  Uiso   1.00
C1424  C     0.37643   0.87325   0.41354   0.00000  Uiso   1.00
C1425  C     0.38567   0.83474   0.37987   0.00000  Uiso   1.00
C1426  C     0.52598   0.70374   0.61809   0.00000  Uiso   1.00
C1427  C     0.55110   0.72663   0.65994   0.00000  Uiso   1.00
C1428  C     0.48042   0.95991   0.38443   0.00000  Uiso   1.00
C1429  C     0.45702   0.94017   0.33928   0.00000  Uiso   1.00
C1430  C     0.42137   0.71414   0.41099   0.00000  Uiso   1.00
C1431  C     0.49971   0.83365   0.40631   0.00000  Uiso   1.00
C1432  C     0.37530   0.72436   0.40790   0.00000  Uiso   1.00
C1433  C     0.59537   0.97137   0.55964   0.00000  Uiso   1.00
C1434  C     0.62667   0.93844   0.58072   0.00000  Uiso   1.00
C1435  C     0.50001   0.83299   0.59369   0.00000  Uiso   1.00
C1436  C     0.49973   0.83373   0.35513   0.00000  Uiso   1.00
C1437  C     0.49975   0.83286   0.64485   0.00000  Uiso   1.00
C1438  C     0.35601   0.80922   0.53913   0.00000  Uiso   1.00
C1439  C     0.64616   0.86410   0.46769   0.00000  Uiso   1.00
C1440  C     0.64588   0.81060   0.54033   0.00000  Uiso   1.00
H1441  H     0.35326   0.71977   0.56763   0.00000  Uiso   1.00
H1442  H     0.64956   0.93148   0.43269   0.00000  Uiso   1.00
H1443  H     0.61292   0.80941   0.66216   0.00000  Uiso   1.00
H1444  H     0.64940   0.84605   0.62999   0.00000  Uiso   1.00
H1445  H     0.59425   0.84894   0.61526   0.00000  Uiso   1.00
H1446  H     0.59167   0.77834   0.57630   0.00000  Uiso   1.00
H1447  H     0.63823   0.76117   0.60228   0.00000  Uiso   1.00
H1448  H     0.41013   0.81382   0.39737   0.00000  Uiso   1.00
H1449  H     0.35682   0.81421   0.37262   0.00000  Uiso   1.00
H1450  H     0.39693   0.84802   0.34342   0.00000  Uiso   1.00
H1451  H     0.35812   0.89664   0.38995   0.00000  Uiso   1.00
H1452  H     0.40448   0.72937   0.54410   0.00000  Uiso   1.00
H1453  H     0.40542   0.89218   0.42276   0.00000  Uiso   1.00
H1454  H     0.52605   0.66721   0.62678   0.00000  Uiso   1.00
H1455  H     0.49338   0.71519   0.61812   0.00000  Uiso   1.00
H1456  H     0.55206   0.76330   0.65323   0.00000  Uiso   1.00
H1457  H     0.53671   0.71944   0.36323   0.00000  Uiso   1.00
H1458  H     0.58340   0.71453   0.66159   0.00000  Uiso   1.00
H1459  H     0.51083   0.94368   0.38965   0.00000  Uiso   1.00
H1460  H     0.48739   0.99587   0.37561   0.00000  Uiso   1.00
H1461  H     0.42846   0.95901   0.66365   0.00000  Uiso   1.00
H1462  H     0.47703   0.94165   0.63952   0.00000  Uiso   1.00
H1463  H     0.39804   0.72064   0.61000   0.00000  Uiso   1.00
H1464  H     0.44800   0.90477   0.34726   0.00000  Uiso   1.00
H1465  H     0.42374   0.68350   0.38972   0.00000  Uiso   1.00
H1466  H     0.43991   0.74178   0.39301   0.00000  Uiso   1.00
H1467  H     0.36873   0.75238   0.43265   0.00000  Uiso   1.00
H1468  H     0.36579   0.73310   0.36865   0.00000  Uiso   1.00
H1469  H     0.35657   0.69441   0.42040   0.00000  Uiso   1.00
H1470  H     0.59947   0.66773   0.58342   0.00000  Uiso   1.00
H1471  H     0.60360   0.98096   0.52055   0.00000  Uiso   1.00
H1472  H     0.62469   0.90736   0.55931   0.00000  Uiso   1.00
H1473  H     0.65868   0.95330   0.57822   0.00000  Uiso   1.00
H1474  H     0.41270   0.80186   0.58696   0.00000  Uiso   1.00
H1475  H     0.62031   0.93050   0.62055   0.00000  Uiso   1.00
H1476  H     0.36718   0.79241   0.61864   0.00000  Uiso   1.00
H1477  H     0.62413   0.88635   0.36356   0.00000  Uiso   1.00
H1478  H     0.58275   0.86074   0.39912   0.00000  Uiso   1.00
H1479  H     0.58178   0.91947   0.38087   0.00000  Uiso   1.00
H1480  H     0.60607   0.92216   0.46604   0.00000  Uiso   1.00
N1481  N     0.50000   0.95240   0.50000   0.00000  Uiso   1.00
N1482  N     0.50000   0.71427   0.50000   0.00000  Uiso   1.00
O1483  O     0.43892   0.87154   0.50000   0.00000  Uiso   1.00
O1484  O     0.45590   0.95385   0.42751   0.00000  Uiso   1.00
O1485  O     0.43334   0.70908   0.46189   0.00000  Uiso   1.00
O1486  O     0.55441   0.95222   0.56220   0.00000  Uiso   1.00
O1487  O     0.56108   0.79513   0.50000   0.00000  Uiso   1.00
O1488  O     0.56108   0.87154   0.50000   0.00000  Uiso   1.00
O1489  O     0.43892   0.79513   0.50000   0.00000  Uiso   1.00
O1490  O     0.50000   0.87155   0.42845   0.00000  Uiso   1.00
O1491  O     0.50000   0.79512   0.57155   0.00000  Uiso   1.00
O1492  O     0.50000   0.87155   0.57155   0.00000  Uiso   1.00
O1493  O     0.50000   0.79512   0.42845   0.00000  Uiso   1.00
O1494  O     0.54432   0.71467   0.57169   0.00000  Uiso   1.00
Zn1495 Zn    0.50000   0.88437   0.50000   0.00000  Uiso   1.00
Zn1496 Zn    0.50000   0.78229   0.50000   0.00000  Uiso   1.00
C1497  C     0.75357   0.83264   0.49859   0.00000  Uiso   1.00
C1498  C     0.68809   0.85642   0.46115   0.00000  Uiso   1.00
C1499  C     0.95802   0.83641   0.50295   0.00000  Uiso   1.00
C1500  C     0.70941   0.83119   0.49862   0.00000  Uiso   1.00
C1501  C     0.85734   0.69093   0.53406   0.00000  Uiso   1.00
C1502  C     0.80912   0.97624   0.46630   0.00000  Uiso   1.00
C1503  C     0.80540   0.69062   0.47015   0.00000  Uiso   1.00
C1504  C     0.85984   0.97607   0.53176   0.00000  Uiso   1.00
C1505  C     0.71433   0.78663   0.58213   0.00000  Uiso   1.00
C1506  C     0.71752   0.73612   0.57540   0.00000  Uiso   1.00
C1507  C     0.95951   0.90440   0.44110   0.00000  Uiso   1.00
C1508  C     0.91337   0.83423   0.50076   0.00000  Uiso   1.00
C1509  C     0.93540   0.89174   0.39336   0.00000  Uiso   1.00
C1510  C     0.95647   0.79105   0.58574   0.00000  Uiso   1.00
C1511  C     0.95315   0.82609   0.62564   0.00000  Uiso   1.00
C1512  C     0.70976   0.87325   0.41354   0.00000  Uiso   1.00
C1513  C     0.71900   0.83474   0.37987   0.00000  Uiso   1.00
C1514  C     0.85931   0.70374   0.61809   0.00000  Uiso   1.00
C1515  C     0.88443   0.72663   0.65994   0.00000  Uiso   1.00
C1516  C     0.81376   0.95991   0.38443   0.00000  Uiso   1.00
C1517  C     0.79036   0.94017   0.33928   0.00000  Uiso   1.00
C1518  C     0.75470   0.71414   0.41099   0.00000  Uiso   1.00
C1519  C     0.83304   0.83365   0.40631   0.00000  Uiso   1.00
C1520  C     0.70864   0.72436   0.40790   0.00000  Uiso   1.00
C1521  C     0.92870   0.97137   0.55964   0.00000  Uiso   1.00
C1522  C     0.96000   0.93844   0.58072   0.00000  Uiso   1.00
C1523  C     0.83334   0.83299   0.59369   0.00000  Uiso   1.00
C1524  C     0.83306   0.83373   0.35513   0.00000  Uiso   1.00
C1525  C     0.83308   0.83286   0.64485   0.00000  Uiso   1.00
C1526  C     0.68934   0.80922   0.53913   0.00000  Uiso   1.00
C1527  C     0.97950   0.86410   0.46769   0.00000  Uiso   1.00
C1528  C     0.97921   0.81060   0.54033   0.00000  Uiso   1.00
H1529  H     0.68660   0.71977   0.56763   0.00000  Uiso   1.00
H1530  H     0.98290   0.93148   0.43269   0.00000  Uiso   1.00
H1531  H     0.94626   0.80941   0.66216   0.00000  Uiso   1.00
H1532  H     0.98274   0.84605   0.62999   0.00000  Uiso   1.00
H1533  H     0.92758   0.84894   0.61526   0.00000  Uiso   1.00
H1534  H     0.92500   0.77834   0.57630   0.00000  Uiso   1.00
H1535  H     0.97157   0.76117   0.60228   0.00000  Uiso   1.00
H1536  H     0.74346   0.81382   0.39737   0.00000  Uiso   1.00
H1537  H     0.69015   0.81421   0.37262   0.00000  Uiso   1.00
H1538  H     0.73027   0.84802   0.34342   0.00000  Uiso   1.00
H1539  H     0.69146   0.89664   0.38995   0.00000  Uiso   1.00
H1540  H     0.73781   0.72937   0.54410   0.00000  Uiso   1.00
H1541  H     0.73875   0.89218   0.42276   0.00000  Uiso   1.00
H1542  H     0.85938   0.66721   0.62678   0.00000  Uiso   1.00
H1543  H     0.82672   0.71519   0.61812   0.00000  Uiso   1.00
H1544  H     0.88539   0.76330   0.65323   0.00000  Uiso   1.00
H1545  H     0.87005   0.71944   0.36323   0.00000  Uiso   1.00
H1546  H     0.91673   0.71453   0.66159   0.00000  Uiso   1.00
H1547  H     0.84417   0.94368   0.38965   0.00000  Uiso   1.00
H1548  H     0.82072   0.99587   0.37561   0.00000  Uiso   1.00
H1549  H     0.76179   0.95901   0.66365   0.00000  Uiso   1.00
H1550  H     0.81036   0.94165   0.63952   0.00000  Uiso   1.00
H1551  H     0.73137   0.72064   0.61000   0.00000  Uiso   1.00
H1552  H     0.78133   0.90477   0.34726   0.00000  Uiso   1.00
H1553  H     0.75708   0.68350   0.38972   0.00000  Uiso   1.00
H1554  H     0.77324   0.74178   0.39301   0.00000  Uiso   1.00
H1555  H     0.70206   0.75238   0.43265   0.00000  Uiso   1.00
H1556  H     0.69913   0.73310   0.36865   0.00000  Uiso   1.00
H1557  H     0.68991   0.69441   0.42040   0.00000  Uiso   1.00
H1558  H     0.93280   0.66773   0.58342   0.00000  Uiso   1.00
H1559  H     0.93694   0.98096   0.52055   0.00000  Uiso   1.00
H1560  H     0.95803   0.90736   0.55931   0.00000  Uiso   1.00
H1561  H     0.99202   0.95330   0.57822   0.00000  Uiso   1.00
H1562  H     0.74603   0.80186   0.58696   0.00000  Uiso   1.00
H1563  H     0.95364   0.93050   0.62055   0.00000  Uiso   1.00
H1564  H     0.70051   0.79241   0.61864   0.00000  Uiso   1.00
H1565  H     0.95746   0.88635   0.36356   0.00000  Uiso   1.00
H1566  H     0.91608   0.86074   0.39912   0.00000  Uiso   1.00
H1567  H     0.91512   0.91947   0.38087   0.00000  Uiso   1.00
H1568  H     0.93940   0.92216   0.46604   0.00000  Uiso   1.00
N1569  N     0.83333   0.95240   0.50000   0.00000  Uiso   1.00
N1570  N     0.83333   0.71427   0.50000   0.00000  Uiso   1.00
O1571  O     0.77226   0.87154   0.50000   0.00000  Uiso   1.00
O1572  O     0.78924   0.95385   0.42751   0.00000  Uiso   1.00
O1573  O     0.76668   0.70908   0.46189   0.00000  Uiso   1.00
O1574  O     0.88774   0.95222   0.56220   0.00000  Uiso   1.00
O1575  O     0.89441   0.79513   0.50000   0.00000  Uiso   1.00
O1576  O     0.89441   0.87154   0.50000   0.00000  Uiso   1.00
O1577  O     0.77226   0.79513   0.50000   0.00000  Uiso   1.00
O1578  O     0.83334   0.87155   0.42845   0.00000  Uiso   1.00
O1579  O     0.83333   0.79512   0.57155   0.00000  Uiso   1.00
O1580  O     0.83333   0.87155   0.57155   0.00000  Uiso   1.00
O1581  O     0.83334   0.79512   0.42845   0.00000  Uiso   1.00
O1582  O     0.87766   0.71467   0.57169   0.00000  Uiso   1.00
Zn1583 Zn    0.83333   0.88437   0.50000   0.00000  Uiso   1.00
Zn1584 Zn    0.83333   0.78229   0.50000   0.00000  Uiso   1.00
C1585  C     0.08690   0.16597   0.83192   0.00000  Uiso   1.00
C1586  C     0.02142   0.18976   0.79448   0.00000  Uiso   1.00
C1587  C     0.29135   0.16974   0.83629   0.00000  Uiso   1.00
C1588  C     0.04274   0.16453   0.83195   0.00000  Uiso   1.00
C1589  C     0.19067   0.02426   0.86740   0.00000  Uiso   1.00
C1590  C     0.14245   0.30957   0.79963   0.00000  Uiso   1.00
C1591  C     0.13873   0.02396   0.80348   0.00000  Uiso   1.00
C1592  C     0.19317   0.30940   0.86510   0.00000  Uiso   1.00
C1593  C     0.04766   0.11997   0.91546   0.00000  Uiso   1.00
C1594  C     0.05086   0.06946   0.90874   0.00000  Uiso   1.00
C1595  C     0.29284   0.23773   0.77444   0.00000  Uiso   1.00
C1596  C     0.24670   0.16757   0.83410   0.00000  Uiso   1.00
C1597  C     0.26873   0.22508   0.72669   0.00000  Uiso   1.00
C1598  C     0.28981   0.12438   0.91907   0.00000  Uiso   1.00
C1599  C     0.28648   0.15943   0.95897   0.00000  Uiso   1.00
C1600  C     0.04310   0.20658   0.74687   0.00000  Uiso   1.00
C1601  C     0.05233   0.16807   0.71320   0.00000  Uiso   1.00
C1602  C     0.19265   0.03708   0.95142   0.00000  Uiso   1.00
C1603  C     0.21777   0.05997   0.99327   0.00000  Uiso   1.00
C1604  C     0.14709   0.29324   0.71776   0.00000  Uiso   1.00
C1605  C     0.12369   0.27351   0.67261   0.00000  Uiso   1.00
C1606  C     0.08803   0.04747   0.74433   0.00000  Uiso   1.00
C1607  C     0.16638   0.16698   0.73964   0.00000  Uiso   1.00
C1608  C     0.04197   0.05769   0.74123   0.00000  Uiso   1.00
C1609  C     0.26204   0.30470   0.89297   0.00000  Uiso   1.00
C1610  C     0.29333   0.27177   0.91405   0.00000  Uiso   1.00
C1611  C     0.16667   0.16633   0.92702   0.00000  Uiso   1.00
C1612  C     0.16640   0.16707   0.68846   0.00000  Uiso   1.00
C1613  C     0.16641   0.16619   0.97818   0.00000  Uiso   1.00
C1614  C     0.02268   0.14255   0.87246   0.00000  Uiso   1.00
C1615  C     0.31283   0.19743   0.80102   0.00000  Uiso   1.00
C1616  C     0.31254   0.14393   0.87367   0.00000  Uiso   1.00
H1617  H     0.01993   0.05311   0.90096   0.00000  Uiso   1.00
H1618  H     0.31623   0.26481   0.76603   0.00000  Uiso   1.00
H1619  H     0.27959   0.14275   0.99549   0.00000  Uiso   1.00
H1620  H     0.31607   0.17939   0.96332   0.00000  Uiso   1.00
H1621  H     0.26092   0.18227   0.94860   0.00000  Uiso   1.00
H1622  H     0.25834   0.11167   0.90963   0.00000  Uiso   1.00
H1623  H     0.30490   0.09450   0.93561   0.00000  Uiso   1.00
H1624  H     0.07679   0.14715   0.73070   0.00000  Uiso   1.00
H1625  H     0.02348   0.14754   0.70595   0.00000  Uiso   1.00
H1626  H     0.06360   0.18135   0.67676   0.00000  Uiso   1.00
H1627  H     0.02479   0.22997   0.72328   0.00000  Uiso   1.00
H1628  H     0.07115   0.06270   0.87743   0.00000  Uiso   1.00
H1629  H     0.07209   0.22551   0.75609   0.00000  Uiso   1.00
H1630  H     0.19272   0.00054   0.96011   0.00000  Uiso   1.00
H1631  H     0.16005   0.04852   0.95145   0.00000  Uiso   1.00
H1632  H     0.21872   0.09663   0.98656   0.00000  Uiso   1.00
H1633  H     0.20338   0.05278   0.69656   0.00000  Uiso   1.00
H1634  H     0.25007   0.04786   0.99493   0.00000  Uiso   1.00
H1635  H     0.17750   0.27701   0.72298   0.00000  Uiso   1.00
H1636  H     0.15405   0.32921   0.70895   0.00000  Uiso   1.00
H1637  H     0.09512   0.29234   0.99698   0.00000  Uiso   1.00
H1638  H     0.14369   0.27498   0.97285   0.00000  Uiso   1.00
H1639  H     0.06471   0.05397   0.94334   0.00000  Uiso   1.00
H1640  H     0.11467   0.23810   0.68060   0.00000  Uiso   1.00
H1641  H     0.09041   0.01683   0.72305   0.00000  Uiso   1.00
H1642  H     0.10658   0.07511   0.72635   0.00000  Uiso   1.00
H1643  H     0.03540   0.08571   0.76598   0.00000  Uiso   1.00
H1644  H     0.03246   0.06643   0.70199   0.00000  Uiso   1.00
H1645  H     0.02324   0.02775   0.75374   0.00000  Uiso   1.00
H1646  H     0.26614   0.00107   0.91676   0.00000  Uiso   1.00
H1647  H     0.27027   0.31429   0.85388   0.00000  Uiso   1.00
H1648  H     0.29136   0.24069   0.89264   0.00000  Uiso   1.00
H1649  H     0.32535   0.28663   0.91155   0.00000  Uiso   1.00
H1650  H     0.07937   0.13520   0.92030   0.00000  Uiso   1.00
H1651  H     0.28698   0.26383   0.95389   0.00000  Uiso   1.00
H1652  H     0.03385   0.12574   0.95197   0.00000  Uiso   1.00
H1653  H     0.29080   0.21969   0.69690   0.00000  Uiso   1.00
H1654  H     0.24942   0.19408   0.73246   0.00000  Uiso   1.00
H1655  H     0.24845   0.25281   0.71420   0.00000  Uiso   1.00
H1656  H     0.27274   0.25550   0.79937   0.00000  Uiso   1.00
N1657  N     0.16667   0.28573   0.83333   0.00000  Uiso   1.00
N1658  N     0.16667   0.04760   0.83333   0.00000  Uiso   1.00
O1659  O     0.10559   0.20487   0.83333   0.00000  Uiso   1.00
O1660  O     0.12257   0.28718   0.76085   0.00000  Uiso   1.00
O1661  O     0.10001   0.04241   0.79522   0.00000  Uiso   1.00
O1662  O     0.22107   0.28555   0.89553   0.00000  Uiso   1.00
O1663  O     0.22774   0.12846   0.83334   0.00000  Uiso   1.00
O1664  O     0.22774   0.20487   0.83334   0.00000  Uiso   1.00
O1665  O     0.10559   0.12846   0.83333   0.00000  Uiso   1.00
O1666  O     0.16667   0.20488   0.76178   0.00000  Uiso   1.00
O1667  O     0.16666   0.12845   0.90489   0.00000  Uiso   1.00
O1668  O     0.16666   0.20488   0.90489   0.00000  Uiso   1.00
O1669  O     0.16667   0.12845   0.76178   0.00000  Uiso   1.00
O1670  O     0.21099   0.04800   0.90503   0.00000  Uiso   1.00
Zn1671 Zn    0.16667   0.21771   0.83333   0.00000  Uiso   1.00
Zn1672 Zn    0.16667   0.11563   0.83333   0.00000  Uiso   1.00
C1673  C     0.42024   0.16597   0.83192   0.00000  Uiso   1.00
C1674  C     0.35476   0.18976   0.79448   0.00000  Uiso   1.00
C1675  C     0.62468   0.16974   0.83629   0.00000  Uiso   1.00
C1676  C     0.37607   0.16453   0.83195   0.00000  Uiso   1.00
C1677  C     0.52400   0.02426   0.86740   0.00000  Uiso   1.00
C1678  C     0.47578   0.30957   0.79963   0.00000  Uiso   1.00
C1679  C     0.47207   0.02396   0.80348   0.00000  Uiso   1.00
C1680  C     0.52650   0.30940   0.86510   0.00000  Uiso   1.00
C1681  C     0.38099   0.11997   0.91546   0.00000  Uiso   1.00
C1682  C     0.38419   0.06946   0.90874   0.00000  Uiso   1.00
C1683  C     0.62617   0.23773   0.77444   0.00000  Uiso   1.00
C1684  C     0.58004   0.16757   0.83410   0.00000  Uiso   1.00
C1685  C     0.60207   0.22508   0.72669   0.00000  Uiso   1.00
C1686  C     0.62314   0.12438   0.91907   0.00000  Uiso   1.00
C1687  C     0.61982   0.15943   0.95897   0.00000  Uiso   1.00
C1688  C     0.37643   0.20658   0.74687   0.00000  Uiso   1.00
C1689  C     0.38567   0.16807   0.71320   0.00000  Uiso   1.00
C1690  C     0.52598   0.03708   0.95142   0.00000  Uiso   1.00
C1691  C     0.55110   0.05997   0.99327   0.00000  Uiso   1.00
C1692  C     0.48042   0.29324   0.71776   0.00000  Uiso   1.00
C1693  C     0.45702   0.27351   0.67261   0.00000  Uiso   1.00
C1694  C     0.42137   0.04747   0.74433   0.00000  Uiso   1.00
C1695  C     0.49971   0.16698   0.73964   0.00000  Uiso   1.00
C1696  C     0.37530   0.05769   0.74123   0.00000  Uiso   1.00
C1697  C     0.59537   0.30470   0.89297   0.00000  Uiso   1.00
C1698  C     0.62667   0.27177   0.91405   0.00000  Uiso   1.00
C1699  C     0.50001   0.16633   0.92702   0.00000  Uiso   1.00
C1700  C     0.49973   0.16707   0.68846   0.00000  Uiso   1.00
C1701  C     0.49975   0.16619   0.97818   0.00000  Uiso   1.00
C1702  C     0.35601   0.14255   0.87246   0.00000  Uiso   1.00
C1703  C     0.64616   0.19743   0.80102   0.00000  Uiso   1.00
C1704  C     0.64588   0.14393   0.87367   0.00000  Uiso   1.00
H1705  H     0.35326   0.05311   0.90096   0.00000  Uiso   1.00
H1706  H     0.64956   0.26481   0.76603   0.00000  Uiso   1.00
H1707  H     0.61292   0.14275   0.99549   0.00000  Uiso   1.00
H1708  H     0.64940   0.17939   0.96332   0.00000  Uiso   1.00
H1709  H     0.59425   0.18227   0.94860   0.00000  Uiso   1.00
H1710  H     0.59167   0.11167   0.90963   0.00000  Uiso   1.00
H1711  H     0.63823   0.09450   0.93561   0.00000  Uiso   1.00
H1712  H     0.41013   0.14715   0.73070   0.00000  Uiso   1.00
H1713  H     0.35682   0.14754   0.70595   0.00000  Uiso   1.00
H1714  H     0.39693   0.18135   0.67676   0.00000  Uiso   1.00
H1715  H     0.35812   0.22997   0.72328   0.00000  Uiso   1.00
H1716  H     0.40448   0.06270   0.87743   0.00000  Uiso   1.00
H1717  H     0.40542   0.22551   0.75609   0.00000  Uiso   1.00
H1718  H     0.52605   0.00054   0.96011   0.00000  Uiso   1.00
H1719  H     0.49338   0.04852   0.95145   0.00000  Uiso   1.00
H1720  H     0.55206   0.09663   0.98656   0.00000  Uiso   1.00
H1721  H     0.53671   0.05278   0.69656   0.00000  Uiso   1.00
H1722  H     0.58340   0.04786   0.99493   0.00000  Uiso   1.00
H1723  H     0.51083   0.27701   0.72298   0.00000  Uiso   1.00
H1724  H     0.48739   0.32921   0.70895   0.00000  Uiso   1.00
H1725  H     0.42846   0.29234   0.99698   0.00000  Uiso   1.00
H1726  H     0.47703   0.27498   0.97285   0.00000  Uiso   1.00
H1727  H     0.39804   0.05397   0.94334   0.00000  Uiso   1.00
H1728  H     0.44800   0.23810   0.68060   0.00000  Uiso   1.00
H1729  H     0.42374   0.01683   0.72305   0.00000  Uiso   1.00
H1730  H     0.43991   0.07511   0.72635   0.00000  Uiso   1.00
H1731  H     0.36873   0.08571   0.76598   0.00000  Uiso   1.00
H1732  H     0.36579   0.06643   0.70199   0.00000  Uiso   1.00
H1733  H     0.35657   0.02775   0.75374   0.00000  Uiso   1.00
H1734  H     0.59947   0.00107   0.91676   0.00000  Uiso   1.00
H1735  H     0.60360   0.31429   0.85388   0.00000  Uiso   1.00
H1736  H     0.62469   0.24069   0.89264   0.00000  Uiso   1.00
H1737  H     0.65868   0.28663   0.91155   0.00000  Uiso   1.00
H1738  H     0.41270   0.13520   0.92030   0.00000  Uiso   1.00
H1739  H     0.62031   0.26383   0.95389   0.00000  Uiso   1.00
H1740  H     0.36718   0.12574   0.95197   0.00000  Uiso   1.00
H1741  H     0.62413   0.21969   0.69690   0.00000  Uiso   1.00
H1742  H     0.58275   0.19408   0.73246   0.00000  Uiso   1.00
H1743  H     0.58178   0.25281   0.71420   0.00000  Uiso   1.00
H1744  H     0.60607   0.25550   0.79937   0.00000  Uiso   1.00
N1745  N     0.50000   0.28573   0.83333   0.00000  Uiso   1.00
N1746  N     0.50000   0.04760   0.83333   0.00000  Uiso   1.00
O1747  O     0.43892   0.20487   0.83333   0.00000  Uiso   1.00
O1748  O     0.45590   0.28718   0.76085   0.00000  Uiso   1.00
O1749  O     0.43334   0.04241   0.79522   0.00000  Uiso   1.00
O1750  O     0.55441   0.28555   0.89553   0.00000  Uiso   1.00
O1751  O     0.56108   0.12846   0.83334   0.00000  Uiso   1.00
O1752  O     0.56108   0.20487   0.83334   0.00000  Uiso   1.00
O1753  O     0.43892   0.12846   0.83333   0.00000  Uiso   1.00
O1754  O     0.50000   0.20488   0.76178   0.00000  Uiso   1.00
O1755  O     0.50000   0.12845   0.90489   0.00000  Uiso   1.00
O1756  O     0.50000   0.20488   0.90489   0.00000  Uiso   1.00
O1757  O     0.50000   0.12845   0.76178   0.00000  Uiso   1.00
O1758  O     0.54432   0.04800   0.90503   0.00000  Uiso   1.00
Zn1759 Zn    0.50000   0.21771   0.83333   0.00000  Uiso   1.00
Zn1760 Zn    0.50000   0.11563   0.83333   0.00000  Uiso   1.00
C1761  C     0.75357   0.16597   0.83192   0.00000  Uiso   1.00
C1762  C     0.68809   0.18976   0.79448   0.00000  Uiso   1.00
C1763  C     0.95802   0.16974   0.83629   0.00000  Uiso   1.00
C1764  C     0.70941   0.16453   0.83195   0.00000  Uiso   1.00
C1765  C     0.85734   0.02426   0.86740   0.00000  Uiso   1.00
C1766  C     0.80912   0.30957   0.79963   0.00000  Uiso   1.00
C1767  C     0.80540   0.02396   0.80348   0.00000  Uiso   1.00
C1768  C     0.85984   0.30940   0.86510   0.00000  Uiso   1.00
C1769  C     0.71433   0.11997   0.91546   0.00000  Uiso   1.00
C1770  C     0.71752   0.06946   0.90874   0.00000  Uiso   1.00
C1771  C     0.95951   0.23773   0.77444   0.00000  Uiso   1.00
C1772  C     0.91337   0.16757   0.83410   0.00000  Uiso   1.00
C1773  C     0.93540   0.22508   0.72669   0.00000  Uiso   1.00
C1774  C     0.95647   0.12438   0.91907   0.00000  Uiso   1.00
C1775  C     0.95315   0.15943   0.95897   0.00000  Uiso   1.00
C1776  C     0.70976   0.20658   0.74687   0.00000  Uiso   1.00
C1777  C     0.71900   0.16807   0.71320   0.00000  Uiso   1.00
C1778  C     0.85931   0.03708   0.95142   0.00000  Uiso   1.00
C1779  C     0.88443   0.05997   0.99327   0.00000  Uiso   1.00
C1780  C     0.81376   0.29324   0.71776   0.00000  Uiso   1.00
C1781  C     0.79036   0.27351   0.67261   0.00000  Uiso   1.00
C1782  C     0.75470   0.04747   0.74433   0.00000  Uiso   1.00
C1783  C     0.83304   0.16698   0.73964   0.00000  Uiso   1.00
C1784  C     0.70864   0.05769   0.74123   0.00000  Uiso   1.00
C1785  C     0.92870   0.30470   0.89297   0.00000  Uiso   1.00
C1786  C     0.96000   0.27177   0.91405   0.00000  Uiso   1.00
C1787  C     0.83334   0.16633   0.92702   0.00000  Uiso   1.00
C1788  C     0.83306   0.16707   0.68846   0.00000  Uiso   1.00
C1789  C     0.83308   0.16619   0.97818   0.00000  Uiso   1.00
C1790  C     0.68934   0.14255   0.87246   0.00000  Uiso   1.00
C1791  C     0.97950   0.19743   0.80102   0.00000  Uiso   1.00
C1792  C     0.97921   0.14393   0.87367   0.00000  Uiso   1.00
H1793  H     0.68660   0.05311   0.90096   0.00000  Uiso   1.00
H1794  H     0.98290   0.26481   0.76603   0.00000  Uiso   1.00
H1795  H     0.94626   0.14275   0.99549   0.00000  Uiso   1.00
H1796  H     0.98274   0.17939   0.96332   0.00000  Uiso   1.00
H1797  H     0.92758   0.18227   0.94860   0.00000  Uiso   1.00
H1798  H     0.92500   0.11167   0.90963   0.00000  Uiso   1.00
H1799  H     0.97157   0.09450   0.93561   0.00000  Uiso   1.00
H1800  H     0.74346   0.14715   0.73070   0.00000  Uiso   1.00
H1801  H     0.69015   0.14754   0.70595   0.00000  Uiso   1.00
H1802  H     0.73027   0.18135   0.67676   0.00000  Uiso   1.00
H1803  H     0.69146   0.22997   0.72328   0.00000  Uiso   1.00
H1804  H     0.73781   0.06270   0.87743   0.00000  Uiso   1.00
H1805  H     0.73875   0.22551   0.75609   0.00000  Uiso   1.00
H1806  H     0.85938   0.00054   0.96011   0.00000  Uiso   1.00
H1807  H     0.82672   0.04852   0.95145   0.00000  Uiso   1.00
H1808  H     0.88539   0.09663   0.98656   0.00000  Uiso   1.00
H1809  H     0.87005   0.05278   0.69656   0.00000  Uiso   1.00
H1810  H     0.91673   0.04786   0.99493   0.00000  Uiso   1.00
H1811  H     0.84417   0.27701   0.72298   0.00000  Uiso   1.00
H1812  H     0.82072   0.32921   0.70895   0.00000  Uiso   1.00
H1813  H     0.76179   0.29234   0.99698   0.00000  Uiso   1.00
H1814  H     0.81036   0.27498   0.97285   0.00000  Uiso   1.00
H1815  H     0.73137   0.05397   0.94334   0.00000  Uiso   1.00
H1816  H     0.78133   0.23810   0.68060   0.00000  Uiso   1.00
H1817  H     0.75708   0.01683   0.72305   0.00000  Uiso   1.00
H1818  H     0.77324   0.07511   0.72635   0.00000  Uiso   1.00
H1819  H     0.70206   0.08571   0.76598   0.00000  Uiso   1.00
H1820  H     0.69913   0.06643   0.70199   0.00000  Uiso   1.00
H1821  H     0.68991   0.02775   0.75374   0.00000  Uiso   1.00
H1822  H     0.93280   0.00107   0.91676   0.00000  Uiso   1.00
H1823  H     0.93694   0.31429   0.85388   0.00000  Uiso   1.00
H1824  H     0.95803   0.24069   0.89264   0.00000  Uiso   1.00
H1825  H     0.99202   0.28663   0.91155   0.00000  Uiso   1.00
H1826  H     0.74603   0.13520   0.92030   0.00000  Uiso   1.00
H1827  H     0.95364   0.26383   0.95389   0.00000  Uiso   1.00
H1828  H     0.70051   0.12574   0.95197   0.00000  Uiso   1.00
H1829  H     0.95746   0.21969   0.69690   0.00000  Uiso   1.00
H1830  H     0.91608   0.19408   0.73246   0.00000  Uiso   1.00
H1831  H     0.91512   0.25281   0.71420   0.00000  Uiso   1.00
H1832  H     0.93940   0.25550   0.79937   0.00000  Uiso   1.00
N1833  N     0.83333   0.28573   0.83333   0.00000  Uiso   1.00
N1834  N     0.83333   0.04760   0.83333   0.00000  Uiso   1.00
O1835  O     0.77226   0.20487   0.83333   0.00000  Uiso   1.00
O1836  O     0.78924   0.28718   0.76085   0.00000  Uiso   1.00
O1837  O     0.76668   0.04241   0.79522   0.00000  Uiso   1.00
O1838  O     0.88774   0.28555   0.89553   0.00000  Uiso   1.00
O1839  O     0.89441   0.12846   0.83334   0.00000  Uiso   1.00
O1840  O     0.89441   0.20487   0.83334   0.00000  Uiso   1.00
O1841  O     0.77226   0.12846   0.83333   0.00000  Uiso   1.00
O1842  O     0.83334   0.20488   0.76178   0.00000  Uiso   1.00
O1843  O     0.83333   0.12845   0.90489   0.00000  Uiso   1.00
O1844  O     0.83333   0.20488   0.90489   0.00000  Uiso   1.00
O1845  O     0.83334   0.12845   0.76178   0.00000  Uiso   1.00
O1846  O     0.87766   0.04800   0.90503   0.00000  Uiso   1.00
Zn1847 Zn    0.83333   0.21771   0.83333   0.00000  Uiso   1.00
Zn1848 Zn    0.83333   0.11563   0.83333   0.00000  Uiso   1.00
C1849  C     0.08690   0.49930   0.83192   0.00000  Uiso   1.00
C1850  C     0.02142   0.52309   0.79448   0.00000  Uiso   1.00
C1851  C     0.29135   0.50307   0.83629   0.00000  Uiso   1.00
C1852  C     0.04274   0.49786   0.83195   0.00000  Uiso   1.00
C1853  C     0.19067   0.35759   0.86740   0.00000  Uiso   1.00
C1854  C     0.14245   0.64291   0.79963   0.00000  Uiso   1.00
C1855  C     0.13873   0.35729   0.80348   0.00000  Uiso   1.00
C1856  C     0.19317   0.64273   0.86510   0.00000  Uiso   1.00
C1857  C     0.04766   0.45330   0.91546   0.00000  Uiso   1.00
C1858  C     0.05086   0.40279   0.90874   0.00000  Uiso   1.00
C1859  C     0.29284   0.57107   0.77444   0.00000  Uiso   1.00
C1860  C     0.24670   0.50090   0.83410   0.00000  Uiso   1.00
C1861  C     0.26873   0.55841   0.72669   0.00000  Uiso   1.00
C1862  C     0.28981   0.45772   0.91907   0.00000  Uiso   1.00
C1863  C     0.28648   0.49276   0.95897   0.00000  Uiso   1.00
C1864  C     0.04310   0.53992   0.74687   0.00000  Uiso   1.00
C1865  C     0.05233   0.50141   0.71320   0.00000  Uiso   1.00
C1866  C     0.19265   0.37041   0.95142   0.00000  Uiso   1.00
C1867  C     0.21777   0.39330   0.99327   0.00000  Uiso   1.00
C1868  C     0.14709   0.62658   0.71776   0.00000  Uiso   1.00
C1869  C     0.12369   0.60684   0.67261   0.00000  Uiso   1.00
C1870  C     0.08803   0.38080   0.74433   0.00000  Uiso   1.00
C1871  C     0.16638   0.50032   0.73964   0.00000  Uiso   1.00
C1872  C     0.04197   0.39103   0.74123   0.00000  Uiso   1.00
C1873  C     0.26204   0.63803   0.89297   0.00000  Uiso   1.00
C1874  C     0.29333   0.60510   0.91405   0.00000  Uiso   1.00
C1875  C     0.16667   0.49966   0.92702   0.00000  Uiso   1.00
C1876  C     0.16640   0.50040   0.68846   0.00000  Uiso   1.00
C1877  C     0.16641   0.49952   0.97818   0.00000  Uiso   1.00
C1878  C     0.02268   0.47589   0.87246   0.00000  Uiso   1.00
C1879  C     0.31283   0.53077   0.80102   0.00000  Uiso   1.00
C1880  C     0.31254   0.47727   0.87367   0.00000  Uiso   1.00
H1881  H     0.01993   0.38644   0.90096   0.00000  Uiso   1.00
H1882  H     0.31623   0.59815   0.76603   0.00000  Uiso   1.00
H1883  H     0.27959   0.47608   0.99549   0.00000  Uiso   1.00
H1884  H     0.31607   0.51272   0.96332   0.00000  Uiso   1.00
H1885  H     0.26092   0.51560   0.94860   0.00000  Uiso   1.00
H1886  H     0.25834   0.44501   0.90963   0.00000  Uiso   1.00
H1887  H     0.30490   0.42784   0.93561   0.00000  Uiso   1.00
H1888  H     0.07679   0.48048   0.73070   0.00000  Uiso   1.00
H1889  H     0.02348   0.48088   0.70595   0.00000  Uiso   1.00
H1890  H     0.06360   0.51468   0.67676   0.00000  Uiso   1.00
H1891  H     0.02479   0.56331   0.72328   0.00000  Uiso   1.00
H1892  H     0.07115   0.39603   0.87743   0.00000  Uiso   1.00
H1893  H     0.07209   0.55884   0.75609   0.00000  Uiso   1.00
H1894  H     0.19272   0.33388   0.96011   0.00000  Uiso   1.00
H1895  H     0.16005   0.38185   0.95145   0.00000  Uiso   1.00
H1896  H     0.21872   0.42997   0.98656   0.00000  Uiso   1.00
H1897  H     0.20338   0.38611   0.69656   0.00000  Uiso   1.00
H1898  H     0.25007   0.38119   0.99493   0.00000  Uiso   1.00
H1899  H     0.17750   0.61035   0.72298   0.00000  Uiso   1.00
H1900  H     0.15405   0.66254   0.70895   0.00000  Uiso   1.00
H1901  H     0.09512   0.62568   0.99698   0.00000  Uiso   1.00
H1902  H     0.14369   0.60831   0.97285   0.00000  Uiso   1.00
H1903  H     0.06471   0.38730   0.94334   0.00000  Uiso   1.00
H1904  H     0.11467   0.57143   0.68060   0.00000  Uiso   1.00
H1905  H     0.09041   0.35017   0.72305   0.00000  Uiso   1.00
H1906  H     0.10658   0.40844   0.72635   0.00000  Uiso   1.00
H1907  H     0.03540   0.41905   0.76598   0.00000  Uiso   1.00
H1908  H     0.03246   0.39976   0.70199   0.00000  Uiso   1.00
H1909  H     0.02324   0.36108   0.75374   0.00000  Uiso   1.00
H1910  H     0.26614   0.33440   0.91676   0.00000  Uiso   1.00
H1911  H     0.27027   0.64762   0.85388   0.00000  Uiso   1.00
H1912  H     0.29136   0.57403   0.89264   0.00000  Uiso   1.00
H1913  H     0.32535   0.61997   0.91155   0.00000  Uiso   1.00
H1914  H     0.07937   0.46853   0.92030   0.00000  Uiso   1.00
H1915  H     0.28698   0.59716   0.95389   0.00000  Uiso   1.00
H1916  H     0.03385   0.45908   0.95197   0.00000  Uiso   1.00
H1917  H     0.29080   0.55302   0.69690   0.00000  Uiso   1.00
H1918  H     0.24942   0.52741   0.73246   0.00000  Uiso   1.00
H1919  H     0.24845   0.58614   0.71420   0.00000  Uiso   1.00
H1920  H     0.27274   0.58883   0.79937   0.00000  Uiso   1.00
N1921  N     0.16667   0.61907   0.83333   0.00000  Uiso   1.00
N1922  N     0.16667   0.38093   0.83333   0.00000  Uiso   1.00
O1923  O     0.10559   0.53821   0.83333   0.00000  Uiso   1.00
O1924  O     0.12257   0.62052   0.76085   0.00000  Uiso   1.00
O1925  O     0.10001   0.37575   0.79522   0.00000  Uiso   1.00
O1926  O     0.22107   0.61889   0.89553   0.00000  Uiso   1.00
O1927  O     0.22774   0.46179   0.83334   0.00000  Uiso   1.00
O1928  O     0.22774   0.53821   0.83334   0.00000  Uiso   1.00
O1929  O     0.10559   0.46179   0.83333   0.00000  Uiso   1.00
O1930  O     0.16667   0.53821   0.76178   0.00000  Uiso   1.00
O1931  O     0.16666   0.46179   0.90489   0.00000  Uiso   1.00
O1932  O     0.16666   0.53821   0.90489   0.00000  Uiso   1.00
O1933  O     0.16667   0.46179   0.76178   0.00000  Uiso   1.00
O1934  O     0.21099   0.38134   0.90503   0.00000  Uiso   1.00
Zn1935 Zn    0.16667   0.55104   0.83333   0.00000  Uiso   1.00
Zn1936 Zn    0.16667   0.44896   0.83333   0.00000  Uiso   1.00
C1937  C     0.42024   0.49930   0.83192   0.00000  Uiso   1.00
C1938  C     0.35476   0.52309   0.79448   0.00000  Uiso   1.00
C1939  C     0.62468   0.50307   0.83629   0.00000  Uiso   1.00
C1940  C     0.37607   0.49786   0.83195   0.00000  Uiso   1.00
C1941  C     0.52400   0.35759   0.86740   0.00000  Uiso   1.00
C1942  C     0.47578   0.64291   0.79963   0.00000  Uiso   1.00
C1943  C     0.47207   0.35729   0.80348   0.00000  Uiso   1.00
C1944  C     0.52650   0.64273   0.86510   0.00000  Uiso   1.00
C1945  C     0.38099   0.45330   0.91546   0.00000  Uiso   1.00
C1946  C     0.38419   0.40279   0.90874   0.00000  Uiso   1.00
C1947  C     0.62617   0.57107   0.77444   0.00000  Uiso   1.00
C1948  C     0.58004   0.50090   0.83410   0.00000  Uiso   1.00
C1949  C     0.60207   0.55841   0.72669   0.00000  Uiso   1.00
C1950  C     0.62314   0.45772   0.91907   0.00000  Uiso   1.00
C1951  C     0.61982   0.49276   0.95897   0.00000  Uiso   1.00
C1952  C     0.37643   0.53992   0.74687   0.00000  Uiso   1.00
C1953  C     0.38567   0.50141   0.71320   0.00000  Uiso   1.00
C1954  C     0.52598   0.37041   0.95142   0.00000  Uiso   1.00
C1955  C     0.55110   0.39330   0.99327   0.00000  Uiso   1.00
C1956  C     0.48042   0.62658   0.71776   0.00000  Uiso   1.00
C1957  C     0.45702   0.60684   0.67261   0.00000  Uiso   1.00
C1958  C     0.42137   0.38080   0.74433   0.00000  Uiso   1.00
C1959  C     0.49971   0.50032   0.73964   0.00000  Uiso   1.00
C1960  C     0.37530   0.39103   0.74123   0.00000  Uiso   1.00
C1961  C     0.59537   0.63803   0.89297   0.00000  Uiso   1.00
C1962  C     0.62667   0.60510   0.91405   0.00000  Uiso   1.00
C1963  C     0.50001   0.49966   0.92702   0.00000  Uiso   1.00
C1964  C     0.49973   0.50040   0.68846   0.00000  Uiso   1.00
C1965  C     0.49975   0.49952   0.97818   0.00000  Uiso   1.00
C1966  C     0.35601   0.47589   0.87246   0.00000  Uiso   1.00
C1967  C     0.64616   0.53077   0.80102   0.00000  Uiso   1.00
C1968  C     0.64588   0.47727   0.87367   0.00000  Uiso   1.00
H1969  H     0.35326   0.38644   0.90096   0.00000  Uiso   1.00
H1970  H     0.64956   0.59815   0.76603   0.00000  Uiso   1.00
H1971  H     0.61292   0.47608   0.99549   0.00000  Uiso   1.00
H1972  H     0.64940   0.51272   0.96332   0.00000  Uiso   1.00
H1973  H     0.59425   0.51560   0.94860   0.00000  Uiso   1.00
H1974  H     0.59167   0.44501   0.90963   0.00000  Uiso   1.00
H1975  H     0.63823   0.42784   0.93561   0.00000  Uiso   1.00
H1976  H     0.41013   0.48048   0.73070   0.00000  Uiso   1.00
H1977  H     0.35682   0.48088   0.70595   0.00000  Uiso   1.00
H1978  H     0.39693   0.51468   0.67676   0.00000  Uiso   1.00
H1979  H     0.35812   0.56331   0.72328   0.00000  Uiso   1.00
H1980  H     0.40448   0.39603   0.87743   0.00000  Uiso   1.00
H1981  H     0.40542   0.55884   0.75609   0.00000  Uiso   1.00
H1982  H     0.52605   0.33388   0.96011   0.00000  Uiso   1.00
H1983  H     0.49338   0.38185   0.95145   0.00000  Uiso   1.00
H1984  H     0.55206   0.42997   0.98656   0.00000  Uiso   1.00
H1985  H     0.53671   0.38611   0.69656   0.00000  Uiso   1.00
H1986  H     0.58340   0.38119   0.99493   0.00000  Uiso   1.00
H1987  H     0.51083   0.61035   0.72298   0.00000  Uiso   1.00
H1988  H     0.48739   0.66254   0.70895   0.00000  Uiso   1.00
H1989  H     0.42846   0.62568   0.99698   0.00000  Uiso   1.00
H1990  H     0.47703   0.60831   0.97285   0.00000  Uiso   1.00
H1991  H     0.39804   0.38730   0.94334   0.00000  Uiso   1.00
H1992  H     0.44800   0.57143   0.68060   0.00000  Uiso   1.00
H1993  H     0.42374   0.35017   0.72305   0.00000  Uiso   1.00
H1994  H     0.43991   0.40844   0.72635   0.00000  Uiso   1.00
H1995  H     0.36873   0.41905   0.76598   0.00000  Uiso   1.00
H1996  H     0.36579   0.39976   0.70199   0.00000  Uiso   1.00
H1997  H     0.35657   0.36108   0.75374   0.00000  Uiso   1.00
H1998  H     0.59947   0.33440   0.91676   0.00000  Uiso   1.00
H1999  H     0.60360   0.64762   0.85388   0.00000  Uiso   1.00
H2000  H     0.62469   0.57403   0.89264   0.00000  Uiso   1.00
H2001  H     0.65868   0.61997   0.91155   0.00000  Uiso   1.00
H2002  H     0.41270   0.46853   0.92030   0.00000  Uiso   1.00
H2003  H     0.62031   0.59716   0.95389   0.00000  Uiso   1.00
H2004  H     0.36718   0.45908   0.95197   0.00000  Uiso   1.00
H2005  H     0.62413   0.55302   0.69690   0.00000  Uiso   1.00
H2006  H     0.58275   0.52741   0.73246   0.00000  Uiso   1.00
H2007  H     0.58178   0.58614   0.71420   0.00000  Uiso   1.00
H2008  H     0.60607   0.58883   0.79937   0.00000  Uiso   1.00
N2009  N     0.50000   0.61907   0.83333   0.00000  Uiso   1.00
N2010  N     0.50000   0.38093   0.83333   0.00000  Uiso   1.00
O2011  O     0.43892   0.53821   0.83333   0.00000  Uiso   1.00
O2012  O     0.45590   0.62052   0.76085   0.00000  Uiso   1.00
O2013  O     0.43334   0.37575   0.79522   0.00000  Uiso   1.00
O2014  O     0.55441   0.61889   0.89553   0.00000  Uiso   1.00
O2015  O     0.56108   0.46179   0.83334   0.00000  Uiso   1.00
O2016  O     0.56108   0.53821   0.83334   0.00000  Uiso   1.00
O2017  O     0.43892   0.46179   0.83333   0.00000  Uiso   1.00
O2018  O     0.50000   0.53821   0.76178   0.00000  Uiso   1.00
O2019  O     0.50000   0.46179   0.90489   0.00000  Uiso   1.00
O2020  O     0.50000   0.53821   0.90489   0.00000  Uiso   1.00
O2021  O     0.50000   0.46179   0.76178   0.00000  Uiso   1.00
O2022  O     0.54432   0.38134   0.90503   0.00000  Uiso   1.00
Zn2023 Zn    0.50000   0.55104   0.83333   0.00000  Uiso   1.00
Zn2024 Zn    0.50000   0.44896   0.83333   0.00000  Uiso   1.00
C2025  C     0.75357   0.49930   0.83192   0.00000  Uiso   1.00
C2026  C     0.68809   0.52309   0.79448   0.00000  Uiso   1.00
C2027  C     0.95802   0.50307   0.83629   0.00000  Uiso   1.00
C2028  C     0.70941   0.49786   0.83195   0.00000  Uiso   1.00
C2029  C     0.85734   0.35759   0.86740   0.00000  Uiso   1.00
C2030  C     0.80912   0.64291   0.79963   0.00000  Uiso   1.00
C2031  C     0.80540   0.35729   0.80348   0.00000  Uiso   1.00
C2032  C     0.85984   0.64273   0.86510   0.00000  Uiso   1.00
C2033  C     0.71433   0.45330   0.91546   0.00000  Uiso   1.00
C2034  C     0.71752   0.40279   0.90874   0.00000  Uiso   1.00
C2035  C     0.95951   0.57107   0.77444   0.00000  Uiso   1.00
C2036  C     0.91337   0.50090   0.83410   0.00000  Uiso   1.00
C2037  C     0.93540   0.55841   0.72669   0.00000  Uiso   1.00
C2038  C     0.95647   0.45772   0.91907   0.00000  Uiso   1.00
C2039  C     0.95315   0.49276   0.95897   0.00000  Uiso   1.00
C2040  C     0.70976   0.53992   0.74687   0.00000  Uiso   1.00
C2041  C     0.71900   0.50141   0.71320   0.00000  Uiso   1.00
C2042  C     0.85931   0.37041   0.95142   0.00000  Uiso   1.00
C2043  C     0.88443   0.39330   0.99327   0.00000  Uiso   1.00
C2044  C     0.81376   0.62658   0.71776   0.00000  Uiso   1.00
C2045  C     0.79036   0.60684   0.67261   0.00000  Uiso   1.00
C2046  C     0.75470   0.38080   0.74433   0.00000  Uiso   1.00
C2047  C     0.83304   0.50032   0.73964   0.00000  Uiso   1.00
C2048  C     0.70864   0.39103   0.74123   0.00000  Uiso   1.00
C2049  C     0.92870   0.63803   0.89297   0.00000  Uiso   1.00
C2050  C     0.96000   0.60510   0.91405   0.00000  Uiso   1.00
C2051  C     0.83334   0.49966   0.92702   0.00000  Uiso   1.00
C2052  C     0.83306   0.50040   0.68846   0.00000  Uiso   1.00
C2053  C     0.83308   0.49952   0.97818   0.00000  Uiso   1.00
C2054  C     0.68934   0.47589   0.87246   0.00000  Uiso   1.00
C2055  C     0.97950   0.53077   0.80102   0.00000  Uiso   1.00
C2056  C     0.97921   0.47727   0.87367   0.00000  Uiso   1.00
H2057  H     0.68660   0.38644   0.90096   0.00000  Uiso   1.00
H2058  H     0.98290   0.59815   0.76603   0.00000  Uiso   1.00
H2059  H     0.94626   0.47608   0.99549   0.00000  Uiso   1.00
H2060  H     0.98274   0.51272   0.96332   0.00000  Uiso   1.00
H2061  H     0.92758   0.51560   0.94860   0.00000  Uiso   1.00
H2062  H     0.92500   0.44501   0.90963   0.00000  Uiso   1.00
H2063  H     0.97157   0.42784   0.93561   0.00000  Uiso   1.00
H2064  H     0.74346   0.48048   0.73070   0.00000  Uiso   1.00
H2065  H     0.69015   0.48088   0.70595   0.00000  Uiso   1.00
H2066  H     0.73027   0.51468   0.67676   0.00000  Uiso   1.00
H2067  H     0.69146   0.56331   0.72328   0.00000  Uiso   1.00
H2068  H     0.73781   0.39603   0.87743   0.00000  Uiso   1.00
H2069  H     0.73875   0.55884   0.75609   0.00000  Uiso   1.00
H2070  H     0.85938   0.33388   0.96011   0.00000  Uiso   1.00
H2071  H     0.82672   0.38185   0.95145   0.00000  Uiso   1.00
H2072  H     0.88539   0.42997   0.98656   0.00000  Uiso   1.00
H2073  H     0.87005   0.38611   0.69656   0.00000  Uiso   1.00
H2074  H     0.91673   0.38119   0.99493   0.00000  Uiso   1.00
H2075  H     0.84417   0.61035   0.72298   0.00000  Uiso   1.00
H2076  H     0.82072   0.66254   0.70895   0.00000  Uiso   1.00
H2077  H     0.76179   0.62568   0.99698   0.00000  Uiso   1.00
H2078  H     0.81036   0.60831   0.97285   0.00000  Uiso   1.00
H2079  H     0.73137   0.38730   0.94334   0.00000  Uiso   1.00
H2080  H     0.78133   0.57143   0.68060   0.00000  Uiso   1.00
H2081  H     0.75708   0.35017   0.72305   0.00000  Uiso   1.00
H2082  H     0.77324   0.40844   0.72635   0.00000  Uiso   1.00
H2083  H     0.70206   0.41905   0.76598   0.00000  Uiso   1.00
H2084  H     0.69913   0.39976   0.70199   0.00000  Uiso   1.00
H2085  H     0.68991   0.36108   0.75374   0.00000  Uiso   1.00
H2086  H     0.93280   0.33440   0.91676   0.00000  Uiso   1.00
H2087  H     0.93694   0.64762   0.85388   0.00000  Uiso   1.00
H2088  H     0.95803   0.57403   0.89264   0.00000  Uiso   1.00
H2089  H     0.99202   0.61997   0.91155   0.00000  Uiso   1.00
H2090  H     0.74603   0.46853   0.92030   0.00000  Uiso   1.00
H2091  H     0.95364   0.59716   0.95389   0.00000  Uiso   1.00
H2092  H     0.70051   0.45908   0.95197   0.00000  Uiso   1.00
H2093  H     0.95746   0.55302   0.69690   0.00000  Uiso   1.00
H2094  H     0.91608   0.52741   0.73246   0.00000  Uiso   1.00
H2095  H     0.91512   0.58614   0.71420   0.00000  Uiso   1.00
H2096  H     0.93940   0.58883   0.79937   0.00000  Uiso   1.00
N2097  N     0.83333   0.61907   0.83333   0.00000  Uiso   1.00
N2098  N     0.83333   0.38093   0.83333   0.00000  Uiso   1.00
O2099  O     0.77226   0.53821   0.83333   0.00000  Uiso   1.00
O2100  O     0.78924   0.62052   0.76085   0.00000  Uiso   1.00
O2101  O     0.76668   0.37575   0.79522   0.00000  Uiso   1.00
O2102  O     0.88774   0.61889   0.89553   0.00000  Uiso   1.00
O2103  O     0.89441   0.46179   0.83334   0.00000  Uiso   1.00
O2104  O     0.89441   0.53821   0.83334   0.00000  Uiso   1.00
O2105  O     0.77226   0.46179   0.83333   0.00000  Uiso   1.00
O2106  O     0.83334   0.53821   0.76178   0.00000  Uiso   1.00
O2107  O     0.83333   0.46179   0.90489   0.00000  Uiso   1.00
O2108  O     0.83333   0.53821   0.90489   0.00000  Uiso   1.00
O2109  O     0.83334   0.46179   0.76178   0.00000  Uiso   1.00
O2110  O     0.87766   0.38134   0.90503   0.00000  Uiso   1.00
Zn2111 Zn    0.83333   0.55104   0.83333   0.00000  Uiso   1.00
Zn2112 Zn    0.83333   0.44896   0.83333   0.00000  Uiso   1.00
C2113  C     0.08690   0.83264   0.83192   0.00000  Uiso   1.00
C2114  C     0.02142   0.85642   0.79448   0.00000  Uiso   1.00
C2115  C     0.29135   0.83641   0.83629   0.00000  Uiso   1.00
C2116  C     0.04274   0.83119   0.83195   0.00000  Uiso   1.00
C2117  C     0.19067   0.69093   0.86740   0.00000  Uiso   1.00
C2118  C     0.14245   0.97624   0.79963   0.00000  Uiso   1.00
C2119  C     0.13873   0.69062   0.80348   0.00000  Uiso   1.00
C2120  C     0.19317   0.97607   0.86510   0.00000  Uiso   1.00
C2121  C     0.04766   0.78663   0.91546   0.00000  Uiso   1.00
C2122  C     0.05086   0.73612   0.90874   0.00000  Uiso   1.00
C2123  C     0.29284   0.90440   0.77444   0.00000  Uiso   1.00
C2124  C     0.24670   0.83423   0.83410   0.00000  Uiso   1.00
C2125  C     0.26873   0.89174   0.72669   0.00000  Uiso   1.00
C2126  C     0.28981   0.79105   0.91907   0.00000  Uiso   1.00
C2127  C     0.28648   0.82609   0.95897   0.00000  Uiso   1.00
C2128  C     0.04310   0.87325   0.74687   0.00000  Uiso   1.00
C2129  C     0.05233   0.83474   0.71320   0.00000  Uiso   1.00
C2130  C     0.19265   0.70374   0.95142   0.00000  Uiso   1.00
C2131  C     0.21777   0.72663   0.99327   0.00000  Uiso   1.00
C2132  C     0.14709   0.95991   0.71776   0.00000  Uiso   1.00
C2133  C     0.12369   0.94017   0.67261   0.00000  Uiso   1.00
C2134  C     0.08803   0.71414   0.74433   0.00000  Uiso   1.00
C2135  C     0.16638   0.83365   0.73964   0.00000  Uiso   1.00
C2136  C     0.04197   0.72436   0.74123   0.00000  Uiso   1.00
C2137  C     0.26204   0.97137   0.89297   0.00000  Uiso   1.00
C2138  C     0.29333   0.93844   0.91405   0.00000  Uiso   1.00
C2139  C     0.16667   0.83299   0.92702   0.00000  Uiso   1.00
C2140  C     0.16640   0.83373   0.68846   0.00000  Uiso   1.00
C2141  C     0.16641   0.83286   0.97818   0.00000  Uiso   1.00
C2142  C     0.02268   0.80922   0.87246   0.00000  Uiso   1.00
C2143  C     0.31283   0.86410   0.80102   0.00000  Uiso   1.00
C2144  C     0.31254   0.81060   0.87367   0.00000  Uiso   1.00
H2145  H     0.01993   0.71977   0.90096   0.00000  Uiso   1.00
H2146  H     0.31623   0.93148   0.76603   0.00000  Uiso   1.00
H2147  H     0.27959   0.80941   0.99549   0.00000  Uiso   1.00
H2148  H     0.31607   0.84605   0.96332   0.00000  Uiso   1.00
H2149  H     0.26092   0.84894   0.94860   0.00000  Uiso   1.00
H2150  H     0.25834   0.77834   0.90963   0.00000  Uiso   1.00
H2151  H     0.30490   0.76117   0.93561   0.00000  Uiso   1.00
H2152  H     0.07679   0.81382   0.73070   0.00000  Uiso   1.00
H2153  H     0.02348   0.81421   0.70595   0.00000  Uiso   1.00
H2154  H     0.06360   0.84802   0.67676   0.00000  Uiso   1.00
H2155  H     0.02479   0.89664   0.72328   0.00000  Uiso   1.00
H2156  H     0.07115   0.72937   0.87743   0.00000  Uiso   1.00
H2157  H     0.07209   0.89218   0.75609   0.00000  Uiso   1.00
H2158  H     0.19272   0.66721   0.96011   0.00000  Uiso   1.00
H2159  H     0.16005   0.71519   0.95145   0.00000  Uiso   1.00
H2160  H     0.21872   0.76330   0.98656   0.00000  Uiso   1.00
H2161  H     0.20338   0.71944   0.69656   0.00000  Uiso   1.00
H2162  H     0.25007   0.71453   0.99493   0.00000  Uiso   1.00
H2163  H     0.17750   0.94368   0.72298   0.00000  Uiso   1.00
H2164  H     0.15405   0.99587   0.70895   0.00000  Uiso   1.00
H2165  H     0.09512   0.95901   0.99698   0.00000  Uiso   1.00
H2166  H     0.14369   0.94165   0.97285   0.00000  Uiso   1.00
H2167  H     0.06471   0.72064   0.94334   0.00000  Uiso   1.00
H2168  H     0.11467   0.90477   0.68060   0.00000  Uiso   1.00
H2169  H     0.09041   0.68350   0.72305   0.00000  Uiso   1.00
H2170  H     0.10658   0.74178   0.72635   0.00000  Uiso   1.00
H2171  H     0.03540   0.75238   0.76598   0.00000  Uiso   1.00
H2172  H     0.03246   0.73310   0.70199   0.00000  Uiso   1.00
H2173  H     0.02324   0.69441   0.75374   0.00000  Uiso   1.00
H2174  H     0.26614   0.66773   0.91676   0.00000  Uiso   1.00
H2175  H     0.27027   0.98096   0.85388   0.00000  Uiso   1.00
H2176  H     0.29136   0.90736   0.89264   0.00000  Uiso   1.00
H2177  H     0.32535   0.95330   0.91155   0.00000  Uiso   1.00
H2178  H     0.07937   0.80186   0.92030   0.00000  Uiso   1.00
H2179  H     0.28698   0.93050   0.95389   0.00000  Uiso   1.00
H2180  H     0.03385   0.79241   0.95197   0.00000  Uiso   1.00
H2181  H     0.29080   0.88635   0.69690   0.00000  Uiso   1.00
H2182  H     0.24942   0.86074   0.73246   0.00000  Uiso   1.00
H2183  H     0.24845   0.91947   0.71420   0.00000  Uiso   1.00
H2184  H     0.27274   0.92216   0.79937   0.00000  Uiso   1.00
N2185  N     0.16667   0.95240   0.83333   0.00000  Uiso   1.00
N2186  N     0.16667   0.71427   0.83333   0.00000  Uiso   1.00
O2187  O     0.10559   0.87154   0.83333   0.00000  Uiso   1.00
O2188  O     0.12257   0.95385   0.76085   0.00000  Uiso   1.00
O2189  O     0.10001   0.70908   0.79522   0.00000  Uiso   1.00
O2190  O     0.22107   0.95222   0.89553   0.00000  Uiso   1.00
O2191  O     0.22774   0.79513   0.83334   0.00000  Uiso   1.00
O2192  O     0.22774   0.87154   0.83334   0.00000  Uiso   1.00
O2193  O     0.10559   0.79513   0.83333   0.00000  Uiso   1.00
O2194  O     0.16667   0.87155   0.76178   0.00000  Uiso   1.00
O2195  O     0.16666   0.79512   0.90489   0.00000  Uiso   1.00
O2196  O     0.16666   0.87155   0.90489   0.00000  Uiso   1.00
O2197  O     0.16667   0.79512   0.76178   0.00000  Uiso   1.00
O2198  O     0.21099   0.71467   0.90503   0.00000  Uiso   1.00
Zn2199 Zn    0.16667   0.88437   0.83333   0.00000  Uiso   1.00
Zn2200 Zn    0.16667   0.78229   0.83333   0.00000  Uiso   1.00
C2201  C     0.42024   0.83264   0.83192   0.00000  Uiso   1.00
C2202  C     0.35476   0.85642   0.79448   0.00000  Uiso   1.00
C2203  C     0.62468   0.83641   0.83629   0.00000  Uiso   1.00
C2204  C     0.37607   0.83119   0.83195   0.00000  Uiso   1.00
C2205  C     0.52400   0.69093   0.86740   0.00000  Uiso   1.00
C2206  C     0.47578   0.97624   0.79963   0.00000  Uiso   1.00
C2207  C     0.47207   0.69062   0.80348   0.00000  Uiso   1.00
C2208  C     0.52650   0.97607   0.86510   0.00000  Uiso   1.00
C2209  C     0.38099   0.78663   0.91546   0.00000  Uiso   1.00
C2210  C     0.38419   0.73612   0.90874   0.00000  Uiso   1.00
C2211  C     0.62617   0.90440   0.77444   0.00000  Uiso   1.00
C2212  C     0.58004   0.83423   0.83410   0.00000  Uiso   1.00
C2213  C     0.60207   0.89174   0.72669   0.00000  Uiso   1.00
C2214  C     0.62314   0.79105   0.91907   0.00000  Uiso   1.00
C2215  C     0.61982   0.82609   0.95897   0.00000  Uiso   1.00
C2216  C     0.37643   0.87325   0.74687   0.00000  Uiso   1.00
C2217  C     0.38567   0.83474   0.71320   0.00000  Uiso   1.00
C2218  C     0.52598   0.70374   0.95142   0.00000  Uiso   1.00
C2219  C     0.55110   0.72663   0.99327   0.00000  Uiso   1.00
C2220  C     0.48042   0.95991   0.71776   0.00000  Uiso   1.00
C2221  C     0.45702   0.94017   0.67261   0.00000  Uiso   1.00
C2222  C     0.42137   0.71414   0.74433   0.00000  Uiso   1.00
C2223  C     0.49971   0.83365   0.73964   0.00000  Uiso   1.00
C2224  C     0.37530   0.72436   0.74123   0.00000  Uiso   1.00
C2225  C     0.59537   0.97137   0.89297   0.00000  Uiso   1.00
C2226  C     0.62667   0.93844   0.91405   0.00000  Uiso   1.00
C2227  C     0.50001   0.83299   0.92702   0.00000  Uiso   1.00
C2228  C     0.49973   0.83373   0.68846   0.00000  Uiso   1.00
C2229  C     0.49975   0.83286   0.97818   0.00000  Uiso   1.00
C2230  C     0.35601   0.80922   0.87246   0.00000  Uiso   1.00
C2231  C     0.64616   0.86410   0.80102   0.00000  Uiso   1.00
C2232  C     0.64588   0.81060   0.87367   0.00000  Uiso   1.00
H2233  H     0.35326   0.71977   0.90096   0.00000  Uiso   1.00
H2234  H     0.64956   0.93148   0.76603   0.00000  Uiso   1.00
H2235  H     0.61292   0.80941   0.99549   0.00000  Uiso   1.00
H2236  H     0.64940   0.84605   0.96332   0.00000  Uiso   1.00
H2237  H     0.59425   0.84894   0.94860   0.00000  Uiso   1.00
H2238  H     0.59167   0.77834   0.90963   0.00000  Uiso   1.00
H2239  H     0.63823   0.76117   0.93561   0.00000  Uiso   1.00
H2240  H     0.41013   0.81382   0.73070   0.00000  Uiso   1.00
H2241  H     0.35682   0.81421   0.70595   0.00000  Uiso   1.00
H2242  H     0.39693   0.84802   0.67676   0.00000  Uiso   1.00
H2243  H     0.35812   0.89664   0.72328   0.00000  Uiso   1.00
H2244  H     0.40448   0.72937   0.87743   0.00000  Uiso   1.00
H2245  H     0.40542   0.89218   0.75609   0.00000  Uiso   1.00
H2246  H     0.52605   0.66721   0.96011   0.00000  Uiso   1.00
H2247  H     0.49338   0.71519   0.95145   0.00000  Uiso   1.00
H2248  H     0.55206   0.76330   0.98656   0.00000  Uiso   1.00
H2249  H     0.53671   0.71944   0.69656   0.00000  Uiso   1.00
H2250  H     0.58340   0.71453   0.99493   0.00000  Uiso   1.00
H2251  H     0.51083   0.94368   0.72298   0.00000  Uiso   1.00
H2252  H     0.48739   0.99587   0.70895   0.00000  Uiso   1.00
H2253  H     0.42846   0.95901   0.99698   0.00000  Uiso   1.00
H2254  H     0.47703   0.94165   0.97285   0.00000  Uiso   1.00
H2255  H     0.39804   0.72064   0.94334   0.00000  Uiso   1.00
H2256  H     0.44800   0.90477   0.68060   0.00000  Uiso   1.00
H2257  H     0.42374   0.68350   0.72305   0.00000  Uiso   1.00
H2258  H     0.43991   0.74178   0.72635   0.00000  Uiso   1.00
H2259  H     0.36873   0.75238   0.76598   0.00000  Uiso   1.00
H2260  H     0.36579   0.73310   0.70199   0.00000  Uiso   1.00
H2261  H     0.35657   0.69441   0.75374   0.00000  Uiso   1.00
H2262  H     0.59947   0.66773   0.91676   0.00000  Uiso   1.00
H2263  H     0.60360   0.98096   0.85388   0.00000  Uiso   1.00
H2264  H     0.62469   0.90736   0.89264   0.00000  Uiso   1.00
H2265  H     0.65868   0.95330   0.91155   0.00000  Uiso   1.00
H2266  H     0.41270   0.80186   0.92030   0.00000  Uiso   1.00
H2267  H     0.62031   0.93050   0.95389   0.00000  Uiso   1.00
H2268  H     0.36718   0.79241   0.95197   0.00000  Uiso   1.00
H2269  H     0.62413   0.88635   0.69690   0.00000  Uiso   1.00
H2270  H     0.58275   0.86074   0.73246   0.00000  Uiso   1.00
H2271  H     0.58178   0.91947   0.71420   0.00000  Uiso   1.00
H2272  H     0.60607   0.92216   0.79937   0.00000  Uiso   1.00
N2273  N     0.50000   0.95240   0.83333   0.00000  Uiso   1.00
N2274  N     0.50000   0.71427   0.83333   0.00000  Uiso   1.00
O2275  O     0.43892   0.87154   0.83333   0.00000  Uiso   1.00
O2276  O     0.45590   0.95385   0.76085   0.00000  Uiso   1.00
O2277  O     0.43334   0.70908   0.79522   0.00000  Uiso   1.00
O2278  O     0.55441   0.95222   0.89553   0.00000  Uiso   1.00
O2279  O     0.56108   0.79513   0.83334   0.00000  Uiso   1.00
O2280  O     0.56108   0.87154   0.83334   0.00000  Uiso   1.00
O2281  O     0.43892   0.79513   0.83333   0.00000  Uiso   1.00
O2282  O     0.50000   0.87155   0.76178   0.00000  Uiso   1.00
O2283  O     0.50000   0.79512   0.90489   0.00000  Uiso   1.00
O2284  O     0.50000   0.87155   0.90489   0.00000  Uiso   1.00
O2285  O     0.50000   0.79512   0.76178   0.00000  Uiso   1.00
O2286  O     0.54432   0.71467   0.90503   0.00000  Uiso   1.00
Zn2287 Zn    0.50000   0.88437   0.83333   0.00000  Uiso   1.00
Zn2288 Zn    0.50000   0.78229   0.83333   0.00000  Uiso   1.00
C2289  C     0.75357   0.83264   0.83192   0.00000  Uiso   1.00
C2290  C     0.68809   0.85642   0.79448   0.00000  Uiso   1.00
C2291  C     0.95802   0.83641   0.83629   0.00000  Uiso   1.00
C2292  C     0.70941   0.83119   0.83195   0.00000  Uiso   1.00
C2293  C     0.85734   0.69093   0.86740   0.00000  Uiso   1.00
C2294  C     0.80912   0.97624   0.79963   0.00000  Uiso   1.00
C2295  C     0.80540   0.69062   0.80348   0.00000  Uiso   1.00
C2296  C     0.85984   0.97607   0.86510   0.00000  Uiso   1.00
C2297  C     0.71433   0.78663   0.91546   0.00000  Uiso   1.00
C2298  C     0.71752   0.73612   0.90874   0.00000  Uiso   1.00
C2299  C     0.95951   0.90440   0.77444   0.00000  Uiso   1.00
C2300  C     0.91337   0.83423   0.83410   0.00000  Uiso   1.00
C2301  C     0.93540   0.89174   0.72669   0.00000  Uiso   1.00
C2302  C     0.95647   0.79105   0.91907   0.00000  Uiso   1.00
C2303  C     0.95315   0.82609   0.95897   0.00000  Uiso   1.00
C2304  C     0.70976   0.87325   0.74687   0.00000  Uiso   1.00
C2305  C     0.71900   0.83474   0.71320   0.00000  Uiso   1.00
C2306  C     0.85931   0.70374   0.95142   0.00000  Uiso   1.00
C2307  C     0.88443   0.72663   0.99327   0.00000  Uiso   1.00
C2308  C     0.81376   0.95991   0.71776   0.00000  Uiso   1.00
C2309  C     0.79036   0.94017   0.67261   0.00000  Uiso   1.00
C2310  C     0.75470   0.71414   0.74433   0.00000  Uiso   1.00
C2311  C     0.83304   0.83365   0.73964   0.00000  Uiso   1.00
C2312  C     0.70864   0.72436   0.74123   0.00000  Uiso   1.00
C2313  C     0.92870   0.97137   0.89297   0.00000  Uiso   1.00
C2314  C     0.96000   0.93844   0.91405   0.00000  Uiso   1.00
C2315  C     0.83334   0.83299   0.92702   0.00000  Uiso   1.00
C2316  C     0.83306   0.83373   0.68846   0.00000  Uiso   1.00
C2317  C     0.83308   0.83286   0.97818   0.00000  Uiso   1.00
C2318  C     0.68934   0.80922   0.87246   0.00000  Uiso   1.00
C2319  C     0.97950   0.86410   0.80102   0.00000  Uiso   1.00
C2320  C     0.97921   0.81060   0.87367   0.00000  Uiso   1.00
H2321  H     0.68660   0.71977   0.90096   0.00000  Uiso   1.00
H2322  H     0.98290   0.93148   0.76603   0.00000  Uiso   1.00
H2323  H     0.94626   0.80941   0.99549   0.00000  Uiso   1.00
H2324  H     0.98274   0.84605   0.96332   0.00000  Uiso   1.00
H2325  H     0.92758   0.84894   0.94860   0.00000  Uiso   1.00
H2326  H     0.92500   0.77834   0.90963   0.00000  Uiso   1.00
H2327  H     0.97157   0.76117   0.93561   0.00000  Uiso   1.00
H2328  H     0.74346   0.81382   0.73070   0.00000  Uiso   1.00
H2329  H     0.69015   0.81421   0.70595   0.00000  Uiso   1.00
H2330  H     0.73027   0.84802   0.67676   0.00000  Uiso   1.00
H2331  H     0.69146   0.89664   0.72328   0.00000  Uiso   1.00
H2332  H     0.73781   0.72937   0.87743   0.00000  Uiso   1.00
H2333  H     0.73875   0.89218   0.75609   0.00000  Uiso   1.00
H2334  H     0.85938   0.66721   0.96011   0.00000  Uiso   1.00
H2335  H     0.82672   0.71519   0.95145   0.00000  Uiso   1.00
H2336  H     0.88539   0.76330   0.98656   0.00000  Uiso   1.00
H2337  H     0.87005   0.71944   0.69656   0.00000  Uiso   1.00
H2338  H     0.91673   0.71453   0.99493   0.00000  Uiso   1.00
H2339  H     0.84417   0.94368   0.72298   0.00000  Uiso   1.00
H2340  H     0.82072   0.99587   0.70895   0.00000  Uiso   1.00
H2341  H     0.76179   0.95901   0.99698   0.00000  Uiso   1.00
H2342  H     0.81036   0.94165   0.97285   0.00000  Uiso   1.00
H2343  H     0.73137   0.72064   0.94334   0.00000  Uiso   1.00
H2344  H     0.78133   0.90477   0.68060   0.00000  Uiso   1.00
H2345  H     0.75708   0.68350   0.72305   0.00000  Uiso   1.00
H2346  H     0.77324   0.74178   0.72635   0.00000  Uiso   1.00
H2347  H     0.70206   0.75238   0.76598   0.00000  Uiso   1.00
H2348  H     0.69913   0.73310   0.70199   0.00000  Uiso   1.00
H2349  H     0.68991   0.69441   0.75374   0.00000  Uiso   1.00
H2350  H     0.93280   0.66773   0.91676   0.00000  Uiso   1.00
H2351  H     0.93694   0.98096   0.85388   0.00000  Uiso   1.00
H2352  H     0.95803   0.90736   0.89264   0.00000  Uiso   1.00
H2353  H     0.99202   0.95330   0.91155   0.00000  Uiso   1.00
H2354  H     0.74603   0.80186   0.92030   0.00000  Uiso   1.00
H2355  H     0.95364   0.93050   0.95389   0.00000  Uiso   1.00
H2356  H     0.70051   0.79241   0.95197   0.00000  Uiso   1.00
H2357  H     0.95746   0.88635   0.69690   0.00000  Uiso   1.00
H2358  H     0.91608   0.86074   0.73246   0.00000  Uiso   1.00
H2359  H     0.91512   0.91947   0.71420   0.00000  Uiso   1.00
H2360  H     0.93940   0.92216   0.79937   0.00000  Uiso   1.00
N2361  N     0.83333   0.95240   0.83333   0.00000  Uiso   1.00
N2362  N     0.83333   0.71427   0.83333   0.00000  Uiso   1.00
O2363  O     0.77226   0.87154   0.83333   0.00000  Uiso   1.00
O2364  O     0.78924   0.95385   0.76085   0.00000  Uiso   1.00
O2365  O     0.76668   0.70908   0.79522   0.00000  Uiso   1.00
O2366  O     0.88774   0.95222   0.89553   0.00000  Uiso   1.00
O2367  O     0.89441   0.79513   0.83334   0.00000  Uiso   1.00
O2368  O     0.89441   0.87154   0.83334   0.00000  Uiso   1.00
O2369  O     0.77226   0.79513   0.83333   0.00000  Uiso   1.00
O2370  O     0.83334   0.87155   0.76178   0.00000  Uiso   1.00
O2371  O     0.83333   0.79512   0.90489   0.00000  Uiso   1.00
O2372  O     0.83333   0.87155   0.90489   0.00000  Uiso   1.00
O2373  O     0.83334   0.79512   0.76178   0.00000  Uiso   1.00
O2374  O     0.87766   0.71467   0.90503   0.00000  Uiso   1.00
Zn2375 Zn    0.83333   0.88437   0.83333   0.00000  Uiso   1.00
Zn2376 Zn    0.83333   0.78229   0.83333   0.00000  Uiso   1.00
loop_
_geom_bond_atom_site_label_1
_geom_bond_atom_site_label_2
_geom_bond_distance
_geom_bond_site_symmetry_2
_ccdc_geom_bond_type
C1     O81     1.288   .     A
C1     O75     1.290   .     A
C1     C4      1.420   .     S
C2     C16     1.535   .     S
C2     C4      1.412   .     A
C2     C207    1.393   1_455 S
C3     C12     1.435   .     S
C3     C31     1.418   .     A
C3     C32     1.418   .     A
C4     C30     1.414   .     A
C5     N74     1.368   .     A
C5     O86     1.380   .     S
C5     C536    1.446   1_545 S
C6     N73     1.373   .     A
C6     O76     1.376   .     S
C6     C271    1.440   .     S
C7     O77     1.388   .     S
C7     N74     1.372   .     A
C7     C534    1.440   1_545 S
C8     O78     1.394   .     S
C8     N73     1.375   .     A
C8     C269    1.446   .     S
C9     H66     1.108   .     S
C9     C10     1.530   .     S
C9     C30     1.536   .     S
C9     H68     1.105   .     S
C10    H44     1.104   .     S
C10    H55     1.111   .     S
C10    H33     1.109   .     S
C11    C31     1.531   .     S
C11    H72     1.101   .     S
C11    H34     1.109   .     S
C11    C13     1.522   .     S
C12    O79     1.299   .     A
C12    O80     1.287   .     A
C13    H70     1.107   .     S
C13    H71     1.109   .     S
C13    H69     1.101   .     S
C14    H38     1.093   .     S
C14    H39     1.106   .     S
C14    C32     1.529   .     S
C14    C15     1.521   .     S
C15    H37     1.110   .     S
C15    H35     1.110   .     S
C15    H36     1.110   .     S
C16    C17     1.520   .     S
C16    H43     1.102   .     S
C16    H45     1.098   .     S
C17    H42     1.109   .     S
C17    H40     1.106   .     S
C17    H41     1.109   .     S
C18    H47     1.114   .     S
C18    O86     1.416   .     S
C18    C19     1.522   .     S
C18    H46     1.109   .     S
C19    H48     1.104   .     S
C19    H50     1.111   .     S
C19    H841    1.109   .     S
C20    O76     1.420   .     S
C20    H51     1.109   .     S
C20    H52     1.110   .     S
C20    C21     1.523   .     S
C21    H56     1.104   .     S
C21    H1637   1.110   1_554 S
C21    H1638   1.109   1_554 S
C22    H57     1.095   .     S
C22    C24     1.522   .     S
C22    O77     1.408   .     S
C22    H58     1.110   .     S
C23    O82     1.289   .     A
C23    C28     1.368   .     S
C23    O85     1.280   .     A
C24    H61     1.111   .     S
C24    H60     1.111   .     S
C24    H59     1.109   .     S
C25    H63     1.114   .     S
C25    O78     1.421   .     S
C25    C26     1.517   .     S
C25    H326    1.106   .     S
C26    H67     1.109   .     S
C26    H64     1.101   .     S
C26    H65     1.111   .     S
C27    C29     1.368   .     S
C27    O84     1.280   .     A
C27    O83     1.289   .     A
C28    C1613   1.166   1_554 S
C29    C820    1.166   .     S
C30    C208    1.401   1_455 S
C31    C90     1.393   .     S
C32    C118    1.401   .     S
H49    C1603   1.109   1_554 S
H53    C813    1.110   .     S
H54    C813    1.109   .     S
H62    C553    1.106   1_545 S
N73    Zn87    2.030   .     S
N74    Zn88    2.030   .     S
O75    Zn87    1.989   .     S
O79    Zn88    1.989   .     S
O80    Zn87    2.014   .     S
O81    Zn88    2.014   .     S
O82    Zn87    1.960   .     S
O83    Zn88    1.960   .     S
O84    Zn87    1.941   .     S
O85    Zn88    1.941   .     S
C89    O169    1.288   .     A
C89    O163    1.290   .     A
C89    C92     1.420   .     S
C90    C104    1.535   .     S
C90    C92     1.412   .     A
C91    C100    1.435   .     S
C91    C119    1.418   .     A
C91    C120    1.418   .     A
C92    C118    1.414   .     A
C93    N162    1.368   .     A
C93    O174    1.380   .     S
C93    C624    1.446   1_545 S
C94    N161    1.373   .     A
C94    O164    1.376   .     S
C94    C359    1.440   .     S
C95    O165    1.388   .     S
C95    N162    1.372   .     A
C95    C622    1.440   1_545 S
C96    O166    1.394   .     S
C96    N161    1.375   .     A
C96    C357    1.446   .     S
C97    H154    1.108   .     S
C97    C98     1.530   .     S
C97    C118    1.536   .     S
C97    H156    1.105   .     S
C98    H132    1.104   .     S
C98    H143    1.111   .     S
C98    H121    1.109   .     S
C99    C119    1.531   .     S
C99    H160    1.101   .     S
C99    H122    1.109   .     S
C99    C101    1.522   .     S
C100   O167    1.299   .     A
C100   O168    1.287   .     A
C101   H158    1.107   .     S
C101   H159    1.109   .     S
C101   H157    1.101   .     S
C102   H126    1.093   .     S
C102   H127    1.106   .     S
C102   C120    1.529   .     S
C102   C103    1.521   .     S
C103   H125    1.110   .     S
C103   H123    1.110   .     S
C103   H124    1.110   .     S
C104   C105    1.520   .     S
C104   H131    1.102   .     S
C104   H133    1.098   .     S
C105   H130    1.109   .     S
C105   H128    1.106   .     S
C105   H129    1.109   .     S
C106   H135    1.114   .     S
C106   O174    1.416   .     S
C106   C107    1.522   .     S
C106   H134    1.109   .     S
C107   H136    1.104   .     S
C107   H138    1.111   .     S
C107   H929    1.109   .     S
C108   O164    1.420   .     S
C108   H139    1.109   .     S
C108   H140    1.110   .     S
C108   C109    1.523   .     S
C109   H144    1.104   .     S
C109   H1725   1.110   1_554 S
C109   H1726   1.109   1_554 S
C110   H145    1.095   .     S
C110   C112    1.522   .     S
C110   O165    1.408   .     S
C110   H146    1.110   .     S
C111   O170    1.289   .     A
C111   C116    1.368   .     S
C111   O173    1.280   .     A
C112   H149    1.111   .     S
C112   H148    1.111   .     S
C112   H147    1.109   .     S
C113   H151    1.114   .     S
C113   O166    1.421   .     S
C113   C114    1.517   .     S
C113   H414    1.106   .     S
C114   H155    1.109   .     S
C114   H152    1.101   .     S
C114   H153    1.111   .     S
C115   C117    1.368   .     S
C115   O172    1.280   .     A
C115   O171    1.289   .     A
C116   C1701   1.166   1_554 S
C117   C908    1.166   .     S
C119   C178    1.393   .     S
C120   C206    1.401   .     S
H137   C1691   1.109   1_554 S
H141   C901    1.110   .     S
H142   C901    1.109   .     S
H150   C641    1.106   1_545 S
N161   Zn175   2.030   .     S
N162   Zn176   2.030   .     S
O163   Zn175   1.989   .     S
O167   Zn176   1.989   .     S
O168   Zn175   2.014   .     S
O169   Zn176   2.014   .     S
O170   Zn175   1.960   .     S
O171   Zn176   1.960   .     S
O172   Zn175   1.941   .     S
O173   Zn176   1.941   .     S
C177   O257    1.288   .     A
C177   O251    1.290   .     A
C177   C180    1.420   .     S
C178   C192    1.535   .     S
C178   C180    1.412   .     A
C179   C188    1.435   .     S
C179   C207    1.418   .     A
C179   C208    1.418   .     A
C180   C206    1.414   .     A
C181   N250    1.368   .     A
C181   O262    1.380   .     S
C181   C712    1.446   1_545 S
C182   N249    1.373   .     A
C182   O252    1.376   .     S
C182   C447    1.440   .     S
C183   O253    1.388   .     S
C183   N250    1.372   .     A
C183   C710    1.440   1_545 S
C184   O254    1.394   .     S
C184   N249    1.375   .     A
C184   C445    1.446   .     S
C185   H242    1.108   .     S
C185   C186    1.530   .     S
C185   C206    1.536   .     S
C185   H244    1.105   .     S
C186   H220    1.104   .     S
C186   H231    1.111   .     S
C186   H209    1.109   .     S
C187   C207    1.531   .     S
C187   H248    1.101   .     S
C187   H210    1.109   .     S
C187   C189    1.522   .     S
C188   O255    1.299   .     A
C188   O256    1.287   .     A
C189   H246    1.107   .     S
C189   H247    1.109   .     S
C189   H245    1.101   .     S
C190   H214    1.093   .     S
C190   H215    1.106   .     S
C190   C208    1.529   .     S
C190   C191    1.521   .     S
C191   H213    1.110   .     S
C191   H211    1.110   .     S
C191   H212    1.110   .     S
C192   C193    1.520   .     S
C192   H219    1.102   .     S
C192   H221    1.098   .     S
C193   H218    1.109   .     S
C193   H216    1.106   .     S
C193   H217    1.109   .     S
C194   H223    1.114   .     S
C194   O262    1.416   .     S
C194   C195    1.522   .     S
C194   H222    1.109   .     S
C195   H224    1.104   .     S
C195   H226    1.111   .     S
C195   H1017   1.109   .     S
C196   O252    1.420   .     S
C196   H227    1.109   .     S
C196   H228    1.110   .     S
C196   C197    1.523   .     S
C197   H232    1.104   .     S
C197   H1813   1.110   1_554 S
C197   H1814   1.109   1_554 S
C198   H233    1.095   .     S
C198   C200    1.522   .     S
C198   O253    1.408   .     S
C198   H234    1.110   .     S
C199   O258    1.289   .     A
C199   C204    1.368   .     S
C199   O261    1.280   .     A
C200   H237    1.111   .     S
C200   H236    1.111   .     S
C200   H235    1.109   .     S
C201   H239    1.114   .     S
C201   O254    1.421   .     S
C201   C202    1.517   .     S
C201   H502    1.106   .     S
C202   H243    1.109   .     S
C202   H240    1.101   .     S
C202   H241    1.111   .     S
C203   C205    1.368   .     S
C203   O260    1.280   .     A
C203   O259    1.289   .     A
C204   C1789   1.166   1_554 S
C205   C996    1.166   .     S
C207   C2      1.393   1_655 S
C208   C30     1.401   1_655 S
H225   C1779   1.109   1_554 S
H229   C989    1.110   .     S
H230   C989    1.109   .     S
H238   C729    1.106   1_545 S
N249   Zn263   2.030   .     S
N250   Zn264   2.030   .     S
O251   Zn263   1.989   .     S
O255   Zn264   1.989   .     S
O256   Zn263   2.014   .     S
O257   Zn264   2.014   .     S
O258   Zn263   1.960   .     S
O259   Zn264   1.960   .     S
O260   Zn263   1.941   .     S
O261   Zn264   1.941   .     S
C265   O345    1.288   .     A
C265   O339    1.290   .     A
C265   C268    1.420   .     S
C266   C280    1.535   .     S
C266   C268    1.412   .     A
C266   C471    1.393   1_455 S
C267   C276    1.435   .     S
C267   C295    1.418   .     A
C267   C296    1.418   .     A
C268   C294    1.414   .     A
C269   N338    1.368   .     A
C269   O350    1.380   .     S
C270   N337    1.373   .     A
C270   O340    1.376   .     S
C270   C535    1.440   .     S
C271   O341    1.388   .     S
C271   N338    1.372   .     A
C272   O342    1.394   .     S
C272   N337    1.375   .     A
C272   C533    1.446   .     S
C273   H330    1.108   .     S
C273   C274    1.530   .     S
C273   C294    1.536   .     S
C273   H332    1.105   .     S
C274   H308    1.104   .     S
C274   H319    1.111   .     S
C274   H297    1.109   .     S
C275   C295    1.531   .     S
C275   H336    1.101   .     S
C275   H298    1.109   .     S
C275   C277    1.522   .     S
C276   O343    1.299   .     A
C276   O344    1.287   .     A
C277   H334    1.107   .     S
C277   H335    1.109   .     S
C277   H333    1.101   .     S
C278   H302    1.093   .     S
C278   H303    1.106   .     S
C278   C296    1.529   .     S
C278   C279    1.521   .     S
C279   H301    1.110   .     S
C279   H299    1.110   .     S
C279   H300    1.110   .     S
C280   C281    1.520   .     S
C280   H307    1.102   .     S
C280   H309    1.098   .     S
C281   H306    1.109   .     S
C281   H304    1.106   .     S
C281   H305    1.109   .     S
C282   H311    1.114   .     S
C282   O350    1.416   .     S
C282   C283    1.522   .     S
C282   H310    1.109   .     S
C283   H312    1.104   .     S
C283   H314    1.111   .     S
C283   H1105   1.109   .     S
C284   O340    1.420   .     S
C284   H315    1.109   .     S
C284   H316    1.110   .     S
C284   C285    1.523   .     S
C285   H320    1.104   .     S
C285   H1901   1.110   1_554 S
C285   H1902   1.109   1_554 S
C286   H321    1.095   .     S
C286   C288    1.522   .     S
C286   O341    1.408   .     S
C286   H322    1.110   .     S
C287   O346    1.289   .     A
C287   C292    1.368   .     S
C287   O349    1.280   .     A
C288   H325    1.111   .     S
C288   H324    1.111   .     S
C288   H323    1.109   .     S
C289   H327    1.114   .     S
C289   O342    1.421   .     S
C289   C290    1.517   .     S
C289   H590    1.106   .     S
C290   H331    1.109   .     S
C290   H328    1.101   .     S
C290   H329    1.111   .     S
C291   C293    1.368   .     S
C291   O348    1.280   .     A
C291   O347    1.289   .     A
C292   C1877   1.166   1_554 S
C293   C1084   1.166   .     S
C294   C472    1.401   1_455 S
C295   C354    1.393   .     S
C296   C382    1.401   .     S
H313   C1867   1.109   1_554 S
H317   C1077   1.110   .     S
H318   C1077   1.109   .     S
N337   Zn351   2.030   .     S
N338   Zn352   2.030   .     S
O339   Zn351   1.989   .     S
O343   Zn352   1.989   .     S
O344   Zn351   2.014   .     S
O345   Zn352   2.014   .     S
O346   Zn351   1.960   .     S
O347   Zn352   1.960   .     S
O348   Zn351   1.941   .     S
O349   Zn352   1.941   .     S
C353   O433    1.288   .     A
C353   O427    1.290   .     A
C353   C356    1.420   .     S
C354   C368    1.535   .     S
C354   C356    1.412   .     A
C355   C364    1.435   .     S
C355   C383    1.418   .     A
C355   C384    1.418   .     A
C356   C382    1.414   .     A
C357   N426    1.368   .     A
C357   O438    1.380   .     S
C358   N425    1.373   .     A
C358   O428    1.376   .     S
C358   C623    1.440   .     S
C359   O429    1.388   .     S
C359   N426    1.372   .     A
C360   O430    1.394   .     S
C360   N425    1.375   .     A
C360   C621    1.446   .     S
C361   H418    1.108   .     S
C361   C362    1.530   .     S
C361   C382    1.536   .     S
C361   H420    1.105   .     S
C362   H396    1.104   .     S
C362   H407    1.111   .     S
C362   H385    1.109   .     S
C363   C383    1.531   .     S
C363   H424    1.101   .     S
C363   H386    1.109   .     S
C363   C365    1.522   .     S
C364   O431    1.299   .     A
C364   O432    1.287   .     A
C365   H422    1.107   .     S
C365   H423    1.109   .     S
C365   H421    1.101   .     S
C366   H390    1.093   .     S
C366   H391    1.106   .     S
C366   C384    1.529   .     S
C366   C367    1.521   .     S
C367   H389    1.110   .     S
C367   H387    1.110   .     S
C367   H388    1.110   .     S
C368   C369    1.520   .     S
C368   H395    1.102   .     S
C368   H397    1.098   .     S
C369   H394    1.109   .     S
C369   H392    1.106   .     S
C369   H393    1.109   .     S
C370   H399    1.114   .     S
C370   O438    1.416   .     S
C370   C371    1.522   .     S
C370   H398    1.109   .     S
C371   H400    1.104   .     S
C371   H402    1.111   .     S
C371   H1193   1.109   .     S
C372   O428    1.420   .     S
C372   H403    1.109   .     S
C372   H404    1.110   .     S
C372   C373    1.523   .     S
C373   H408    1.104   .     S
C373   H1989   1.110   1_554 S
C373   H1990   1.109   1_554 S
C374   H409    1.095   .     S
C374   C376    1.522   .     S
C374   O429    1.408   .     S
C374   H410    1.110   .     S
C375   O434    1.289   .     A
C375   C380    1.368   .     S
C375   O437    1.280   .     A
C376   H413    1.111   .     S
C376   H412    1.111   .     S
C376   H411    1.109   .     S
C377   H415    1.114   .     S
C377   O430    1.421   .     S
C377   C378    1.517   .     S
C377   H678    1.106   .     S
C378   H419    1.109   .     S
C378   H416    1.101   .     S
C378   H417    1.111   .     S
C379   C381    1.368   .     S
C379   O436    1.280   .     A
C379   O435    1.289   .     A
C380   C1965   1.166   1_554 S
C381   C1172   1.166   .     S
C383   C442    1.393   .     S
C384   C470    1.401   .     S
H401   C1955   1.109   1_554 S
H405   C1165   1.110   .     S
H406   C1165   1.109   .     S
N425   Zn439   2.030   .     S
N426   Zn440   2.030   .     S
O427   Zn439   1.989   .     S
O431   Zn440   1.989   .     S
O432   Zn439   2.014   .     S
O433   Zn440   2.014   .     S
O434   Zn439   1.960   .     S
O435   Zn440   1.960   .     S
O436   Zn439   1.941   .     S
O437   Zn440   1.941   .     S
C441   O521    1.288   .     A
C441   O515    1.290   .     A
C441   C444    1.420   .     S
C442   C456    1.535   .     S
C442   C444    1.412   .     A
C443   C452    1.435   .     S
C443   C471    1.418   .     A
C443   C472    1.418   .     A
C444   C470    1.414   .     A
C445   N514    1.368   .     A
C445   O526    1.380   .     S
C446   N513    1.373   .     A
C446   O516    1.376   .     S
C446   C711    1.440   .     S
C447   O517    1.388   .     S
C447   N514    1.372   .     A
C448   O518    1.394   .     S
C448   N513    1.375   .     A
C448   C709    1.446   .     S
C449   H506    1.108   .     S
C449   C450    1.530   .     S
C449   C470    1.536   .     S
C449   H508    1.105   .     S
C450   H484    1.104   .     S
C450   H495    1.111   .     S
C450   H473    1.109   .     S
C451   C471    1.531   .     S
C451   H512    1.101   .     S
C451   H474    1.109   .     S
C451   C453    1.522   .     S
C452   O519    1.299   .     A
C452   O520    1.287   .     A
C453   H510    1.107   .     S
C453   H511    1.109   .     S
C453   H509    1.101   .     S
C454   H478    1.093   .     S
C454   H479    1.106   .     S
C454   C472    1.529   .     S
C454   C455    1.521   .     S
C455   H477    1.110   .     S
C455   H475    1.110   .     S
C455   H476    1.110   .     S
C456   C457    1.520   .     S
C456   H483    1.102   .     S
C456   H485    1.098   .     S
C457   H482    1.109   .     S
C457   H480    1.106   .     S
C457   H481    1.109   .     S
C458   H487    1.114   .     S
C458   O526    1.416   .     S
C458   C459    1.522   .     S
C458   H486    1.109   .     S
C459   H488    1.104   .     S
C459   H490    1.111   .     S
C459   H1281   1.109   .     S
C460   O516    1.420   .     S
C460   H491    1.109   .     S
C460   H492    1.110   .     S
C460   C461    1.523   .     S
C461   H496    1.104   .     S
C461   H2077   1.110   1_554 S
C461   H2078   1.109   1_554 S
C462   H497    1.095   .     S
C462   C464    1.522   .     S
C462   O517    1.408   .     S
C462   H498    1.110   .     S
C463   O522    1.289   .     A
C463   C468    1.368   .     S
C463   O525    1.280   .     A
C464   H501    1.111   .     S
C464   H500    1.111   .     S
C464   H499    1.109   .     S
C465   H503    1.114   .     S
C465   O518    1.421   .     S
C465   C466    1.517   .     S
C465   H766    1.106   .     S
C466   H507    1.109   .     S
C466   H504    1.101   .     S
C466   H505    1.111   .     S
C467   C469    1.368   .     S
C467   O524    1.280   .     A
C467   O523    1.289   .     A
C468   C2053   1.166   1_554 S
C469   C1260   1.166   .     S
C471   C266    1.393   1_655 S
C472   C294    1.401   1_655 S
H489   C2043   1.109   1_554 S
H493   C1253   1.110   .     S
H494   C1253   1.109   .     S
N513   Zn527   2.030   .     S
N514   Zn528   2.030   .     S
O515   Zn527   1.989   .     S
O519   Zn528   1.989   .     S
O520   Zn527   2.014   .     S
O521   Zn528   2.014   .     S
O522   Zn527   1.960   .     S
O523   Zn528   1.960   .     S
O524   Zn527   1.941   .     S
O525   Zn528   1.941   .     S
C529   O609    1.288   .     A
C529   O603    1.290   .     A
C529   C532    1.420   .     S
C530   C544    1.535   .     S
C530   C532    1.412   .     A
C530   C735    1.393   1_455 S
C531   C540    1.435   .     S
C531   C559    1.418   .     A
C531   C560    1.418   .     A
C532   C558    1.414   .     A
C533   N602    1.368   .     A
C533   O614    1.380   .     S
C534   N601    1.373   .     A
C534   O604    1.376   .     S
C534   C7      1.440   1_565 S
C535   O605    1.388   .     S
C535   N602    1.372   .     A
C536   O606    1.394   .     S
C536   N601    1.375   .     A
C536   C5      1.446   1_565 S
C537   H594    1.108   .     S
C537   C538    1.530   .     S
C537   C558    1.536   .     S
C537   H596    1.105   .     S
C538   H572    1.104   .     S
C538   H583    1.111   .     S
C538   H561    1.109   .     S
C539   C559    1.531   .     S
C539   H600    1.101   .     S
C539   H562    1.109   .     S
C539   C541    1.522   .     S
C540   O607    1.299   .     A
C540   O608    1.287   .     A
C541   H598    1.107   .     S
C541   H599    1.109   .     S
C541   H597    1.101   .     S
C542   H566    1.093   .     S
C542   H567    1.106   .     S
C542   C560    1.529   .     S
C542   C543    1.521   .     S
C543   H565    1.110   .     S
C543   H563    1.110   .     S
C543   H564    1.110   .     S
C544   C545    1.520   .     S
C544   H571    1.102   .     S
C544   H573    1.098   .     S
C545   H570    1.109   .     S
C545   H568    1.106   .     S
C545   H569    1.109   .     S
C546   H575    1.114   .     S
C546   O614    1.416   .     S
C546   C547    1.522   .     S
C546   H574    1.109   .     S
C547   H576    1.104   .     S
C547   H578    1.111   .     S
C547   H1369   1.109   .     S
C548   O604    1.420   .     S
C548   H579    1.109   .     S
C548   H580    1.110   .     S
C548   C549    1.523   .     S
C549   H584    1.104   .     S
C549   H2165   1.110   1_554 S
C549   H2166   1.109   1_554 S
C550   H585    1.095   .     S
C550   C552    1.522   .     S
C550   O605    1.408   .     S
C550   H586    1.110   .     S
C551   O610    1.289   .     A
C551   C556    1.368   .     S
C551   O613    1.280   .     A
C552   H589    1.111   .     S
C552   H588    1.111   .     S
C552   H587    1.109   .     S
C553   H591    1.114   .     S
C553   O606    1.421   .     S
C553   C554    1.517   .     S
C553   H62     1.106   1_565 S
C554   H595    1.109   .     S
C554   H592    1.101   .     S
C554   H593    1.111   .     S
C555   C557    1.368   .     S
C555   O612    1.280   .     A
C555   O611    1.289   .     A
C556   C2141   1.166   1_554 S
C557   C1348   1.166   .     S
C558   C736    1.401   1_455 S
C559   C618    1.393   .     S
C560   C646    1.401   .     S
H577   C2131   1.109   1_554 S
H581   C1341   1.110   .     S
H582   C1341   1.109   .     S
N601   Zn615   2.030   .     S
N602   Zn616   2.030   .     S
O603   Zn615   1.989   .     S
O607   Zn616   1.989   .     S
O608   Zn615   2.014   .     S
O609   Zn616   2.014   .     S
O610   Zn615   1.960   .     S
O611   Zn616   1.960   .     S
O612   Zn615   1.941   .     S
O613   Zn616   1.941   .     S
C617   O697    1.288   .     A
C617   O691    1.290   .     A
C617   C620    1.420   .     S
C618   C632    1.535   .     S
C618   C620    1.412   .     A
C619   C628    1.435   .     S
C619   C647    1.418   .     A
C619   C648    1.418   .     A
C620   C646    1.414   .     A
C621   N690    1.368   .     A
C621   O702    1.380   .     S
C622   N689    1.373   .     A
C622   O692    1.376   .     S
C622   C95     1.440   1_565 S
C623   O693    1.388   .     S
C623   N690    1.372   .     A
C624   O694    1.394   .     S
C624   N689    1.375   .     A
C624   C93     1.446   1_565 S
C625   H682    1.108   .     S
C625   C626    1.530   .     S
C625   C646    1.536   .     S
C625   H684    1.105   .     S
C626   H660    1.104   .     S
C626   H671    1.111   .     S
C626   H649    1.109   .     S
C627   C647    1.531   .     S
C627   H688    1.101   .     S
C627   H650    1.109   .     S
C627   C629    1.522   .     S
C628   O695    1.299   .     A
C628   O696    1.287   .     A
C629   H686    1.107   .     S
C629   H687    1.109   .     S
C629   H685    1.101   .     S
C630   H654    1.093   .     S
C630   H655    1.106   .     S
C630   C648    1.529   .     S
C630   C631    1.521   .     S
C631   H653    1.110   .     S
C631   H651    1.110   .     S
C631   H652    1.110   .     S
C632   C633    1.520   .     S
C632   H659    1.102   .     S
C632   H661    1.098   .     S
C633   H658    1.109   .     S
C633   H656    1.106   .     S
C633   H657    1.109   .     S
C634   H663    1.114   .     S
C634   O702    1.416   .     S
C634   C635    1.522   .     S
C634   H662    1.109   .     S
C635   H664    1.104   .     S
C635   H666    1.111   .     S
C635   H1457   1.109   .     S
C636   O692    1.420   .     S
C636   H667    1.109   .     S
C636   H668    1.110   .     S
C636   C637    1.523   .     S
C637   H672    1.104   .     S
C637   H2253   1.110   1_554 S
C637   H2254   1.109   1_554 S
C638   H673    1.095   .     S
C638   C640    1.522   .     S
C638   O693    1.408   .     S
C638   H674    1.110   .     S
C639   O698    1.289   .     A
C639   C644    1.368   .     S
C639   O701    1.280   .     A
C640   H677    1.111   .     S
C640   H676    1.111   .     S
C640   H675    1.109   .     S
C641   H679    1.114   .     S
C641   O694    1.421   .     S
C641   C642    1.517   .     S
C641   H150    1.106   1_565 S
C642   H683    1.109   .     S
C642   H680    1.101   .     S
C642   H681    1.111   .     S
C643   C645    1.368   .     S
C643   O700    1.280   .     A
C643   O699    1.289   .     A
C644   C2229   1.166   1_554 S
C645   C1436   1.166   .     S
C647   C706    1.393   .     S
C648   C734    1.401   .     S
H665   C2219   1.109   1_554 S
H669   C1429   1.110   .     S
H670   C1429   1.109   .     S
N689   Zn703   2.030   .     S
N690   Zn704   2.030   .     S
O691   Zn703   1.989   .     S
O695   Zn704   1.989   .     S
O696   Zn703   2.014   .     S
O697   Zn704   2.014   .     S
O698   Zn703   1.960   .     S
O699   Zn704   1.960   .     S
O700   Zn703   1.941   .     S
O701   Zn704   1.941   .     S
C705   O785    1.288   .     A
C705   O779    1.290   .     A
C705   C708    1.420   .     S
C706   C720    1.535   .     S
C706   C708    1.412   .     A
C707   C716    1.435   .     S
C707   C735    1.418   .     A
C707   C736    1.418   .     A
C708   C734    1.414   .     A
C709   N778    1.368   .     A
C709   O790    1.380   .     S
C710   N777    1.373   .     A
C710   O780    1.376   .     S
C710   C183    1.440   1_565 S
C711   O781    1.388   .     S
C711   N778    1.372   .     A
C712   O782    1.394   .     S
C712   N777    1.375   .     A
C712   C181    1.446   1_565 S
C713   H770    1.108   .     S
C713   C714    1.530   .     S
C713   C734    1.536   .     S
C713   H772    1.105   .     S
C714   H748    1.104   .     S
C714   H759    1.111   .     S
C714   H737    1.109   .     S
C715   C735    1.531   .     S
C715   H776    1.101   .     S
C715   H738    1.109   .     S
C715   C717    1.522   .     S
C716   O783    1.299   .     A
C716   O784    1.287   .     A
C717   H774    1.107   .     S
C717   H775    1.109   .     S
C717   H773    1.101   .     S
C718   H742    1.093   .     S
C718   H743    1.106   .     S
C718   C736    1.529   .     S
C718   C719    1.521   .     S
C719   H741    1.110   .     S
C719   H739    1.110   .     S
C719   H740    1.110   .     S
C720   C721    1.520   .     S
C720   H747    1.102   .     S
C720   H749    1.098   .     S
C721   H746    1.109   .     S
C721   H744    1.106   .     S
C721   H745    1.109   .     S
C722   H751    1.114   .     S
C722   O790    1.416   .     S
C722   C723    1.522   .     S
C722   H750    1.109   .     S
C723   H752    1.104   .     S
C723   H754    1.111   .     S
C723   H1545   1.109   .     S
C724   O780    1.420   .     S
C724   H755    1.109   .     S
C724   H756    1.110   .     S
C724   C725    1.523   .     S
C725   H760    1.104   .     S
C725   H2341   1.110   1_554 S
C725   H2342   1.109   1_554 S
C726   H761    1.095   .     S
C726   C728    1.522   .     S
C726   O781    1.408   .     S
C726   H762    1.110   .     S
C727   O786    1.289   .     A
C727   C732    1.368   .     S
C727   O789    1.280   .     A
C728   H765    1.111   .     S
C728   H764    1.111   .     S
C728   H763    1.109   .     S
C729   H767    1.114   .     S
C729   O782    1.421   .     S
C729   C730    1.517   .     S
C729   H238    1.106   1_565 S
C730   H771    1.109   .     S
C730   H768    1.101   .     S
C730   H769    1.111   .     S
C731   C733    1.368   .     S
C731   O788    1.280   .     A
C731   O787    1.289   .     A
C732   C2317   1.166   1_554 S
C733   C1524   1.166   .     S
C735   C530    1.393   1_655 S
C736   C558    1.401   1_655 S
H753   C2307   1.109   1_554 S
H757   C1517   1.110   .     S
H758   C1517   1.109   .     S
N777   Zn791   2.030   .     S
N778   Zn792   2.030   .     S
O779   Zn791   1.989   .     S
O783   Zn792   1.989   .     S
O784   Zn791   2.014   .     S
O785   Zn792   2.014   .     S
O786   Zn791   1.960   .     S
O787   Zn792   1.960   .     S
O788   Zn791   1.941   .     S
O789   Zn792   1.941   .     S
C793   O873    1.288   .     A
C793   O867    1.290   .     A
C793   C796    1.420   .     S
C794   C808    1.535   .     S
C794   C796    1.412   .     A
C794   C999    1.393   1_455 S
C795   C804    1.435   .     S
C795   C823    1.418   .     A
C795   C824    1.418   .     A
C796   C822    1.414   .     A
C797   N866    1.368   .     A
C797   O878    1.380   .     S
C797   C1328   1.446   1_545 S
C798   N865    1.373   .     A
C798   O868    1.376   .     S
C798   C1063   1.440   .     S
C799   O869    1.388   .     S
C799   N866    1.372   .     A
C799   C1326   1.440   1_545 S
C800   O870    1.394   .     S
C800   N865    1.375   .     A
C800   C1061   1.446   .     S
C801   H858    1.108   .     S
C801   C802    1.530   .     S
C801   C822    1.536   .     S
C801   H860    1.105   .     S
C802   H836    1.104   .     S
C802   H847    1.111   .     S
C802   H825    1.109   .     S
C803   C823    1.531   .     S
C803   H864    1.101   .     S
C803   H826    1.109   .     S
C803   C805    1.522   .     S
C804   O871    1.299   .     A
C804   O872    1.287   .     A
C805   H862    1.107   .     S
C805   H863    1.109   .     S
C805   H861    1.101   .     S
C806   H830    1.093   .     S
C806   H831    1.106   .     S
C806   C824    1.529   .     S
C806   C807    1.521   .     S
C807   H829    1.110   .     S
C807   H827    1.110   .     S
C807   H828    1.110   .     S
C808   C809    1.520   .     S
C808   H835    1.102   .     S
C808   H837    1.098   .     S
C809   H834    1.109   .     S
C809   H832    1.106   .     S
C809   H833    1.109   .     S
C810   H839    1.114   .     S
C810   O878    1.416   .     S
C810   C811    1.522   .     S
C810   H838    1.109   .     S
C811   H840    1.104   .     S
C811   H842    1.111   .     S
C811   H1633   1.109   .     S
C812   O868    1.420   .     S
C812   H843    1.109   .     S
C812   H844    1.110   .     S
C812   C813    1.523   .     S
C813   H848    1.104   .     S
C814   H849    1.095   .     S
C814   C816    1.522   .     S
C814   O869    1.408   .     S
C814   H850    1.110   .     S
C815   O874    1.289   .     A
C815   C820    1.368   .     S
C815   O877    1.280   .     A
C816   H853    1.111   .     S
C816   H852    1.111   .     S
C816   H851    1.109   .     S
C817   H855    1.114   .     S
C817   O870    1.421   .     S
C817   C818    1.517   .     S
C817   H1118   1.106   .     S
C818   H859    1.109   .     S
C818   H856    1.101   .     S
C818   H857    1.111   .     S
C819   C821    1.368   .     S
C819   O876    1.280   .     A
C819   O875    1.289   .     A
C821   C1612   1.166   .     S
C822   C1000   1.401   1_455 S
C823   C882    1.393   .     S
C824   C910    1.401   .     S
H845   C1605   1.110   .     S
H846   C1605   1.109   .     S
H854   C1345   1.106   1_545 S
N865   Zn879   2.030   .     S
N866   Zn880   2.030   .     S
O867   Zn879   1.989   .     S
O871   Zn880   1.989   .     S
O872   Zn879   2.014   .     S
O873   Zn880   2.014   .     S
O874   Zn879   1.960   .     S
O875   Zn880   1.960   .     S
O876   Zn879   1.941   .     S
O877   Zn880   1.941   .     S
C881   O961    1.288   .     A
C881   O955    1.290   .     A
C881   C884    1.420   .     S
C882   C896    1.535   .     S
C882   C884    1.412   .     A
C883   C892    1.435   .     S
C883   C911    1.418   .     A
C883   C912    1.418   .     A
C884   C910    1.414   .     A
C885   N954    1.368   .     A
C885   O966    1.380   .     S
C885   C1416   1.446   1_545 S
C886   N953    1.373   .     A
C886   O956    1.376   .     S
C886   C1151   1.440   .     S
C887   O957    1.388   .     S
C887   N954    1.372   .     A
C887   C1414   1.440   1_545 S
C888   O958    1.394   .     S
C888   N953    1.375   .     A
C888   C1149   1.446   .     S
C889   H946    1.108   .     S
C889   C890    1.530   .     S
C889   C910    1.536   .     S
C889   H948    1.105   .     S
C890   H924    1.104   .     S
C890   H935    1.111   .     S
C890   H913    1.109   .     S
C891   C911    1.531   .     S
C891   H952    1.101   .     S
C891   H914    1.109   .     S
C891   C893    1.522   .     S
C892   O959    1.299   .     A
C892   O960    1.287   .     A
C893   H950    1.107   .     S
C893   H951    1.109   .     S
C893   H949    1.101   .     S
C894   H918    1.093   .     S
C894   H919    1.106   .     S
C894   C912    1.529   .     S
C894   C895    1.521   .     S
C895   H917    1.110   .     S
C895   H915    1.110   .     S
C895   H916    1.110   .     S
C896   C897    1.520   .     S
C896   H923    1.102   .     S
C896   H925    1.098   .     S
C897   H922    1.109   .     S
C897   H920    1.106   .     S
C897   H921    1.109   .     S
C898   H927    1.114   .     S
C898   O966    1.416   .     S
C898   C899    1.522   .     S
C898   H926    1.109   .     S
C899   H928    1.104   .     S
C899   H930    1.111   .     S
C899   H1721   1.109   .     S
C900   O956    1.420   .     S
C900   H931    1.109   .     S
C900   H932    1.110   .     S
C900   C901    1.523   .     S
C901   H936    1.104   .     S
C902   H937    1.095   .     S
C902   C904    1.522   .     S
C902   O957    1.408   .     S
C902   H938    1.110   .     S
C903   O962    1.289   .     A
C903   C908    1.368   .     S
C903   O965    1.280   .     A
C904   H941    1.111   .     S
C904   H940    1.111   .     S
C904   H939    1.109   .     S
C905   H943    1.114   .     S
C905   O958    1.421   .     S
C905   C906    1.517   .     S
C905   H1206   1.106   .     S
C906   H947    1.109   .     S
C906   H944    1.101   .     S
C906   H945    1.111   .     S
C907   C909    1.368   .     S
C907   O964    1.280   .     A
C907   O963    1.289   .     A
C909   C1700   1.166   .     S
C911   C970    1.393   .     S
C912   C998    1.401   .     S
H933   C1693   1.110   .     S
H934   C1693   1.109   .     S
H942   C1433   1.106   1_545 S
N953   Zn967   2.030   .     S
N954   Zn968   2.030   .     S
O955   Zn967   1.989   .     S
O959   Zn968   1.989   .     S
O960   Zn967   2.014   .     S
O961   Zn968   2.014   .     S
O962   Zn967   1.960   .     S
O963   Zn968   1.960   .     S
O964   Zn967   1.941   .     S
O965   Zn968   1.941   .     S
C969   O1049   1.288   .     A
C969   O1043   1.290   .     A
C969   C972    1.420   .     S
C970   C984    1.535   .     S
C970   C972    1.412   .     A
C971   C980    1.435   .     S
C971   C999    1.418   .     A
C971   C1000   1.418   .     A
C972   C998    1.414   .     A
C973   N1042   1.368   .     A
C973   O1054   1.380   .     S
C973   C1504   1.446   1_545 S
C974   N1041   1.373   .     A
C974   O1044   1.376   .     S
C974   C1239   1.440   .     S
C975   O1045   1.388   .     S
C975   N1042   1.372   .     A
C975   C1502   1.440   1_545 S
C976   O1046   1.394   .     S
C976   N1041   1.375   .     A
C976   C1237   1.446   .     S
C977   H1034   1.108   .     S
C977   C978    1.530   .     S
C977   C998    1.536   .     S
C977   H1036   1.105   .     S
C978   H1012   1.104   .     S
C978   H1023   1.111   .     S
C978   H1001   1.109   .     S
C979   C999    1.531   .     S
C979   H1040   1.101   .     S
C979   H1002   1.109   .     S
C979   C981    1.522   .     S
C980   O1047   1.299   .     A
C980   O1048   1.287   .     A
C981   H1038   1.107   .     S
C981   H1039   1.109   .     S
C981   H1037   1.101   .     S
C982   H1006   1.093   .     S
C982   H1007   1.106   .     S
C982   C1000   1.529   .     S
C982   C983    1.521   .     S
C983   H1005   1.110   .     S
C983   H1003   1.110   .     S
C983   H1004   1.110   .     S
C984   C985    1.520   .     S
C984   H1011   1.102   .     S
C984   H1013   1.098   .     S
C985   H1010   1.109   .     S
C985   H1008   1.106   .     S
C985   H1009   1.109   .     S
C986   H1015   1.114   .     S
C986   O1054   1.416   .     S
C986   C987    1.522   .     S
C986   H1014   1.109   .     S
C987   H1016   1.104   .     S
C987   H1018   1.111   .     S
C987   H1809   1.109   .     S
C988   O1044   1.420   .     S
C988   H1019   1.109   .     S
C988   H1020   1.110   .     S
C988   C989    1.523   .     S
C989   H1024   1.104   .     S
C990   H1025   1.095   .     S
C990   C992    1.522   .     S
C990   O1045   1.408   .     S
C990   H1026   1.110   .     S
C991   O1050   1.289   .     A
C991   C996    1.368   .     S
C991   O1053   1.280   .     A
C992   H1029   1.111   .     S
C992   H1028   1.111   .     S
C992   H1027   1.109   .     S
C993   H1031   1.114   .     S
C993   O1046   1.421   .     S
C993   C994    1.517   .     S
C993   H1294   1.106   .     S
C994   H1035   1.109   .     S
C994   H1032   1.101   .     S
C994   H1033   1.111   .     S
C995   C997    1.368   .     S
C995   O1052   1.280   .     A
C995   O1051   1.289   .     A
C997   C1788   1.166   .     S
C999   C794    1.393   1_655 S
C1000  C822    1.401   1_655 S
H1021  C1781   1.110   .     S
H1022  C1781   1.109   .     S
H1030  C1521   1.106   1_545 S
N1041  Zn1055  2.030   .     S
N1042  Zn1056  2.030   .     S
O1043  Zn1055  1.989   .     S
O1047  Zn1056  1.989   .     S
O1048  Zn1055  2.014   .     S
O1049  Zn1056  2.014   .     S
O1050  Zn1055  1.960   .     S
O1051  Zn1056  1.960   .     S
O1052  Zn1055  1.941   .     S
O1053  Zn1056  1.941   .     S
C1057  O1137   1.288   .     A
C1057  O1131   1.290   .     A
C1057  C1060   1.420   .     S
C1058  C1072   1.535   .     S
C1058  C1060   1.412   .     A
C1058  C1263   1.393   1_455 S
C1059  C1068   1.435   .     S
C1059  C1087   1.418   .     A
C1059  C1088   1.418   .     A
C1060  C1086   1.414   .     A
C1061  N1130   1.368   .     A
C1061  O1142   1.380   .     S
C1062  N1129   1.373   .     A
C1062  O1132   1.376   .     S
C1062  C1327   1.440   .     S
C1063  O1133   1.388   .     S
C1063  N1130   1.372   .     A
C1064  O1134   1.394   .     S
C1064  N1129   1.375   .     A
C1064  C1325   1.446   .     S
C1065  H1122   1.108   .     S
C1065  C1066   1.530   .     S
C1065  C1086   1.536   .     S
C1065  H1124   1.105   .     S
C1066  H1100   1.104   .     S
C1066  H1111   1.111   .     S
C1066  H1089   1.109   .     S
C1067  C1087   1.531   .     S
C1067  H1128   1.101   .     S
C1067  H1090   1.109   .     S
C1067  C1069   1.522   .     S
C1068  O1135   1.299   .     A
C1068  O1136   1.287   .     A
C1069  H1126   1.107   .     S
C1069  H1127   1.109   .     S
C1069  H1125   1.101   .     S
C1070  H1094   1.093   .     S
C1070  H1095   1.106   .     S
C1070  C1088   1.529   .     S
C1070  C1071   1.521   .     S
C1071  H1093   1.110   .     S
C1071  H1091   1.110   .     S
C1071  H1092   1.110   .     S
C1072  C1073   1.520   .     S
C1072  H1099   1.102   .     S
C1072  H1101   1.098   .     S
C1073  H1098   1.109   .     S
C1073  H1096   1.106   .     S
C1073  H1097   1.109   .     S
C1074  H1103   1.114   .     S
C1074  O1142   1.416   .     S
C1074  C1075   1.522   .     S
C1074  H1102   1.109   .     S
C1075  H1104   1.104   .     S
C1075  H1106   1.111   .     S
C1075  H1897   1.109   .     S
C1076  O1132   1.420   .     S
C1076  H1107   1.109   .     S
C1076  H1108   1.110   .     S
C1076  C1077   1.523   .     S
C1077  H1112   1.104   .     S
C1078  H1113   1.095   .     S
C1078  C1080   1.522   .     S
C1078  O1133   1.408   .     S
C1078  H1114   1.110   .     S
C1079  O1138   1.289   .     A
C1079  C1084   1.368   .     S
C1079  O1141   1.280   .     A
C1080  H1117   1.111   .     S
C1080  H1116   1.111   .     S
C1080  H1115   1.109   .     S
C1081  H1119   1.114   .     S
C1081  O1134   1.421   .     S
C1081  C1082   1.517   .     S
C1081  H1382   1.106   .     S
C1082  H1123   1.109   .     S
C1082  H1120   1.101   .     S
C1082  H1121   1.111   .     S
C1083  C1085   1.368   .     S
C1083  O1140   1.280   .     A
C1083  O1139   1.289   .     A
C1085  C1876   1.166   .     S
C1086  C1264   1.401   1_455 S
C1087  C1146   1.393   .     S
C1088  C1174   1.401   .     S
H1109  C1869   1.110   .     S
H1110  C1869   1.109   .     S
N1129  Zn1143  2.030   .     S
N1130  Zn1144  2.030   .     S
O1131  Zn1143  1.989   .     S
O1135  Zn1144  1.989   .     S
O1136  Zn1143  2.014   .     S
O1137  Zn1144  2.014   .     S
O1138  Zn1143  1.960   .     S
O1139  Zn1144  1.960   .     S
O1140  Zn1143  1.941   .     S
O1141  Zn1144  1.941   .     S
C1145  O1225   1.288   .     A
C1145  O1219   1.290   .     A
C1145  C1148   1.420   .     S
C1146  C1160   1.535   .     S
C1146  C1148   1.412   .     A
C1147  C1156   1.435   .     S
C1147  C1175   1.418   .     A
C1147  C1176   1.418   .     A
C1148  C1174   1.414   .     A
C1149  N1218   1.368   .     A
C1149  O1230   1.380   .     S
C1150  N1217   1.373   .     A
C1150  O1220   1.376   .     S
C1150  C1415   1.440   .     S
C1151  O1221   1.388   .     S
C1151  N1218   1.372   .     A
C1152  O1222   1.394   .     S
C1152  N1217   1.375   .     A
C1152  C1413   1.446   .     S
C1153  H1210   1.108   .     S
C1153  C1154   1.530   .     S
C1153  C1174   1.536   .     S
C1153  H1212   1.105   .     S
C1154  H1188   1.104   .     S
C1154  H1199   1.111   .     S
C1154  H1177   1.109   .     S
C1155  C1175   1.531   .     S
C1155  H1216   1.101   .     S
C1155  H1178   1.109   .     S
C1155  C1157   1.522   .     S
C1156  O1223   1.299   .     A
C1156  O1224   1.287   .     A
C1157  H1214   1.107   .     S
C1157  H1215   1.109   .     S
C1157  H1213   1.101   .     S
C1158  H1182   1.093   .     S
C1158  H1183   1.106   .     S
C1158  C1176   1.529   .     S
C1158  C1159   1.521   .     S
C1159  H1181   1.110   .     S
C1159  H1179   1.110   .     S
C1159  H1180   1.110   .     S
C1160  C1161   1.520   .     S
C1160  H1187   1.102   .     S
C1160  H1189   1.098   .     S
C1161  H1186   1.109   .     S
C1161  H1184   1.106   .     S
C1161  H1185   1.109   .     S
C1162  H1191   1.114   .     S
C1162  O1230   1.416   .     S
C1162  C1163   1.522   .     S
C1162  H1190   1.109   .     S
C1163  H1192   1.104   .     S
C1163  H1194   1.111   .     S
C1163  H1985   1.109   .     S
C1164  O1220   1.420   .     S
C1164  H1195   1.109   .     S
C1164  H1196   1.110   .     S
C1164  C1165   1.523   .     S
C1165  H1200   1.104   .     S
C1166  H1201   1.095   .     S
C1166  C1168   1.522   .     S
C1166  O1221   1.408   .     S
C1166  H1202   1.110   .     S
C1167  O1226   1.289   .     A
C1167  C1172   1.368   .     S
C1167  O1229   1.280   .     A
C1168  H1205   1.111   .     S
C1168  H1204   1.111   .     S
C1168  H1203   1.109   .     S
C1169  H1207   1.114   .     S
C1169  O1222   1.421   .     S
C1169  C1170   1.517   .     S
C1169  H1470   1.106   .     S
C1170  H1211   1.109   .     S
C1170  H1208   1.101   .     S
C1170  H1209   1.111   .     S
C1171  C1173   1.368   .     S
C1171  O1228   1.280   .     A
C1171  O1227   1.289   .     A
C1173  C1964   1.166   .     S
C1175  C1234   1.393   .     S
C1176  C1262   1.401   .     S
H1197  C1957   1.110   .     S
H1198  C1957   1.109   .     S
N1217  Zn1231  2.030   .     S
N1218  Zn1232  2.030   .     S
O1219  Zn1231  1.989   .     S
O1223  Zn1232  1.989   .     S
O1224  Zn1231  2.014   .     S
O1225  Zn1232  2.014   .     S
O1226  Zn1231  1.960   .     S
O1227  Zn1232  1.960   .     S
O1228  Zn1231  1.941   .     S
O1229  Zn1232  1.941   .     S
C1233  O1313   1.288   .     A
C1233  O1307   1.290   .     A
C1233  C1236   1.420   .     S
C1234  C1248   1.535   .     S
C1234  C1236   1.412   .     A
C1235  C1244   1.435   .     S
C1235  C1263   1.418   .     A
C1235  C1264   1.418   .     A
C1236  C1262   1.414   .     A
C1237  N1306   1.368   .     A
C1237  O1318   1.380   .     S
C1238  N1305   1.373   .     A
C1238  O1308   1.376   .     S
C1238  C1503   1.440   .     S
C1239  O1309   1.388   .     S
C1239  N1306   1.372   .     A
C1240  O1310   1.394   .     S
C1240  N1305   1.375   .     A
C1240  C1501   1.446   .     S
C1241  H1298   1.108   .     S
C1241  C1242   1.530   .     S
C1241  C1262   1.536   .     S
C1241  H1300   1.105   .     S
C1242  H1276   1.104   .     S
C1242  H1287   1.111   .     S
C1242  H1265   1.109   .     S
C1243  C1263   1.531   .     S
C1243  H1304   1.101   .     S
C1243  H1266   1.109   .     S
C1243  C1245   1.522   .     S
C1244  O1311   1.299   .     A
C1244  O1312   1.287   .     A
C1245  H1302   1.107   .     S
C1245  H1303   1.109   .     S
C1245  H1301   1.101   .     S
C1246  H1270   1.093   .     S
C1246  H1271   1.106   .     S
C1246  C1264   1.529   .     S
C1246  C1247   1.521   .     S
C1247  H1269   1.110   .     S
C1247  H1267   1.110   .     S
C1247  H1268   1.110   .     S
C1248  C1249   1.520   .     S
C1248  H1275   1.102   .     S
C1248  H1277   1.098   .     S
C1249  H1274   1.109   .     S
C1249  H1272   1.106   .     S
C1249  H1273   1.109   .     S
C1250  H1279   1.114   .     S
C1250  O1318   1.416   .     S
C1250  C1251   1.522   .     S
C1250  H1278   1.109   .     S
C1251  H1280   1.104   .     S
C1251  H1282   1.111   .     S
C1251  H2073   1.109   .     S
C1252  O1308   1.420   .     S
C1252  H1283   1.109   .     S
C1252  H1284   1.110   .     S
C1252  C1253   1.523   .     S
C1253  H1288   1.104   .     S
C1254  H1289   1.095   .     S
C1254  C1256   1.522   .     S
C1254  O1309   1.408   .     S
C1254  H1290   1.110   .     S
C1255  O1314   1.289   .     A
C1255  C1260   1.368   .     S
C1255  O1317   1.280   .     A
C1256  H1293   1.111   .     S
C1256  H1292   1.111   .     S
C1256  H1291   1.109   .     S
C1257  H1295   1.114   .     S
C1257  O1310   1.421   .     S
C1257  C1258   1.517   .     S
C1257  H1558   1.106   .     S
C1258  H1299   1.109   .     S
C1258  H1296   1.101   .     S
C1258  H1297   1.111   .     S
C1259  C1261   1.368   .     S
C1259  O1316   1.280   .     A
C1259  O1315   1.289   .     A
C1261  C2052   1.166   .     S
C1263  C1058   1.393   1_655 S
C1264  C1086   1.401   1_655 S
H1285  C2045   1.110   .     S
H1286  C2045   1.109   .     S
N1305  Zn1319  2.030   .     S
N1306  Zn1320  2.030   .     S
O1307  Zn1319  1.989   .     S
O1311  Zn1320  1.989   .     S
O1312  Zn1319  2.014   .     S
O1313  Zn1320  2.014   .     S
O1314  Zn1319  1.960   .     S
O1315  Zn1320  1.960   .     S
O1316  Zn1319  1.941   .     S
O1317  Zn1320  1.941   .     S
C1321  O1401   1.288   .     A
C1321  O1395   1.290   .     A
C1321  C1324   1.420   .     S
C1322  C1336   1.535   .     S
C1322  C1324   1.412   .     A
C1322  C1527   1.393   1_455 S
C1323  C1332   1.435   .     S
C1323  C1351   1.418   .     A
C1323  C1352   1.418   .     A
C1324  C1350   1.414   .     A
C1325  N1394   1.368   .     A
C1325  O1406   1.380   .     S
C1326  N1393   1.373   .     A
C1326  O1396   1.376   .     S
C1326  C799    1.440   1_565 S
C1327  O1397   1.388   .     S
C1327  N1394   1.372   .     A
C1328  O1398   1.394   .     S
C1328  N1393   1.375   .     A
C1328  C797    1.446   1_565 S
C1329  H1386   1.108   .     S
C1329  C1330   1.530   .     S
C1329  C1350   1.536   .     S
C1329  H1388   1.105   .     S
C1330  H1364   1.104   .     S
C1330  H1375   1.111   .     S
C1330  H1353   1.109   .     S
C1331  C1351   1.531   .     S
C1331  H1392   1.101   .     S
C1331  H1354   1.109   .     S
C1331  C1333   1.522   .     S
C1332  O1399   1.299   .     A
C1332  O1400   1.287   .     A
C1333  H1390   1.107   .     S
C1333  H1391   1.109   .     S
C1333  H1389   1.101   .     S
C1334  H1358   1.093   .     S
C1334  H1359   1.106   .     S
C1334  C1352   1.529   .     S
C1334  C1335   1.521   .     S
C1335  H1357   1.110   .     S
C1335  H1355   1.110   .     S
C1335  H1356   1.110   .     S
C1336  C1337   1.520   .     S
C1336  H1363   1.102   .     S
C1336  H1365   1.098   .     S
C1337  H1362   1.109   .     S
C1337  H1360   1.106   .     S
C1337  H1361   1.109   .     S
C1338  H1367   1.114   .     S
C1338  O1406   1.416   .     S
C1338  C1339   1.522   .     S
C1338  H1366   1.109   .     S
C1339  H1368   1.104   .     S
C1339  H1370   1.111   .     S
C1339  H2161   1.109   .     S
C1340  O1396   1.420   .     S
C1340  H1371   1.109   .     S
C1340  H1372   1.110   .     S
C1340  C1341   1.523   .     S
C1341  H1376   1.104   .     S
C1342  H1377   1.095   .     S
C1342  C1344   1.522   .     S
C1342  O1397   1.408   .     S
C1342  H1378   1.110   .     S
C1343  O1402   1.289   .     A
C1343  C1348   1.368   .     S
C1343  O1405   1.280   .     A
C1344  H1381   1.111   .     S
C1344  H1380   1.111   .     S
C1344  H1379   1.109   .     S
C1345  H1383   1.114   .     S
C1345  O1398   1.421   .     S
C1345  C1346   1.517   .     S
C1345  H854    1.106   1_565 S
C1346  H1387   1.109   .     S
C1346  H1384   1.101   .     S
C1346  H1385   1.111   .     S
C1347  C1349   1.368   .     S
C1347  O1404   1.280   .     A
C1347  O1403   1.289   .     A
C1349  C2140   1.166   .     S
C1350  C1528   1.401   1_455 S
C1351  C1410   1.393   .     S
C1352  C1438   1.401   .     S
H1373  C2133   1.110   .     S
H1374  C2133   1.109   .     S
N1393  Zn1407  2.030   .     S
N1394  Zn1408  2.030   .     S
O1395  Zn1407  1.989   .     S
O1399  Zn1408  1.989   .     S
O1400  Zn1407  2.014   .     S
O1401  Zn1408  2.014   .     S
O1402  Zn1407  1.960   .     S
O1403  Zn1408  1.960   .     S
O1404  Zn1407  1.941   .     S
O1405  Zn1408  1.941   .     S
C1409  O1489   1.288   .     A
C1409  O1483   1.290   .     A
C1409  C1412   1.420   .     S
C1410  C1424   1.535   .     S
C1410  C1412   1.412   .     A
C1411  C1420   1.435   .     S
C1411  C1439   1.418   .     A
C1411  C1440   1.418   .     A
C1412  C1438   1.414   .     A
C1413  N1482   1.368   .     A
C1413  O1494   1.380   .     S
C1414  N1481   1.373   .     A
C1414  O1484   1.376   .     S
C1414  C887    1.440   1_565 S
C1415  O1485   1.388   .     S
C1415  N1482   1.372   .     A
C1416  O1486   1.394   .     S
C1416  N1481   1.375   .     A
C1416  C885    1.446   1_565 S
C1417  H1474   1.108   .     S
C1417  C1418   1.530   .     S
C1417  C1438   1.536   .     S
C1417  H1476   1.105   .     S
C1418  H1452   1.104   .     S
C1418  H1463   1.111   .     S
C1418  H1441   1.109   .     S
C1419  C1439   1.531   .     S
C1419  H1480   1.101   .     S
C1419  H1442   1.109   .     S
C1419  C1421   1.522   .     S
C1420  O1487   1.299   .     A
C1420  O1488   1.287   .     A
C1421  H1478   1.107   .     S
C1421  H1479   1.109   .     S
C1421  H1477   1.101   .     S
C1422  H1446   1.093   .     S
C1422  H1447   1.106   .     S
C1422  C1440   1.529   .     S
C1422  C1423   1.521   .     S
C1423  H1445   1.110   .     S
C1423  H1443   1.110   .     S
C1423  H1444   1.110   .     S
C1424  C1425   1.520   .     S
C1424  H1451   1.102   .     S
C1424  H1453   1.098   .     S
C1425  H1450   1.109   .     S
C1425  H1448   1.106   .     S
C1425  H1449   1.109   .     S
C1426  H1455   1.114   .     S
C1426  O1494   1.416   .     S
C1426  C1427   1.522   .     S
C1426  H1454   1.109   .     S
C1427  H1456   1.104   .     S
C1427  H1458   1.111   .     S
C1427  H2249   1.109   .     S
C1428  O1484   1.420   .     S
C1428  H1459   1.109   .     S
C1428  H1460   1.110   .     S
C1428  C1429   1.523   .     S
C1429  H1464   1.104   .     S
C1430  H1465   1.095   .     S
C1430  C1432   1.522   .     S
C1430  O1485   1.408   .     S
C1430  H1466   1.110   .     S
C1431  O1490   1.289   .     A
C1431  C1436   1.368   .     S
C1431  O1493   1.280   .     A
C1432  H1469   1.111   .     S
C1432  H1468   1.111   .     S
C1432  H1467   1.109   .     S
C1433  H1471   1.114   .     S
C1433  O1486   1.421   .     S
C1433  C1434   1.517   .     S
C1433  H942    1.106   1_565 S
C1434  H1475   1.109   .     S
C1434  H1472   1.101   .     S
C1434  H1473   1.111   .     S
C1435  C1437   1.368   .     S
C1435  O1492   1.280   .     A
C1435  O1491   1.289   .     A
C1437  C2228   1.166   .     S
C1439  C1498   1.393   .     S
C1440  C1526   1.401   .     S
H1461  C2221   1.110   .     S
H1462  C2221   1.109   .     S
N1481  Zn1495  2.030   .     S
N1482  Zn1496  2.030   .     S
O1483  Zn1495  1.989   .     S
O1487  Zn1496  1.989   .     S
O1488  Zn1495  2.014   .     S
O1489  Zn1496  2.014   .     S
O1490  Zn1495  1.960   .     S
O1491  Zn1496  1.960   .     S
O1492  Zn1495  1.941   .     S
O1493  Zn1496  1.941   .     S
C1497  O1577   1.288   .     A
C1497  O1571   1.290   .     A
C1497  C1500   1.420   .     S
C1498  C1512   1.535   .     S
C1498  C1500   1.412   .     A
C1499  C1508   1.435   .     S
C1499  C1527   1.418   .     A
C1499  C1528   1.418   .     A
C1500  C1526   1.414   .     A
C1501  N1570   1.368   .     A
C1501  O1582   1.380   .     S
C1502  N1569   1.373   .     A
C1502  O1572   1.376   .     S
C1502  C975    1.440   1_565 S
C1503  O1573   1.388   .     S
C1503  N1570   1.372   .     A
C1504  O1574   1.394   .     S
C1504  N1569   1.375   .     A
C1504  C973    1.446   1_565 S
C1505  H1562   1.108   .     S
C1505  C1506   1.530   .     S
C1505  C1526   1.536   .     S
C1505  H1564   1.105   .     S
C1506  H1540   1.104   .     S
C1506  H1551   1.111   .     S
C1506  H1529   1.109   .     S
C1507  C1527   1.531   .     S
C1507  H1568   1.101   .     S
C1507  H1530   1.109   .     S
C1507  C1509   1.522   .     S
C1508  O1575   1.299   .     A
C1508  O1576   1.287   .     A
C1509  H1566   1.107   .     S
C1509  H1567   1.109   .     S
C1509  H1565   1.101   .     S
C1510  H1534   1.093   .     S
C1510  H1535   1.106   .     S
C1510  C1528   1.529   .     S
C1510  C1511   1.521   .     S
C1511  H1533   1.110   .     S
C1511  H1531   1.110   .     S
C1511  H1532   1.110   .     S
C1512  C1513   1.520   .     S
C1512  H1539   1.102   .     S
C1512  H1541   1.098   .     S
C1513  H1538   1.109   .     S
C1513  H1536   1.106   .     S
C1513  H1537   1.109   .     S
C1514  H1543   1.114   .     S
C1514  O1582   1.416   .     S
C1514  C1515   1.522   .     S
C1514  H1542   1.109   .     S
C1515  H1544   1.104   .     S
C1515  H1546   1.111   .     S
C1515  H2337   1.109   .     S
C1516  O1572   1.420   .     S
C1516  H1547   1.109   .     S
C1516  H1548   1.110   .     S
C1516  C1517   1.523   .     S
C1517  H1552   1.104   .     S
C1518  H1553   1.095   .     S
C1518  C1520   1.522   .     S
C1518  O1573   1.408   .     S
C1518  H1554   1.110   .     S
C1519  O1578   1.289   .     A
C1519  C1524   1.368   .     S
C1519  O1581   1.280   .     A
C1520  H1557   1.111   .     S
C1520  H1556   1.111   .     S
C1520  H1555   1.109   .     S
C1521  H1559   1.114   .     S
C1521  O1574   1.421   .     S
C1521  C1522   1.517   .     S
C1521  H1030   1.106   1_565 S
C1522  H1563   1.109   .     S
C1522  H1560   1.101   .     S
C1522  H1561   1.111   .     S
C1523  C1525   1.368   .     S
C1523  O1580   1.280   .     A
C1523  O1579   1.289   .     A
C1525  C2316   1.166   .     S
C1527  C1322   1.393   1_655 S
C1528  C1350   1.401   1_655 S
H1549  C2309   1.110   .     S
H1550  C2309   1.109   .     S
N1569  Zn1583  2.030   .     S
N1570  Zn1584  2.030   .     S
O1571  Zn1583  1.989   .     S
O1575  Zn1584  1.989   .     S
O1576  Zn1583  2.014   .     S
O1577  Zn1584  2.014   .     S
O1578  Zn1583  1.960   .     S
O1579  Zn1584  1.960   .     S
O1580  Zn1583  1.941   .     S
O1581  Zn1584  1.941   .     S
C1585  O1665   1.288   .     A
C1585  O1659   1.290   .     A
C1585  C1588   1.420   .     S
C1586  C1600   1.535   .     S
C1586  C1588   1.412   .     A
C1586  C1791   1.393   1_455 S
C1587  C1596   1.435   .     S
C1587  C1615   1.418   .     A
C1587  C1616   1.418   .     A
C1588  C1614   1.414   .     A
C1589  N1658   1.368   .     A
C1589  O1670   1.380   .     S
C1589  C2120   1.446   1_545 S
C1590  N1657   1.373   .     A
C1590  O1660   1.376   .     S
C1590  C1855   1.440   .     S
C1591  O1661   1.388   .     S
C1591  N1658   1.372   .     A
C1591  C2118   1.440   1_545 S
C1592  O1662   1.394   .     S
C1592  N1657   1.375   .     A
C1592  C1853   1.446   .     S
C1593  H1650   1.108   .     S
C1593  C1594   1.530   .     S
C1593  C1614   1.536   .     S
C1593  H1652   1.105   .     S
C1594  H1628   1.104   .     S
C1594  H1639   1.111   .     S
C1594  H1617   1.109   .     S
C1595  C1615   1.531   .     S
C1595  H1656   1.101   .     S
C1595  H1618   1.109   .     S
C1595  C1597   1.522   .     S
C1596  O1663   1.299   .     A
C1596  O1664   1.287   .     A
C1597  H1654   1.107   .     S
C1597  H1655   1.109   .     S
C1597  H1653   1.101   .     S
C1598  H1622   1.093   .     S
C1598  H1623   1.106   .     S
C1598  C1616   1.529   .     S
C1598  C1599   1.521   .     S
C1599  H1621   1.110   .     S
C1599  H1619   1.110   .     S
C1599  H1620   1.110   .     S
C1600  C1601   1.520   .     S
C1600  H1627   1.102   .     S
C1600  H1629   1.098   .     S
C1601  H1626   1.109   .     S
C1601  H1624   1.106   .     S
C1601  H1625   1.109   .     S
C1602  H1631   1.114   .     S
C1602  O1670   1.416   .     S
C1602  C1603   1.522   .     S
C1602  H1630   1.109   .     S
C1603  H1632   1.104   .     S
C1603  H1634   1.111   .     S
C1603  H49     1.109   1_556 S
C1604  O1660   1.420   .     S
C1604  H1635   1.109   .     S
C1604  H1636   1.110   .     S
C1604  C1605   1.523   .     S
C1605  H1640   1.104   .     S
C1606  H1641   1.095   .     S
C1606  C1608   1.522   .     S
C1606  O1661   1.408   .     S
C1606  H1642   1.110   .     S
C1607  O1666   1.289   .     A
C1607  C1612   1.368   .     S
C1607  O1669   1.280   .     A
C1608  H1645   1.111   .     S
C1608  H1644   1.111   .     S
C1608  H1643   1.109   .     S
C1609  H1647   1.114   .     S
C1609  O1662   1.421   .     S
C1609  C1610   1.517   .     S
C1609  H1910   1.106   .     S
C1610  H1651   1.109   .     S
C1610  H1648   1.101   .     S
C1610  H1649   1.111   .     S
C1611  C1613   1.368   .     S
C1611  O1668   1.280   .     A
C1611  O1667   1.289   .     A
C1613  C28     1.166   1_556 S
C1614  C1792   1.401   1_455 S
C1615  C1674   1.393   .     S
C1616  C1702   1.401   .     S
H1637  C21     1.110   1_556 S
H1638  C21     1.109   1_556 S
H1646  C2137   1.106   1_545 S
N1657  Zn1671  2.030   .     S
N1658  Zn1672  2.030   .     S
O1659  Zn1671  1.989   .     S
O1663  Zn1672  1.989   .     S
O1664  Zn1671  2.014   .     S
O1665  Zn1672  2.014   .     S
O1666  Zn1671  1.960   .     S
O1667  Zn1672  1.960   .     S
O1668  Zn1671  1.941   .     S
O1669  Zn1672  1.941   .     S
C1673  O1753   1.288   .     A
C1673  O1747   1.290   .     A
C1673  C1676   1.420   .     S
C1674  C1688   1.535   .     S
C1674  C1676   1.412   .     A
C1675  C1684   1.435   .     S
C1675  C1703   1.418   .     A
C1675  C1704   1.418   .     A
C1676  C1702   1.414   .     A
C1677  N1746   1.368   .     A
C1677  O1758   1.380   .     S
C1677  C2208   1.446   1_545 S
C1678  N1745   1.373   .     A
C1678  O1748   1.376   .     S
C1678  C1943   1.440   .     S
C1679  O1749   1.388   .     S
C1679  N1746   1.372   .     A
C1679  C2206   1.440   1_545 S
C1680  O1750   1.394   .     S
C1680  N1745   1.375   .     A
C1680  C1941   1.446   .     S
C1681  H1738   1.108   .     S
C1681  C1682   1.530   .     S
C1681  C1702   1.536   .     S
C1681  H1740   1.105   .     S
C1682  H1716   1.104   .     S
C1682  H1727   1.111   .     S
C1682  H1705   1.109   .     S
C1683  C1703   1.531   .     S
C1683  H1744   1.101   .     S
C1683  H1706   1.109   .     S
C1683  C1685   1.522   .     S
C1684  O1751   1.299   .     A
C1684  O1752   1.287   .     A
C1685  H1742   1.107   .     S
C1685  H1743   1.109   .     S
C1685  H1741   1.101   .     S
C1686  H1710   1.093   .     S
C1686  H1711   1.106   .     S
C1686  C1704   1.529   .     S
C1686  C1687   1.521   .     S
C1687  H1709   1.110   .     S
C1687  H1707   1.110   .     S
C1687  H1708   1.110   .     S
C1688  C1689   1.520   .     S
C1688  H1715   1.102   .     S
C1688  H1717   1.098   .     S
C1689  H1714   1.109   .     S
C1689  H1712   1.106   .     S
C1689  H1713   1.109   .     S
C1690  H1719   1.114   .     S
C1690  O1758   1.416   .     S
C1690  C1691   1.522   .     S
C1690  H1718   1.109   .     S
C1691  H1720   1.104   .     S
C1691  H1722   1.111   .     S
C1691  H137    1.109   1_556 S
C1692  O1748   1.420   .     S
C1692  H1723   1.109   .     S
C1692  H1724   1.110   .     S
C1692  C1693   1.523   .     S
C1693  H1728   1.104   .     S
C1694  H1729   1.095   .     S
C1694  C1696   1.522   .     S
C1694  O1749   1.408   .     S
C1694  H1730   1.110   .     S
C1695  O1754   1.289   .     A
C1695  C1700   1.368   .     S
C1695  O1757   1.280   .     A
C1696  H1733   1.111   .     S
C1696  H1732   1.111   .     S
C1696  H1731   1.109   .     S
C1697  H1735   1.114   .     S
C1697  O1750   1.421   .     S
C1697  C1698   1.517   .     S
C1697  H1998   1.106   .     S
C1698  H1739   1.109   .     S
C1698  H1736   1.101   .     S
C1698  H1737   1.111   .     S
C1699  C1701   1.368   .     S
C1699  O1756   1.280   .     A
C1699  O1755   1.289   .     A
C1701  C116    1.166   1_556 S
C1703  C1762   1.393   .     S
C1704  C1790   1.401   .     S
H1725  C109    1.110   1_556 S
H1726  C109    1.109   1_556 S
H1734  C2225   1.106   1_545 S
N1745  Zn1759  2.030   .     S
N1746  Zn1760  2.030   .     S
O1747  Zn1759  1.989   .     S
O1751  Zn1760  1.989   .     S
O1752  Zn1759  2.014   .     S
O1753  Zn1760  2.014   .     S
O1754  Zn1759  1.960   .     S
O1755  Zn1760  1.960   .     S
O1756  Zn1759  1.941   .     S
O1757  Zn1760  1.941   .     S
C1761  O1841   1.288   .     A
C1761  O1835   1.290   .     A
C1761  C1764   1.420   .     S
C1762  C1776   1.535   .     S
C1762  C1764   1.412   .     A
C1763  C1772   1.435   .     S
C1763  C1791   1.418   .     A
C1763  C1792   1.418   .     A
C1764  C1790   1.414   .     A
C1765  N1834   1.368   .     A
C1765  O1846   1.380   .     S
C1765  C2296   1.446   1_545 S
C1766  N1833   1.373   .     A
C1766  O1836   1.376   .     S
C1766  C2031   1.440   .     S
C1767  O1837   1.388   .     S
C1767  N1834   1.372   .     A
C1767  C2294   1.440   1_545 S
C1768  O1838   1.394   .     S
C1768  N1833   1.375   .     A
C1768  C2029   1.446   .     S
C1769  H1826   1.108   .     S
C1769  C1770   1.530   .     S
C1769  C1790   1.536   .     S
C1769  H1828   1.105   .     S
C1770  H1804   1.104   .     S
C1770  H1815   1.111   .     S
C1770  H1793   1.109   .     S
C1771  C1791   1.531   .     S
C1771  H1832   1.101   .     S
C1771  H1794   1.109   .     S
C1771  C1773   1.522   .     S
C1772  O1839   1.299   .     A
C1772  O1840   1.287   .     A
C1773  H1830   1.107   .     S
C1773  H1831   1.109   .     S
C1773  H1829   1.101   .     S
C1774  H1798   1.093   .     S
C1774  H1799   1.106   .     S
C1774  C1792   1.529   .     S
C1774  C1775   1.521   .     S
C1775  H1797   1.110   .     S
C1775  H1795   1.110   .     S
C1775  H1796   1.110   .     S
C1776  C1777   1.520   .     S
C1776  H1803   1.102   .     S
C1776  H1805   1.098   .     S
C1777  H1802   1.109   .     S
C1777  H1800   1.106   .     S
C1777  H1801   1.109   .     S
C1778  H1807   1.114   .     S
C1778  O1846   1.416   .     S
C1778  C1779   1.522   .     S
C1778  H1806   1.109   .     S
C1779  H1808   1.104   .     S
C1779  H1810   1.111   .     S
C1779  H225    1.109   1_556 S
C1780  O1836   1.420   .     S
C1780  H1811   1.109   .     S
C1780  H1812   1.110   .     S
C1780  C1781   1.523   .     S
C1781  H1816   1.104   .     S
C1782  H1817   1.095   .     S
C1782  C1784   1.522   .     S
C1782  O1837   1.408   .     S
C1782  H1818   1.110   .     S
C1783  O1842   1.289   .     A
C1783  C1788   1.368   .     S
C1783  O1845   1.280   .     A
C1784  H1821   1.111   .     S
C1784  H1820   1.111   .     S
C1784  H1819   1.109   .     S
C1785  H1823   1.114   .     S
C1785  O1838   1.421   .     S
C1785  C1786   1.517   .     S
C1785  H2086   1.106   .     S
C1786  H1827   1.109   .     S
C1786  H1824   1.101   .     S
C1786  H1825   1.111   .     S
C1787  C1789   1.368   .     S
C1787  O1844   1.280   .     A
C1787  O1843   1.289   .     A
C1789  C204    1.166   1_556 S
C1791  C1586   1.393   1_655 S
C1792  C1614   1.401   1_655 S
H1813  C197    1.110   1_556 S
H1814  C197    1.109   1_556 S
H1822  C2313   1.106   1_545 S
N1833  Zn1847  2.030   .     S
N1834  Zn1848  2.030   .     S
O1835  Zn1847  1.989   .     S
O1839  Zn1848  1.989   .     S
O1840  Zn1847  2.014   .     S
O1841  Zn1848  2.014   .     S
O1842  Zn1847  1.960   .     S
O1843  Zn1848  1.960   .     S
O1844  Zn1847  1.941   .     S
O1845  Zn1848  1.941   .     S
C1849  O1929   1.288   .     A
C1849  O1923   1.290   .     A
C1849  C1852   1.420   .     S
C1850  C1864   1.535   .     S
C1850  C1852   1.412   .     A
C1850  C2055   1.393   1_455 S
C1851  C1860   1.435   .     S
C1851  C1879   1.418   .     A
C1851  C1880   1.418   .     A
C1852  C1878   1.414   .     A
C1853  N1922   1.368   .     A
C1853  O1934   1.380   .     S
C1854  N1921   1.373   .     A
C1854  O1924   1.376   .     S
C1854  C2119   1.440   .     S
C1855  O1925   1.388   .     S
C1855  N1922   1.372   .     A
C1856  O1926   1.394   .     S
C1856  N1921   1.375   .     A
C1856  C2117   1.446   .     S
C1857  H1914   1.108   .     S
C1857  C1858   1.530   .     S
C1857  C1878   1.536   .     S
C1857  H1916   1.105   .     S
C1858  H1892   1.104   .     S
C1858  H1903   1.111   .     S
C1858  H1881   1.109   .     S
C1859  C1879   1.531   .     S
C1859  H1920   1.101   .     S
C1859  H1882   1.109   .     S
C1859  C1861   1.522   .     S
C1860  O1927   1.299   .     A
C1860  O1928   1.287   .     A
C1861  H1918   1.107   .     S
C1861  H1919   1.109   .     S
C1861  H1917   1.101   .     S
C1862  H1886   1.093   .     S
C1862  H1887   1.106   .     S
C1862  C1880   1.529   .     S
C1862  C1863   1.521   .     S
C1863  H1885   1.110   .     S
C1863  H1883   1.110   .     S
C1863  H1884   1.110   .     S
C1864  C1865   1.520   .     S
C1864  H1891   1.102   .     S
C1864  H1893   1.098   .     S
C1865  H1890   1.109   .     S
C1865  H1888   1.106   .     S
C1865  H1889   1.109   .     S
C1866  H1895   1.114   .     S
C1866  O1934   1.416   .     S
C1866  C1867   1.522   .     S
C1866  H1894   1.109   .     S
C1867  H1896   1.104   .     S
C1867  H1898   1.111   .     S
C1867  H313    1.109   1_556 S
C1868  O1924   1.420   .     S
C1868  H1899   1.109   .     S
C1868  H1900   1.110   .     S
C1868  C1869   1.523   .     S
C1869  H1904   1.104   .     S
C1870  H1905   1.095   .     S
C1870  C1872   1.522   .     S
C1870  O1925   1.408   .     S
C1870  H1906   1.110   .     S
C1871  O1930   1.289   .     A
C1871  C1876   1.368   .     S
C1871  O1933   1.280   .     A
C1872  H1909   1.111   .     S
C1872  H1908   1.111   .     S
C1872  H1907   1.109   .     S
C1873  H1911   1.114   .     S
C1873  O1926   1.421   .     S
C1873  C1874   1.517   .     S
C1873  H2174   1.106   .     S
C1874  H1915   1.109   .     S
C1874  H1912   1.101   .     S
C1874  H1913   1.111   .     S
C1875  C1877   1.368   .     S
C1875  O1932   1.280   .     A
C1875  O1931   1.289   .     A
C1877  C292    1.166   1_556 S
C1878  C2056   1.401   1_455 S
C1879  C1938   1.393   .     S
C1880  C1966   1.401   .     S
H1901  C285    1.110   1_556 S
H1902  C285    1.109   1_556 S
N1921  Zn1935  2.030   .     S
N1922  Zn1936  2.030   .     S
O1923  Zn1935  1.989   .     S
O1927  Zn1936  1.989   .     S
O1928  Zn1935  2.014   .     S
O1929  Zn1936  2.014   .     S
O1930  Zn1935  1.960   .     S
O1931  Zn1936  1.960   .     S
O1932  Zn1935  1.941   .     S
O1933  Zn1936  1.941   .     S
C1937  O2017   1.288   .     A
C1937  O2011   1.290   .     A
C1937  C1940   1.420   .     S
C1938  C1952   1.535   .     S
C1938  C1940   1.412   .     A
C1939  C1948   1.435   .     S
C1939  C1967   1.418   .     A
C1939  C1968   1.418   .     A
C1940  C1966   1.414   .     A
C1941  N2010   1.368   .     A
C1941  O2022   1.380   .     S
C1942  N2009   1.373   .     A
C1942  O2012   1.376   .     S
C1942  C2207   1.440   .     S
C1943  O2013   1.388   .     S
C1943  N2010   1.372   .     A
C1944  O2014   1.394   .     S
C1944  N2009   1.375   .     A
C1944  C2205   1.446   .     S
C1945  H2002   1.108   .     S
C1945  C1946   1.530   .     S
C1945  C1966   1.536   .     S
C1945  H2004   1.105   .     S
C1946  H1980   1.104   .     S
C1946  H1991   1.111   .     S
C1946  H1969   1.109   .     S
C1947  C1967   1.531   .     S
C1947  H2008   1.101   .     S
C1947  H1970   1.109   .     S
C1947  C1949   1.522   .     S
C1948  O2015   1.299   .     A
C1948  O2016   1.287   .     A
C1949  H2006   1.107   .     S
C1949  H2007   1.109   .     S
C1949  H2005   1.101   .     S
C1950  H1974   1.093   .     S
C1950  H1975   1.106   .     S
C1950  C1968   1.529   .     S
C1950  C1951   1.521   .     S
C1951  H1973   1.110   .     S
C1951  H1971   1.110   .     S
C1951  H1972   1.110   .     S
C1952  C1953   1.520   .     S
C1952  H1979   1.102   .     S
C1952  H1981   1.098   .     S
C1953  H1978   1.109   .     S
C1953  H1976   1.106   .     S
C1953  H1977   1.109   .     S
C1954  H1983   1.114   .     S
C1954  O2022   1.416   .     S
C1954  C1955   1.522   .     S
C1954  H1982   1.109   .     S
C1955  H1984   1.104   .     S
C1955  H1986   1.111   .     S
C1955  H401    1.109   1_556 S
C1956  O2012   1.420   .     S
C1956  H1987   1.109   .     S
C1956  H1988   1.110   .     S
C1956  C1957   1.523   .     S
C1957  H1992   1.104   .     S
C1958  H1993   1.095   .     S
C1958  C1960   1.522   .     S
C1958  O2013   1.408   .     S
C1958  H1994   1.110   .     S
C1959  O2018   1.289   .     A
C1959  C1964   1.368   .     S
C1959  O2021   1.280   .     A
C1960  H1997   1.111   .     S
C1960  H1996   1.111   .     S
C1960  H1995   1.109   .     S
C1961  H1999   1.114   .     S
C1961  O2014   1.421   .     S
C1961  C1962   1.517   .     S
C1961  H2262   1.106   .     S
C1962  H2003   1.109   .     S
C1962  H2000   1.101   .     S
C1962  H2001   1.111   .     S
C1963  C1965   1.368   .     S
C1963  O2020   1.280   .     A
C1963  O2019   1.289   .     A
C1965  C380    1.166   1_556 S
C1967  C2026   1.393   .     S
C1968  C2054   1.401   .     S
H1989  C373    1.110   1_556 S
H1990  C373    1.109   1_556 S
N2009  Zn2023  2.030   .     S
N2010  Zn2024  2.030   .     S
O2011  Zn2023  1.989   .     S
O2015  Zn2024  1.989   .     S
O2016  Zn2023  2.014   .     S
O2017  Zn2024  2.014   .     S
O2018  Zn2023  1.960   .     S
O2019  Zn2024  1.960   .     S
O2020  Zn2023  1.941   .     S
O2021  Zn2024  1.941   .     S
C2025  O2105   1.288   .     A
C2025  O2099   1.290   .     A
C2025  C2028   1.420   .     S
C2026  C2040   1.535   .     S
C2026  C2028   1.412   .     A
C2027  C2036   1.435   .     S
C2027  C2055   1.418   .     A
C2027  C2056   1.418   .     A
C2028  C2054   1.414   .     A
C2029  N2098   1.368   .     A
C2029  O2110   1.380   .     S
C2030  N2097   1.373   .     A
C2030  O2100   1.376   .     S
C2030  C2295   1.440   .     S
C2031  O2101   1.388   .     S
C2031  N2098   1.372   .     A
C2032  O2102   1.394   .     S
C2032  N2097   1.375   .     A
C2032  C2293   1.446   .     S
C2033  H2090   1.108   .     S
C2033  C2034   1.530   .     S
C2033  C2054   1.536   .     S
C2033  H2092   1.105   .     S
C2034  H2068   1.104   .     S
C2034  H2079   1.111   .     S
C2034  H2057   1.109   .     S
C2035  C2055   1.531   .     S
C2035  H2096   1.101   .     S
C2035  H2058   1.109   .     S
C2035  C2037   1.522   .     S
C2036  O2103   1.299   .     A
C2036  O2104   1.287   .     A
C2037  H2094   1.107   .     S
C2037  H2095   1.109   .     S
C2037  H2093   1.101   .     S
C2038  H2062   1.093   .     S
C2038  H2063   1.106   .     S
C2038  C2056   1.529   .     S
C2038  C2039   1.521   .     S
C2039  H2061   1.110   .     S
C2039  H2059   1.110   .     S
C2039  H2060   1.110   .     S
C2040  C2041   1.520   .     S
C2040  H2067   1.102   .     S
C2040  H2069   1.098   .     S
C2041  H2066   1.109   .     S
C2041  H2064   1.106   .     S
C2041  H2065   1.109   .     S
C2042  H2071   1.114   .     S
C2042  O2110   1.416   .     S
C2042  C2043   1.522   .     S
C2042  H2070   1.109   .     S
C2043  H2072   1.104   .     S
C2043  H2074   1.111   .     S
C2043  H489    1.109   1_556 S
C2044  O2100   1.420   .     S
C2044  H2075   1.109   .     S
C2044  H2076   1.110   .     S
C2044  C2045   1.523   .     S
C2045  H2080   1.104   .     S
C2046  H2081   1.095   .     S
C2046  C2048   1.522   .     S
C2046  O2101   1.408   .     S
C2046  H2082   1.110   .     S
C2047  O2106   1.289   .     A
C2047  C2052   1.368   .     S
C2047  O2109   1.280   .     A
C2048  H2085   1.111   .     S
C2048  H2084   1.111   .     S
C2048  H2083   1.109   .     S
C2049  H2087   1.114   .     S
C2049  O2102   1.421   .     S
C2049  C2050   1.517   .     S
C2049  H2350   1.106   .     S
C2050  H2091   1.109   .     S
C2050  H2088   1.101   .     S
C2050  H2089   1.111   .     S
C2051  C2053   1.368   .     S
C2051  O2108   1.280   .     A
C2051  O2107   1.289   .     A
C2053  C468    1.166   1_556 S
C2055  C1850   1.393   1_655 S
C2056  C1878   1.401   1_655 S
H2077  C461    1.110   1_556 S
H2078  C461    1.109   1_556 S
N2097  Zn2111  2.030   .     S
N2098  Zn2112  2.030   .     S
O2099  Zn2111  1.989   .     S
O2103  Zn2112  1.989   .     S
O2104  Zn2111  2.014   .     S
O2105  Zn2112  2.014   .     S
O2106  Zn2111  1.960   .     S
O2107  Zn2112  1.960   .     S
O2108  Zn2111  1.941   .     S
O2109  Zn2112  1.941   .     S
C2113  O2193   1.288   .     A
C2113  O2187   1.290   .     A
C2113  C2116   1.420   .     S
C2114  C2128   1.535   .     S
C2114  C2116   1.412   .     A
C2114  C2319   1.393   1_455 S
C2115  C2124   1.435   .     S
C2115  C2143   1.418   .     A
C2115  C2144   1.418   .     A
C2116  C2142   1.414   .     A
C2117  N2186   1.368   .     A
C2117  O2198   1.380   .     S
C2118  N2185   1.373   .     A
C2118  O2188   1.376   .     S
C2118  C1591   1.440   1_565 S
C2119  O2189   1.388   .     S
C2119  N2186   1.372   .     A
C2120  O2190   1.394   .     S
C2120  N2185   1.375   .     A
C2120  C1589   1.446   1_565 S
C2121  H2178   1.108   .     S
C2121  C2122   1.530   .     S
C2121  C2142   1.536   .     S
C2121  H2180   1.105   .     S
C2122  H2156   1.104   .     S
C2122  H2167   1.111   .     S
C2122  H2145   1.109   .     S
C2123  C2143   1.531   .     S
C2123  H2184   1.101   .     S
C2123  H2146   1.109   .     S
C2123  C2125   1.522   .     S
C2124  O2191   1.299   .     A
C2124  O2192   1.287   .     A
C2125  H2182   1.107   .     S
C2125  H2183   1.109   .     S
C2125  H2181   1.101   .     S
C2126  H2150   1.093   .     S
C2126  H2151   1.106   .     S
C2126  C2144   1.529   .     S
C2126  C2127   1.521   .     S
C2127  H2149   1.110   .     S
C2127  H2147   1.110   .     S
C2127  H2148   1.110   .     S
C2128  C2129   1.520   .     S
C2128  H2155   1.102   .     S
C2128  H2157   1.098   .     S
C2129  H2154   1.109   .     S
C2129  H2152   1.106   .     S
C2129  H2153   1.109   .     S
C2130  H2159   1.114   .     S
C2130  O2198   1.416   .     S
C2130  C2131   1.522   .     S
C2130  H2158   1.109   .     S
C2131  H2160   1.104   .     S
C2131  H2162   1.111   .     S
C2131  H577    1.109   1_556 S
C2132  O2188   1.420   .     S
C2132  H2163   1.109   .     S
C2132  H2164   1.110   .     S
C2132  C2133   1.523   .     S
C2133  H2168   1.104   .     S
C2134  H2169   1.095   .     S
C2134  C2136   1.522   .     S
C2134  O2189   1.408   .     S
C2134  H2170   1.110   .     S
C2135  O2194   1.289   .     A
C2135  C2140   1.368   .     S
C2135  O2197   1.280   .     A
C2136  H2173   1.111   .     S
C2136  H2172   1.111   .     S
C2136  H2171   1.109   .     S
C2137  H2175   1.114   .     S
C2137  O2190   1.421   .     S
C2137  C2138   1.517   .     S
C2137  H1646   1.106   1_565 S
C2138  H2179   1.109   .     S
C2138  H2176   1.101   .     S
C2138  H2177   1.111   .     S
C2139  C2141   1.368   .     S
C2139  O2196   1.280   .     A
C2139  O2195   1.289   .     A
C2141  C556    1.166   1_556 S
C2142  C2320   1.401   1_455 S
C2143  C2202   1.393   .     S
C2144  C2230   1.401   .     S
H2165  C549    1.110   1_556 S
H2166  C549    1.109   1_556 S
N2185  Zn2199  2.030   .     S
N2186  Zn2200  2.030   .     S
O2187  Zn2199  1.989   .     S
O2191  Zn2200  1.989   .     S
O2192  Zn2199  2.014   .     S
O2193  Zn2200  2.014   .     S
O2194  Zn2199  1.960   .     S
O2195  Zn2200  1.960   .     S
O2196  Zn2199  1.941   .     S
O2197  Zn2200  1.941   .     S
C2201  O2281   1.288   .     A
C2201  O2275   1.290   .     A
C2201  C2204   1.420   .     S
C2202  C2216   1.535   .     S
C2202  C2204   1.412   .     A
C2203  C2212   1.435   .     S
C2203  C2231   1.418   .     A
C2203  C2232   1.418   .     A
C2204  C2230   1.414   .     A
C2205  N2274   1.368   .     A
C2205  O2286   1.380   .     S
C2206  N2273   1.373   .     A
C2206  O2276   1.376   .     S
C2206  C1679   1.440   1_565 S
C2207  O2277   1.388   .     S
C2207  N2274   1.372   .     A
C2208  O2278   1.394   .     S
C2208  N2273   1.375   .     A
C2208  C1677   1.446   1_565 S
C2209  H2266   1.108   .     S
C2209  C2210   1.530   .     S
C2209  C2230   1.536   .     S
C2209  H2268   1.105   .     S
C2210  H2244   1.104   .     S
C2210  H2255   1.111   .     S
C2210  H2233   1.109   .     S
C2211  C2231   1.531   .     S
C2211  H2272   1.101   .     S
C2211  H2234   1.109   .     S
C2211  C2213   1.522   .     S
C2212  O2279   1.299   .     A
C2212  O2280   1.287   .     A
C2213  H2270   1.107   .     S
C2213  H2271   1.109   .     S
C2213  H2269   1.101   .     S
C2214  H2238   1.093   .     S
C2214  H2239   1.106   .     S
C2214  C2232   1.529   .     S
C2214  C2215   1.521   .     S
C2215  H2237   1.110   .     S
C2215  H2235   1.110   .     S
C2215  H2236   1.110   .     S
C2216  C2217   1.520   .     S
C2216  H2243   1.102   .     S
C2216  H2245   1.098   .     S
C2217  H2242   1.109   .     S
C2217  H2240   1.106   .     S
C2217  H2241   1.109   .     S
C2218  H2247   1.114   .     S
C2218  O2286   1.416   .     S
C2218  C2219   1.522   .     S
C2218  H2246   1.109   .     S
C2219  H2248   1.104   .     S
C2219  H2250   1.111   .     S
C2219  H665    1.109   1_556 S
C2220  O2276   1.420   .     S
C2220  H2251   1.109   .     S
C2220  H2252   1.110   .     S
C2220  C2221   1.523   .     S
C2221  H2256   1.104   .     S
C2222  H2257   1.095   .     S
C2222  C2224   1.522   .     S
C2222  O2277   1.408   .     S
C2222  H2258   1.110   .     S
C2223  O2282   1.289   .     A
C2223  C2228   1.368   .     S
C2223  O2285   1.280   .     A
C2224  H2261   1.111   .     S
C2224  H2260   1.111   .     S
C2224  H2259   1.109   .     S
C2225  H2263   1.114   .     S
C2225  O2278   1.421   .     S
C2225  C2226   1.517   .     S
C2225  H1734   1.106   1_565 S
C2226  H2267   1.109   .     S
C2226  H2264   1.101   .     S
C2226  H2265   1.111   .     S
C2227  C2229   1.368   .     S
C2227  O2284   1.280   .     A
C2227  O2283   1.289   .     A
C2229  C644    1.166   1_556 S
C2231  C2290   1.393   .     S
C2232  C2318   1.401   .     S
H2253  C637    1.110   1_556 S
H2254  C637    1.109   1_556 S
N2273  Zn2287  2.030   .     S
N2274  Zn2288  2.030   .     S
O2275  Zn2287  1.989   .     S
O2279  Zn2288  1.989   .     S
O2280  Zn2287  2.014   .     S
O2281  Zn2288  2.014   .     S
O2282  Zn2287  1.960   .     S
O2283  Zn2288  1.960   .     S
O2284  Zn2287  1.941   .     S
O2285  Zn2288  1.941   .     S
C2289  O2369   1.288   .     A
C2289  O2363   1.290   .     A
C2289  C2292   1.420   .     S
C2290  C2304   1.535   .     S
C2290  C2292   1.412   .     A
C2291  C2300   1.435   .     S
C2291  C2319   1.418   .     A
C2291  C2320   1.418   .     A
C2292  C2318   1.414   .     A
C2293  N2362   1.368   .     A
C2293  O2374   1.380   .     S
C2294  N2361   1.373   .     A
C2294  O2364   1.376   .     S
C2294  C1767   1.440   1_565 S
C2295  O2365   1.388   .     S
C2295  N2362   1.372   .     A
C2296  O2366   1.394   .     S
C2296  N2361   1.375   .     A
C2296  C1765   1.446   1_565 S
C2297  H2354   1.108   .     S
C2297  C2298   1.530   .     S
C2297  C2318   1.536   .     S
C2297  H2356   1.105   .     S
C2298  H2332   1.104   .     S
C2298  H2343   1.111   .     S
C2298  H2321   1.109   .     S
C2299  C2319   1.531   .     S
C2299  H2360   1.101   .     S
C2299  H2322   1.109   .     S
C2299  C2301   1.522   .     S
C2300  O2367   1.299   .     A
C2300  O2368   1.287   .     A
C2301  H2358   1.107   .     S
C2301  H2359   1.109   .     S
C2301  H2357   1.101   .     S
C2302  H2326   1.093   .     S
C2302  H2327   1.106   .     S
C2302  C2320   1.529   .     S
C2302  C2303   1.521   .     S
C2303  H2325   1.110   .     S
C2303  H2323   1.110   .     S
C2303  H2324   1.110   .     S
C2304  C2305   1.520   .     S
C2304  H2331   1.102   .     S
C2304  H2333   1.098   .     S
C2305  H2330   1.109   .     S
C2305  H2328   1.106   .     S
C2305  H2329   1.109   .     S
C2306  H2335   1.114   .     S
C2306  O2374   1.416   .     S
C2306  C2307   1.522   .     S
C2306  H2334   1.109   .     S
C2307  H2336   1.104   .     S
C2307  H2338   1.111   .     S
C2307  H753    1.109   1_556 S
C2308  O2364   1.420   .     S
C2308  H2339   1.109   .     S
C2308  H2340   1.110   .     S
C2308  C2309   1.523   .     S
C2309  H2344   1.104   .     S
C2310  H2345   1.095   .     S
C2310  C2312   1.522   .     S
C2310  O2365   1.408   .     S
C2310  H2346   1.110   .     S
C2311  O2370   1.289   .     A
C2311  C2316   1.368   .     S
C2311  O2373   1.280   .     A
C2312  H2349   1.111   .     S
C2312  H2348   1.111   .     S
C2312  H2347   1.109   .     S
C2313  H2351   1.114   .     S
C2313  O2366   1.421   .     S
C2313  C2314   1.517   .     S
C2313  H1822   1.106   1_565 S
C2314  H2355   1.109   .     S
C2314  H2352   1.101   .     S
C2314  H2353   1.111   .     S
C2315  C2317   1.368   .     S
C2315  O2372   1.280   .     A
C2315  O2371   1.289   .     A
C2317  C732    1.166   1_556 S
C2319  C2114   1.393   1_655 S
C2320  C2142   1.401   1_655 S
H2341  C725    1.110   1_556 S
H2342  C725    1.109   1_556 S
N2361  Zn2375  2.030   .     S
N2362  Zn2376  2.030   .     S
O2363  Zn2375  1.989   .     S
O2367  Zn2376  1.989   .     S
O2368  Zn2375  2.014   .     S
O2369  Zn2376  2.014   .     S
O2370  Zn2375  1.960   .     S
O2371  Zn2376  1.960   .     S
O2372  Zn2375  1.941   .     S
O2373  Zn2376  1.941   .     S
