data_str_m3_o10_o16_pcu_sym.178
_audit_creation_date              2020-01-03
_audit_creation_method            'Materials Studio'
_symmetry_space_group_name_H-M    'P1'
_symmetry_Int_Tables_number       1
_symmetry_cell_setting            triclinic
loop_
_symmetry_equiv_pos_as_xyz
  x,y,z
_cell_length_a                    23.6303
_cell_length_b                    25.6615
_cell_length_c                    35.8876
_cell_angle_alpha                 93.3316
_cell_angle_beta                  100.0420
_cell_angle_gamma                 94.6023
loop_
_atom_site_label
_atom_site_type_symbol
_atom_site_fract_x
_atom_site_fract_y
_atom_site_fract_z
_atom_site_U_iso_or_equiv
_atom_site_adp_type
_atom_site_occupancy
C1     C     0.01497   0.26490   0.16590   0.00000  Uiso   1.00
C2     C     0.14335   0.18467   0.32530   0.00000  Uiso   1.00
C3     C     0.10635   0.15791   0.29367   0.00000  Uiso   1.00
C4     C     0.19642   0.16399   0.00479   0.00000  Uiso   1.00
C5     C     0.21690   0.12503   0.31547   0.00000  Uiso   1.00
C6     C     0.17977   0.09983   0.28376   0.00000  Uiso   1.00
C7     C     0.12359   0.11308   0.27556   0.00000  Uiso   1.00
C8     C     0.22587   0.17619   0.04157   0.00000  Uiso   1.00
C9     C     0.30346   0.12521   0.02964   0.00000  Uiso   1.00
C10    C     0.05467   0.17868   0.27833   0.00000  Uiso   1.00
C11    C     0.02276   0.31962   0.16569   0.00000  Uiso   1.00
C12    C     0.03523   0.17043   0.23715   0.00000  Uiso   1.00
C13    C     0.31086   0.01379   0.16834   0.00000  Uiso   1.00
C14    C     0.31849   0.06846   0.16771   0.00000  Uiso   1.00
C15    C     0.29780   0.16226   0.09612   0.00000  Uiso   1.00
C16    C     0.27229   0.10941   0.32693   0.00000  Uiso   1.00
C17    C     0.27808   0.15613   0.05492   0.00000  Uiso   1.00
C18    C     0.03369   0.21868   0.29936   0.00000  Uiso   1.00
C19    C     0.06987   0.24475   0.33073   0.00000  Uiso   1.00
C20    C     0.12613   0.23162   0.00826   0.00000  Uiso   1.00
H21    H     0.17693   0.21194   0.19224   0.00000  Uiso   1.00
H22    H     0.20474   0.19691   0.06143   0.00000  Uiso   1.00
N23    N     0.14493   0.15223   0.15695   0.00000  Uiso   1.00
N24    N     0.18840   0.18110   0.17638   0.00000  Uiso   1.00
O25    O     0.29769   0.24629   0.16905   0.00000  Uiso   1.00
O26    O     0.05742   0.23704   0.16282   0.00000  Uiso   1.00
O27    O     0.31490   0.17358   0.22253   0.00000  Uiso   1.00
O28    O     0.07463   0.16433   0.21631   0.00000  Uiso   1.00
O29    O     0.27592   0.09629   0.17051   0.00000  Uiso   1.00
O30    O     0.03565   0.08704   0.16428   0.00000  Uiso   1.00
O31    O     0.25870   0.16901   0.11703   0.00000  Uiso   1.00
O32    O     0.01843   0.15976   0.11080   0.00000  Uiso   1.00
Zn33   Zn    0.27119   0.17284   0.17082   0.00000  Uiso   1.00
Zn34   Zn    0.06214   0.16049   0.16251   0.00000  Uiso   1.00
I35    I     0.04976   0.09306   0.04306   0.00000  Uiso   1.00
H36    H     0.26828   0.32970   0.17078   0.00000  Uiso   1.00
I37    I     0.15798   0.08355   0.12771   0.00000  Uiso   1.00
I38    I     0.20228   0.03885   0.24801   0.00000  Uiso   1.00
H39    H     0.29049   0.08250   0.30900   0.00000  Uiso   1.00
I40    I     0.28653   0.24985   0.28287   0.00000  Uiso   1.00
I41    I     0.18274   0.29453   0.03976   0.00000  Uiso   1.00
H42    H     0.05613   0.27916   0.01094   0.00000  Uiso   1.00
H43    H     0.09413   0.08970   0.25314   0.00000  Uiso   1.00
H44    H     0.06536   0.00370   0.16334   0.00000  Uiso   1.00
C45    C     0.34830   0.26490   0.16590   0.00000  Uiso   1.00
C46    C     0.47669   0.18467   0.32530   0.00000  Uiso   1.00
C47    C     0.43969   0.15791   0.29367   0.00000  Uiso   1.00
C48    C     0.52975   0.16399   0.00479   0.00000  Uiso   1.00
C49    C     0.55024   0.12503   0.31547   0.00000  Uiso   1.00
C50    C     0.51311   0.09983   0.28376   0.00000  Uiso   1.00
C51    C     0.45693   0.11308   0.27556   0.00000  Uiso   1.00
C52    C     0.55920   0.17619   0.04157   0.00000  Uiso   1.00
C53    C     0.63680   0.12521   0.02964   0.00000  Uiso   1.00
C54    C     0.38800   0.17868   0.27833   0.00000  Uiso   1.00
C55    C     0.35609   0.31962   0.16569   0.00000  Uiso   1.00
C56    C     0.36856   0.17043   0.23715   0.00000  Uiso   1.00
C57    C     0.64419   0.01379   0.16834   0.00000  Uiso   1.00
C58    C     0.65182   0.06846   0.16771   0.00000  Uiso   1.00
C59    C     0.63113   0.16226   0.09612   0.00000  Uiso   1.00
C60    C     0.60562   0.10941   0.32693   0.00000  Uiso   1.00
C61    C     0.61141   0.15613   0.05492   0.00000  Uiso   1.00
C62    C     0.36702   0.21868   0.29936   0.00000  Uiso   1.00
C63    C     0.40321   0.24475   0.33073   0.00000  Uiso   1.00
C64    C     0.45946   0.23162   0.00826   0.00000  Uiso   1.00
H65    H     0.51026   0.21194   0.19224   0.00000  Uiso   1.00
H66    H     0.53808   0.19691   0.06143   0.00000  Uiso   1.00
N67    N     0.47827   0.15223   0.15695   0.00000  Uiso   1.00
N68    N     0.52173   0.18110   0.17638   0.00000  Uiso   1.00
O69    O     0.63102   0.24629   0.16905   0.00000  Uiso   1.00
O70    O     0.39075   0.23704   0.16282   0.00000  Uiso   1.00
O71    O     0.64823   0.17358   0.22253   0.00000  Uiso   1.00
O72    O     0.40796   0.16433   0.21631   0.00000  Uiso   1.00
O73    O     0.60925   0.09629   0.17051   0.00000  Uiso   1.00
O74    O     0.36898   0.08704   0.16428   0.00000  Uiso   1.00
O75    O     0.59204   0.16901   0.11703   0.00000  Uiso   1.00
O76    O     0.35177   0.15976   0.11080   0.00000  Uiso   1.00
Zn77   Zn    0.60453   0.17284   0.17082   0.00000  Uiso   1.00
Zn78   Zn    0.39547   0.16049   0.16251   0.00000  Uiso   1.00
I79    I     0.38310   0.09306   0.04306   0.00000  Uiso   1.00
H80    H     0.60161   0.32970   0.17078   0.00000  Uiso   1.00
I81    I     0.49131   0.08355   0.12771   0.00000  Uiso   1.00
I82    I     0.53562   0.03885   0.24801   0.00000  Uiso   1.00
H83    H     0.62382   0.08250   0.30900   0.00000  Uiso   1.00
I84    I     0.61986   0.24985   0.28287   0.00000  Uiso   1.00
I85    I     0.51607   0.29453   0.03976   0.00000  Uiso   1.00
H86    H     0.38947   0.27916   0.01094   0.00000  Uiso   1.00
H87    H     0.42746   0.08970   0.25314   0.00000  Uiso   1.00
H88    H     0.39869   0.00370   0.16334   0.00000  Uiso   1.00
C89    C     0.68163   0.26490   0.16590   0.00000  Uiso   1.00
C90    C     0.81002   0.18467   0.32530   0.00000  Uiso   1.00
C91    C     0.77302   0.15791   0.29367   0.00000  Uiso   1.00
C92    C     0.86309   0.16399   0.00479   0.00000  Uiso   1.00
C93    C     0.88357   0.12503   0.31547   0.00000  Uiso   1.00
C94    C     0.84644   0.09983   0.28376   0.00000  Uiso   1.00
C95    C     0.79026   0.11308   0.27556   0.00000  Uiso   1.00
C96    C     0.89253   0.17619   0.04157   0.00000  Uiso   1.00
C97    C     0.97013   0.12521   0.02964   0.00000  Uiso   1.00
C98    C     0.72134   0.17868   0.27833   0.00000  Uiso   1.00
C99    C     0.68942   0.31962   0.16569   0.00000  Uiso   1.00
C100   C     0.70190   0.17043   0.23715   0.00000  Uiso   1.00
C101   C     0.97752   0.01379   0.16834   0.00000  Uiso   1.00
C102   C     0.98515   0.06846   0.16771   0.00000  Uiso   1.00
C103   C     0.96446   0.16226   0.09612   0.00000  Uiso   1.00
C104   C     0.93896   0.10941   0.32693   0.00000  Uiso   1.00
C105   C     0.94475   0.15613   0.05492   0.00000  Uiso   1.00
C106   C     0.70035   0.21868   0.29936   0.00000  Uiso   1.00
C107   C     0.73654   0.24475   0.33073   0.00000  Uiso   1.00
C108   C     0.79280   0.23162   0.00826   0.00000  Uiso   1.00
H109   H     0.84359   0.21194   0.19224   0.00000  Uiso   1.00
H110   H     0.87141   0.19691   0.06143   0.00000  Uiso   1.00
N111   N     0.81160   0.15223   0.15695   0.00000  Uiso   1.00
N112   N     0.85507   0.18110   0.17638   0.00000  Uiso   1.00
O113   O     0.96435   0.24629   0.16905   0.00000  Uiso   1.00
O114   O     0.72408   0.23704   0.16282   0.00000  Uiso   1.00
O115   O     0.98157   0.17358   0.22253   0.00000  Uiso   1.00
O116   O     0.74130   0.16433   0.21631   0.00000  Uiso   1.00
O117   O     0.94258   0.09629   0.17051   0.00000  Uiso   1.00
O118   O     0.70231   0.08704   0.16428   0.00000  Uiso   1.00
O119   O     0.92537   0.16901   0.11703   0.00000  Uiso   1.00
O120   O     0.68510   0.15976   0.11080   0.00000  Uiso   1.00
Zn121  Zn    0.93786   0.17284   0.17082   0.00000  Uiso   1.00
Zn122  Zn    0.72881   0.16049   0.16251   0.00000  Uiso   1.00
I123   I     0.71643   0.09306   0.04306   0.00000  Uiso   1.00
H124   H     0.93494   0.32970   0.17078   0.00000  Uiso   1.00
I125   I     0.82465   0.08355   0.12771   0.00000  Uiso   1.00
I126   I     0.86895   0.03885   0.24801   0.00000  Uiso   1.00
H127   H     0.95716   0.08250   0.30900   0.00000  Uiso   1.00
I128   I     0.95319   0.24985   0.28287   0.00000  Uiso   1.00
I129   I     0.84941   0.29453   0.03976   0.00000  Uiso   1.00
H130   H     0.72280   0.27916   0.01094   0.00000  Uiso   1.00
H131   H     0.76079   0.08970   0.25314   0.00000  Uiso   1.00
H132   H     0.73202   0.00370   0.16334   0.00000  Uiso   1.00
C133   C     0.01497   0.59824   0.16590   0.00000  Uiso   1.00
C134   C     0.14335   0.51800   0.32530   0.00000  Uiso   1.00
C135   C     0.10635   0.49124   0.29367   0.00000  Uiso   1.00
C136   C     0.19642   0.49733   0.00479   0.00000  Uiso   1.00
C137   C     0.21690   0.45837   0.31547   0.00000  Uiso   1.00
C138   C     0.17977   0.43317   0.28376   0.00000  Uiso   1.00
C139   C     0.12359   0.44642   0.27556   0.00000  Uiso   1.00
C140   C     0.22587   0.50952   0.04157   0.00000  Uiso   1.00
C141   C     0.30346   0.45854   0.02964   0.00000  Uiso   1.00
C142   C     0.05467   0.51201   0.27833   0.00000  Uiso   1.00
C143   C     0.02276   0.65295   0.16569   0.00000  Uiso   1.00
C144   C     0.03523   0.50376   0.23715   0.00000  Uiso   1.00
C145   C     0.31086   0.34712   0.16834   0.00000  Uiso   1.00
C146   C     0.31849   0.40179   0.16771   0.00000  Uiso   1.00
C147   C     0.29780   0.49559   0.09612   0.00000  Uiso   1.00
C148   C     0.27229   0.44275   0.32693   0.00000  Uiso   1.00
C149   C     0.27808   0.48946   0.05492   0.00000  Uiso   1.00
C150   C     0.03369   0.55201   0.29936   0.00000  Uiso   1.00
C151   C     0.06987   0.57808   0.33073   0.00000  Uiso   1.00
C152   C     0.12613   0.56495   0.00826   0.00000  Uiso   1.00
H153   H     0.17693   0.54528   0.19224   0.00000  Uiso   1.00
H154   H     0.20474   0.53024   0.06143   0.00000  Uiso   1.00
N155   N     0.14493   0.48556   0.15695   0.00000  Uiso   1.00
N156   N     0.18840   0.51444   0.17638   0.00000  Uiso   1.00
O157   O     0.29769   0.57963   0.16905   0.00000  Uiso   1.00
O158   O     0.05742   0.57038   0.16282   0.00000  Uiso   1.00
O159   O     0.31490   0.50691   0.22253   0.00000  Uiso   1.00
O160   O     0.07463   0.49766   0.21631   0.00000  Uiso   1.00
O161   O     0.27592   0.42962   0.17051   0.00000  Uiso   1.00
O162   O     0.03565   0.42037   0.16428   0.00000  Uiso   1.00
O163   O     0.25870   0.50234   0.11703   0.00000  Uiso   1.00
O164   O     0.01843   0.49309   0.11080   0.00000  Uiso   1.00
Zn165  Zn    0.27119   0.50618   0.17082   0.00000  Uiso   1.00
Zn166  Zn    0.06214   0.49382   0.16251   0.00000  Uiso   1.00
I167   I     0.04976   0.42640   0.04306   0.00000  Uiso   1.00
H168   H     0.26828   0.66303   0.17078   0.00000  Uiso   1.00
I169   I     0.15798   0.41689   0.12771   0.00000  Uiso   1.00
I170   I     0.20228   0.37218   0.24801   0.00000  Uiso   1.00
H171   H     0.29049   0.41583   0.30900   0.00000  Uiso   1.00
I172   I     0.28653   0.58319   0.28287   0.00000  Uiso   1.00
I173   I     0.18274   0.62786   0.03976   0.00000  Uiso   1.00
H174   H     0.05613   0.61249   0.01094   0.00000  Uiso   1.00
H175   H     0.09413   0.42304   0.25314   0.00000  Uiso   1.00
H176   H     0.06536   0.33704   0.16334   0.00000  Uiso   1.00
C177   C     0.34830   0.59824   0.16590   0.00000  Uiso   1.00
C178   C     0.47669   0.51800   0.32530   0.00000  Uiso   1.00
C179   C     0.43969   0.49124   0.29367   0.00000  Uiso   1.00
C180   C     0.52975   0.49733   0.00479   0.00000  Uiso   1.00
C181   C     0.55024   0.45837   0.31547   0.00000  Uiso   1.00
C182   C     0.51311   0.43317   0.28376   0.00000  Uiso   1.00
C183   C     0.45693   0.44642   0.27556   0.00000  Uiso   1.00
C184   C     0.55920   0.50952   0.04157   0.00000  Uiso   1.00
C185   C     0.63680   0.45854   0.02964   0.00000  Uiso   1.00
C186   C     0.38800   0.51201   0.27833   0.00000  Uiso   1.00
C187   C     0.35609   0.65295   0.16569   0.00000  Uiso   1.00
C188   C     0.36856   0.50376   0.23715   0.00000  Uiso   1.00
C189   C     0.64419   0.34712   0.16834   0.00000  Uiso   1.00
C190   C     0.65182   0.40179   0.16771   0.00000  Uiso   1.00
C191   C     0.63113   0.49559   0.09612   0.00000  Uiso   1.00
C192   C     0.60562   0.44275   0.32693   0.00000  Uiso   1.00
C193   C     0.61141   0.48946   0.05492   0.00000  Uiso   1.00
C194   C     0.36702   0.55201   0.29936   0.00000  Uiso   1.00
C195   C     0.40321   0.57808   0.33073   0.00000  Uiso   1.00
C196   C     0.45946   0.56495   0.00826   0.00000  Uiso   1.00
H197   H     0.51026   0.54528   0.19224   0.00000  Uiso   1.00
H198   H     0.53808   0.53024   0.06143   0.00000  Uiso   1.00
N199   N     0.47827   0.48556   0.15695   0.00000  Uiso   1.00
N200   N     0.52173   0.51444   0.17638   0.00000  Uiso   1.00
O201   O     0.63102   0.57963   0.16905   0.00000  Uiso   1.00
O202   O     0.39075   0.57038   0.16282   0.00000  Uiso   1.00
O203   O     0.64823   0.50691   0.22253   0.00000  Uiso   1.00
O204   O     0.40796   0.49766   0.21631   0.00000  Uiso   1.00
O205   O     0.60925   0.42962   0.17051   0.00000  Uiso   1.00
O206   O     0.36898   0.42037   0.16428   0.00000  Uiso   1.00
O207   O     0.59204   0.50234   0.11703   0.00000  Uiso   1.00
O208   O     0.35177   0.49309   0.11080   0.00000  Uiso   1.00
Zn209  Zn    0.60453   0.50618   0.17082   0.00000  Uiso   1.00
Zn210  Zn    0.39547   0.49382   0.16251   0.00000  Uiso   1.00
I211   I     0.38310   0.42640   0.04306   0.00000  Uiso   1.00
H212   H     0.60161   0.66303   0.17078   0.00000  Uiso   1.00
I213   I     0.49131   0.41689   0.12771   0.00000  Uiso   1.00
I214   I     0.53562   0.37218   0.24801   0.00000  Uiso   1.00
H215   H     0.62382   0.41583   0.30900   0.00000  Uiso   1.00
I216   I     0.61986   0.58319   0.28287   0.00000  Uiso   1.00
I217   I     0.51607   0.62786   0.03976   0.00000  Uiso   1.00
H218   H     0.38947   0.61249   0.01094   0.00000  Uiso   1.00
H219   H     0.42746   0.42304   0.25314   0.00000  Uiso   1.00
H220   H     0.39869   0.33704   0.16334   0.00000  Uiso   1.00
C221   C     0.68163   0.59824   0.16590   0.00000  Uiso   1.00
C222   C     0.81002   0.51800   0.32530   0.00000  Uiso   1.00
C223   C     0.77302   0.49124   0.29367   0.00000  Uiso   1.00
C224   C     0.86309   0.49733   0.00479   0.00000  Uiso   1.00
C225   C     0.88357   0.45837   0.31547   0.00000  Uiso   1.00
C226   C     0.84644   0.43317   0.28376   0.00000  Uiso   1.00
C227   C     0.79026   0.44642   0.27556   0.00000  Uiso   1.00
C228   C     0.89253   0.50952   0.04157   0.00000  Uiso   1.00
C229   C     0.97013   0.45854   0.02964   0.00000  Uiso   1.00
C230   C     0.72134   0.51201   0.27833   0.00000  Uiso   1.00
C231   C     0.68942   0.65295   0.16569   0.00000  Uiso   1.00
C232   C     0.70190   0.50376   0.23715   0.00000  Uiso   1.00
C233   C     0.97752   0.34712   0.16834   0.00000  Uiso   1.00
C234   C     0.98515   0.40179   0.16771   0.00000  Uiso   1.00
C235   C     0.96446   0.49559   0.09612   0.00000  Uiso   1.00
C236   C     0.93896   0.44275   0.32693   0.00000  Uiso   1.00
C237   C     0.94475   0.48946   0.05492   0.00000  Uiso   1.00
C238   C     0.70035   0.55201   0.29936   0.00000  Uiso   1.00
C239   C     0.73654   0.57808   0.33073   0.00000  Uiso   1.00
C240   C     0.79280   0.56495   0.00826   0.00000  Uiso   1.00
H241   H     0.84359   0.54528   0.19224   0.00000  Uiso   1.00
H242   H     0.87141   0.53024   0.06143   0.00000  Uiso   1.00
N243   N     0.81160   0.48556   0.15695   0.00000  Uiso   1.00
N244   N     0.85507   0.51444   0.17638   0.00000  Uiso   1.00
O245   O     0.96435   0.57963   0.16905   0.00000  Uiso   1.00
O246   O     0.72408   0.57038   0.16282   0.00000  Uiso   1.00
O247   O     0.98157   0.50691   0.22253   0.00000  Uiso   1.00
O248   O     0.74130   0.49766   0.21631   0.00000  Uiso   1.00
O249   O     0.94258   0.42962   0.17051   0.00000  Uiso   1.00
O250   O     0.70231   0.42037   0.16428   0.00000  Uiso   1.00
O251   O     0.92537   0.50234   0.11703   0.00000  Uiso   1.00
O252   O     0.68510   0.49309   0.11080   0.00000  Uiso   1.00
Zn253  Zn    0.93786   0.50618   0.17082   0.00000  Uiso   1.00
Zn254  Zn    0.72881   0.49382   0.16251   0.00000  Uiso   1.00
I255   I     0.71643   0.42640   0.04306   0.00000  Uiso   1.00
H256   H     0.93494   0.66303   0.17078   0.00000  Uiso   1.00
I257   I     0.82465   0.41689   0.12771   0.00000  Uiso   1.00
I258   I     0.86895   0.37218   0.24801   0.00000  Uiso   1.00
H259   H     0.95716   0.41583   0.30900   0.00000  Uiso   1.00
I260   I     0.95319   0.58319   0.28287   0.00000  Uiso   1.00
I261   I     0.84941   0.62786   0.03976   0.00000  Uiso   1.00
H262   H     0.72280   0.61249   0.01094   0.00000  Uiso   1.00
H263   H     0.76079   0.42304   0.25314   0.00000  Uiso   1.00
H264   H     0.73202   0.33704   0.16334   0.00000  Uiso   1.00
C265   C     0.01497   0.93157   0.16590   0.00000  Uiso   1.00
C266   C     0.14335   0.85133   0.32530   0.00000  Uiso   1.00
C267   C     0.10635   0.82457   0.29367   0.00000  Uiso   1.00
C268   C     0.19642   0.83066   0.00479   0.00000  Uiso   1.00
C269   C     0.21690   0.79170   0.31547   0.00000  Uiso   1.00
C270   C     0.17977   0.76650   0.28376   0.00000  Uiso   1.00
C271   C     0.12359   0.77975   0.27556   0.00000  Uiso   1.00
C272   C     0.22587   0.84286   0.04157   0.00000  Uiso   1.00
C273   C     0.30346   0.79188   0.02964   0.00000  Uiso   1.00
C274   C     0.05467   0.84534   0.27833   0.00000  Uiso   1.00
C275   C     0.02276   0.98629   0.16569   0.00000  Uiso   1.00
C276   C     0.03523   0.83710   0.23715   0.00000  Uiso   1.00
C277   C     0.31086   0.68045   0.16834   0.00000  Uiso   1.00
C278   C     0.31849   0.73513   0.16771   0.00000  Uiso   1.00
C279   C     0.29780   0.82892   0.09612   0.00000  Uiso   1.00
C280   C     0.27229   0.77608   0.32693   0.00000  Uiso   1.00
C281   C     0.27808   0.82279   0.05492   0.00000  Uiso   1.00
C282   C     0.03369   0.88535   0.29936   0.00000  Uiso   1.00
C283   C     0.06987   0.91141   0.33073   0.00000  Uiso   1.00
C284   C     0.12613   0.89828   0.00826   0.00000  Uiso   1.00
H285   H     0.17693   0.87861   0.19224   0.00000  Uiso   1.00
H286   H     0.20474   0.86357   0.06143   0.00000  Uiso   1.00
N287   N     0.14493   0.81890   0.15695   0.00000  Uiso   1.00
N288   N     0.18840   0.84777   0.17638   0.00000  Uiso   1.00
O289   O     0.29769   0.91296   0.16905   0.00000  Uiso   1.00
O290   O     0.05742   0.90371   0.16282   0.00000  Uiso   1.00
O291   O     0.31490   0.84024   0.22253   0.00000  Uiso   1.00
O292   O     0.07463   0.83099   0.21631   0.00000  Uiso   1.00
O293   O     0.27592   0.76296   0.17051   0.00000  Uiso   1.00
O294   O     0.03565   0.75371   0.16428   0.00000  Uiso   1.00
O295   O     0.25870   0.83567   0.11703   0.00000  Uiso   1.00
O296   O     0.01843   0.82642   0.11080   0.00000  Uiso   1.00
Zn297  Zn    0.27119   0.83951   0.17082   0.00000  Uiso   1.00
Zn298  Zn    0.06214   0.82716   0.16251   0.00000  Uiso   1.00
I299   I     0.04976   0.75973   0.04306   0.00000  Uiso   1.00
H300   H     0.26828   0.99637   0.17078   0.00000  Uiso   1.00
I301   I     0.15798   0.75022   0.12771   0.00000  Uiso   1.00
I302   I     0.20228   0.70551   0.24801   0.00000  Uiso   1.00
H303   H     0.29049   0.74916   0.30900   0.00000  Uiso   1.00
I304   I     0.28653   0.91652   0.28287   0.00000  Uiso   1.00
I305   I     0.18274   0.96120   0.03976   0.00000  Uiso   1.00
H306   H     0.05613   0.94583   0.01094   0.00000  Uiso   1.00
H307   H     0.09413   0.75637   0.25314   0.00000  Uiso   1.00
H308   H     0.06536   0.67037   0.16334   0.00000  Uiso   1.00
C309   C     0.34830   0.93157   0.16590   0.00000  Uiso   1.00
C310   C     0.47669   0.85133   0.32530   0.00000  Uiso   1.00
C311   C     0.43969   0.82457   0.29367   0.00000  Uiso   1.00
C312   C     0.52975   0.83066   0.00479   0.00000  Uiso   1.00
C313   C     0.55024   0.79170   0.31547   0.00000  Uiso   1.00
C314   C     0.51311   0.76650   0.28376   0.00000  Uiso   1.00
C315   C     0.45693   0.77975   0.27556   0.00000  Uiso   1.00
C316   C     0.55920   0.84286   0.04157   0.00000  Uiso   1.00
C317   C     0.63680   0.79188   0.02964   0.00000  Uiso   1.00
C318   C     0.38800   0.84534   0.27833   0.00000  Uiso   1.00
C319   C     0.35609   0.98629   0.16569   0.00000  Uiso   1.00
C320   C     0.36856   0.83710   0.23715   0.00000  Uiso   1.00
C321   C     0.64419   0.68045   0.16834   0.00000  Uiso   1.00
C322   C     0.65182   0.73513   0.16771   0.00000  Uiso   1.00
C323   C     0.63113   0.82892   0.09612   0.00000  Uiso   1.00
C324   C     0.60562   0.77608   0.32693   0.00000  Uiso   1.00
C325   C     0.61141   0.82279   0.05492   0.00000  Uiso   1.00
C326   C     0.36702   0.88535   0.29936   0.00000  Uiso   1.00
C327   C     0.40321   0.91141   0.33073   0.00000  Uiso   1.00
C328   C     0.45946   0.89828   0.00826   0.00000  Uiso   1.00
H329   H     0.51026   0.87861   0.19224   0.00000  Uiso   1.00
H330   H     0.53808   0.86357   0.06143   0.00000  Uiso   1.00
N331   N     0.47827   0.81890   0.15695   0.00000  Uiso   1.00
N332   N     0.52173   0.84777   0.17638   0.00000  Uiso   1.00
O333   O     0.63102   0.91296   0.16905   0.00000  Uiso   1.00
O334   O     0.39075   0.90371   0.16282   0.00000  Uiso   1.00
O335   O     0.64823   0.84024   0.22253   0.00000  Uiso   1.00
O336   O     0.40796   0.83099   0.21631   0.00000  Uiso   1.00
O337   O     0.60925   0.76296   0.17051   0.00000  Uiso   1.00
O338   O     0.36898   0.75371   0.16428   0.00000  Uiso   1.00
O339   O     0.59204   0.83567   0.11703   0.00000  Uiso   1.00
O340   O     0.35177   0.82642   0.11080   0.00000  Uiso   1.00
Zn341  Zn    0.60453   0.83951   0.17082   0.00000  Uiso   1.00
Zn342  Zn    0.39547   0.82716   0.16251   0.00000  Uiso   1.00
I343   I     0.38310   0.75973   0.04306   0.00000  Uiso   1.00
H344   H     0.60161   0.99637   0.17078   0.00000  Uiso   1.00
I345   I     0.49131   0.75022   0.12771   0.00000  Uiso   1.00
I346   I     0.53562   0.70551   0.24801   0.00000  Uiso   1.00
H347   H     0.62382   0.74916   0.30900   0.00000  Uiso   1.00
I348   I     0.61986   0.91652   0.28287   0.00000  Uiso   1.00
I349   I     0.51607   0.96120   0.03976   0.00000  Uiso   1.00
H350   H     0.38947   0.94583   0.01094   0.00000  Uiso   1.00
H351   H     0.42746   0.75637   0.25314   0.00000  Uiso   1.00
H352   H     0.39869   0.67037   0.16334   0.00000  Uiso   1.00
C353   C     0.68163   0.93157   0.16590   0.00000  Uiso   1.00
C354   C     0.81002   0.85133   0.32530   0.00000  Uiso   1.00
C355   C     0.77302   0.82457   0.29367   0.00000  Uiso   1.00
C356   C     0.86309   0.83066   0.00479   0.00000  Uiso   1.00
C357   C     0.88357   0.79170   0.31547   0.00000  Uiso   1.00
C358   C     0.84644   0.76650   0.28376   0.00000  Uiso   1.00
C359   C     0.79026   0.77975   0.27556   0.00000  Uiso   1.00
C360   C     0.89253   0.84286   0.04157   0.00000  Uiso   1.00
C361   C     0.97013   0.79188   0.02964   0.00000  Uiso   1.00
C362   C     0.72134   0.84534   0.27833   0.00000  Uiso   1.00
C363   C     0.68942   0.98629   0.16569   0.00000  Uiso   1.00
C364   C     0.70190   0.83710   0.23715   0.00000  Uiso   1.00
C365   C     0.97752   0.68045   0.16834   0.00000  Uiso   1.00
C366   C     0.98515   0.73513   0.16771   0.00000  Uiso   1.00
C367   C     0.96446   0.82892   0.09612   0.00000  Uiso   1.00
C368   C     0.93896   0.77608   0.32693   0.00000  Uiso   1.00
C369   C     0.94475   0.82279   0.05492   0.00000  Uiso   1.00
C370   C     0.70035   0.88535   0.29936   0.00000  Uiso   1.00
C371   C     0.73654   0.91141   0.33073   0.00000  Uiso   1.00
C372   C     0.79280   0.89828   0.00826   0.00000  Uiso   1.00
H373   H     0.84359   0.87861   0.19224   0.00000  Uiso   1.00
H374   H     0.87141   0.86357   0.06143   0.00000  Uiso   1.00
N375   N     0.81160   0.81890   0.15695   0.00000  Uiso   1.00
N376   N     0.85507   0.84777   0.17638   0.00000  Uiso   1.00
O377   O     0.96435   0.91296   0.16905   0.00000  Uiso   1.00
O378   O     0.72408   0.90371   0.16282   0.00000  Uiso   1.00
O379   O     0.98157   0.84024   0.22253   0.00000  Uiso   1.00
O380   O     0.74130   0.83099   0.21631   0.00000  Uiso   1.00
O381   O     0.94258   0.76296   0.17051   0.00000  Uiso   1.00
O382   O     0.70231   0.75371   0.16428   0.00000  Uiso   1.00
O383   O     0.92537   0.83567   0.11703   0.00000  Uiso   1.00
O384   O     0.68510   0.82642   0.11080   0.00000  Uiso   1.00
Zn385  Zn    0.93786   0.83951   0.17082   0.00000  Uiso   1.00
Zn386  Zn    0.72881   0.82716   0.16251   0.00000  Uiso   1.00
I387   I     0.71643   0.75973   0.04306   0.00000  Uiso   1.00
H388   H     0.93494   0.99637   0.17078   0.00000  Uiso   1.00
I389   I     0.82465   0.75022   0.12771   0.00000  Uiso   1.00
I390   I     0.86895   0.70551   0.24801   0.00000  Uiso   1.00
H391   H     0.95716   0.74916   0.30900   0.00000  Uiso   1.00
I392   I     0.95319   0.91652   0.28287   0.00000  Uiso   1.00
I393   I     0.84941   0.96120   0.03976   0.00000  Uiso   1.00
H394   H     0.72280   0.94583   0.01094   0.00000  Uiso   1.00
H395   H     0.76079   0.75637   0.25314   0.00000  Uiso   1.00
H396   H     0.73202   0.67037   0.16334   0.00000  Uiso   1.00
C397   C     0.01497   0.26490   0.49923   0.00000  Uiso   1.00
C398   C     0.14335   0.18467   0.65863   0.00000  Uiso   1.00
C399   C     0.10635   0.15791   0.62700   0.00000  Uiso   1.00
C400   C     0.19642   0.16399   0.33812   0.00000  Uiso   1.00
C401   C     0.21690   0.12503   0.64880   0.00000  Uiso   1.00
C402   C     0.17977   0.09983   0.61710   0.00000  Uiso   1.00
C403   C     0.12359   0.11308   0.60889   0.00000  Uiso   1.00
C404   C     0.22587   0.17619   0.37491   0.00000  Uiso   1.00
C405   C     0.30346   0.12521   0.36298   0.00000  Uiso   1.00
C406   C     0.05467   0.17868   0.61166   0.00000  Uiso   1.00
C407   C     0.02276   0.31962   0.49903   0.00000  Uiso   1.00
C408   C     0.03523   0.17043   0.57048   0.00000  Uiso   1.00
C409   C     0.31086   0.01379   0.50167   0.00000  Uiso   1.00
C410   C     0.31849   0.06846   0.50104   0.00000  Uiso   1.00
C411   C     0.29780   0.16226   0.42946   0.00000  Uiso   1.00
C412   C     0.27229   0.10941   0.66026   0.00000  Uiso   1.00
C413   C     0.27808   0.15613   0.38825   0.00000  Uiso   1.00
C414   C     0.03369   0.21868   0.63269   0.00000  Uiso   1.00
C415   C     0.06987   0.24475   0.66406   0.00000  Uiso   1.00
C416   C     0.12613   0.23162   0.34160   0.00000  Uiso   1.00
H417   H     0.17693   0.21194   0.52558   0.00000  Uiso   1.00
H418   H     0.20474   0.19691   0.39476   0.00000  Uiso   1.00
N419   N     0.14493   0.15223   0.49028   0.00000  Uiso   1.00
N420   N     0.18840   0.18110   0.50972   0.00000  Uiso   1.00
O421   O     0.29769   0.24629   0.50238   0.00000  Uiso   1.00
O422   O     0.05742   0.23704   0.49616   0.00000  Uiso   1.00
O423   O     0.31490   0.17358   0.55587   0.00000  Uiso   1.00
O424   O     0.07463   0.16433   0.54964   0.00000  Uiso   1.00
O425   O     0.27592   0.09629   0.50384   0.00000  Uiso   1.00
O426   O     0.03565   0.08704   0.49762   0.00000  Uiso   1.00
O427   O     0.25870   0.16901   0.45036   0.00000  Uiso   1.00
O428   O     0.01843   0.15976   0.44413   0.00000  Uiso   1.00
Zn429  Zn    0.27119   0.17284   0.50416   0.00000  Uiso   1.00
Zn430  Zn    0.06214   0.16049   0.49584   0.00000  Uiso   1.00
I431   I     0.04976   0.09306   0.37639   0.00000  Uiso   1.00
H432   H     0.26828   0.32970   0.50411   0.00000  Uiso   1.00
I433   I     0.15798   0.08355   0.46104   0.00000  Uiso   1.00
I434   I     0.20228   0.03885   0.58135   0.00000  Uiso   1.00
H435   H     0.29049   0.08250   0.64233   0.00000  Uiso   1.00
I436   I     0.28653   0.24985   0.61620   0.00000  Uiso   1.00
I437   I     0.18274   0.29453   0.37309   0.00000  Uiso   1.00
H438   H     0.05613   0.27916   0.34427   0.00000  Uiso   1.00
H439   H     0.09413   0.08970   0.58648   0.00000  Uiso   1.00
H440   H     0.06536   0.00370   0.49668   0.00000  Uiso   1.00
C441   C     0.34830   0.26490   0.49923   0.00000  Uiso   1.00
C442   C     0.47669   0.18467   0.65863   0.00000  Uiso   1.00
C443   C     0.43969   0.15791   0.62700   0.00000  Uiso   1.00
C444   C     0.52975   0.16399   0.33812   0.00000  Uiso   1.00
C445   C     0.55024   0.12503   0.64880   0.00000  Uiso   1.00
C446   C     0.51311   0.09983   0.61710   0.00000  Uiso   1.00
C447   C     0.45693   0.11308   0.60889   0.00000  Uiso   1.00
C448   C     0.55920   0.17619   0.37491   0.00000  Uiso   1.00
C449   C     0.63680   0.12521   0.36298   0.00000  Uiso   1.00
C450   C     0.38800   0.17868   0.61166   0.00000  Uiso   1.00
C451   C     0.35609   0.31962   0.49903   0.00000  Uiso   1.00
C452   C     0.36856   0.17043   0.57048   0.00000  Uiso   1.00
C453   C     0.64419   0.01379   0.50167   0.00000  Uiso   1.00
C454   C     0.65182   0.06846   0.50104   0.00000  Uiso   1.00
C455   C     0.63113   0.16226   0.42946   0.00000  Uiso   1.00
C456   C     0.60562   0.10941   0.66026   0.00000  Uiso   1.00
C457   C     0.61141   0.15613   0.38825   0.00000  Uiso   1.00
C458   C     0.36702   0.21868   0.63269   0.00000  Uiso   1.00
C459   C     0.40321   0.24475   0.66406   0.00000  Uiso   1.00
C460   C     0.45946   0.23162   0.34160   0.00000  Uiso   1.00
H461   H     0.51026   0.21194   0.52558   0.00000  Uiso   1.00
H462   H     0.53808   0.19691   0.39476   0.00000  Uiso   1.00
N463   N     0.47827   0.15223   0.49028   0.00000  Uiso   1.00
N464   N     0.52173   0.18110   0.50972   0.00000  Uiso   1.00
O465   O     0.63102   0.24629   0.50238   0.00000  Uiso   1.00
O466   O     0.39075   0.23704   0.49616   0.00000  Uiso   1.00
O467   O     0.64823   0.17358   0.55587   0.00000  Uiso   1.00
O468   O     0.40796   0.16433   0.54964   0.00000  Uiso   1.00
O469   O     0.60925   0.09629   0.50384   0.00000  Uiso   1.00
O470   O     0.36898   0.08704   0.49762   0.00000  Uiso   1.00
O471   O     0.59204   0.16901   0.45036   0.00000  Uiso   1.00
O472   O     0.35177   0.15976   0.44413   0.00000  Uiso   1.00
Zn473  Zn    0.60453   0.17284   0.50416   0.00000  Uiso   1.00
Zn474  Zn    0.39547   0.16049   0.49584   0.00000  Uiso   1.00
I475   I     0.38310   0.09306   0.37639   0.00000  Uiso   1.00
H476   H     0.60161   0.32970   0.50411   0.00000  Uiso   1.00
I477   I     0.49131   0.08355   0.46104   0.00000  Uiso   1.00
I478   I     0.53562   0.03885   0.58135   0.00000  Uiso   1.00
H479   H     0.62382   0.08250   0.64233   0.00000  Uiso   1.00
I480   I     0.61986   0.24985   0.61620   0.00000  Uiso   1.00
I481   I     0.51607   0.29453   0.37309   0.00000  Uiso   1.00
H482   H     0.38947   0.27916   0.34427   0.00000  Uiso   1.00
H483   H     0.42746   0.08970   0.58648   0.00000  Uiso   1.00
H484   H     0.39869   0.00370   0.49668   0.00000  Uiso   1.00
C485   C     0.68163   0.26490   0.49923   0.00000  Uiso   1.00
C486   C     0.81002   0.18467   0.65863   0.00000  Uiso   1.00
C487   C     0.77302   0.15791   0.62700   0.00000  Uiso   1.00
C488   C     0.86309   0.16399   0.33812   0.00000  Uiso   1.00
C489   C     0.88357   0.12503   0.64880   0.00000  Uiso   1.00
C490   C     0.84644   0.09983   0.61710   0.00000  Uiso   1.00
C491   C     0.79026   0.11308   0.60889   0.00000  Uiso   1.00
C492   C     0.89253   0.17619   0.37491   0.00000  Uiso   1.00
C493   C     0.97013   0.12521   0.36298   0.00000  Uiso   1.00
C494   C     0.72134   0.17868   0.61166   0.00000  Uiso   1.00
C495   C     0.68942   0.31962   0.49903   0.00000  Uiso   1.00
C496   C     0.70190   0.17043   0.57048   0.00000  Uiso   1.00
C497   C     0.97752   0.01379   0.50167   0.00000  Uiso   1.00
C498   C     0.98515   0.06846   0.50104   0.00000  Uiso   1.00
C499   C     0.96446   0.16226   0.42946   0.00000  Uiso   1.00
C500   C     0.93896   0.10941   0.66026   0.00000  Uiso   1.00
C501   C     0.94475   0.15613   0.38825   0.00000  Uiso   1.00
C502   C     0.70035   0.21868   0.63269   0.00000  Uiso   1.00
C503   C     0.73654   0.24475   0.66406   0.00000  Uiso   1.00
C504   C     0.79280   0.23162   0.34160   0.00000  Uiso   1.00
H505   H     0.84359   0.21194   0.52558   0.00000  Uiso   1.00
H506   H     0.87141   0.19691   0.39476   0.00000  Uiso   1.00
N507   N     0.81160   0.15223   0.49028   0.00000  Uiso   1.00
N508   N     0.85507   0.18110   0.50972   0.00000  Uiso   1.00
O509   O     0.96435   0.24629   0.50238   0.00000  Uiso   1.00
O510   O     0.72408   0.23704   0.49616   0.00000  Uiso   1.00
O511   O     0.98157   0.17358   0.55587   0.00000  Uiso   1.00
O512   O     0.74130   0.16433   0.54964   0.00000  Uiso   1.00
O513   O     0.94258   0.09629   0.50384   0.00000  Uiso   1.00
O514   O     0.70231   0.08704   0.49762   0.00000  Uiso   1.00
O515   O     0.92537   0.16901   0.45036   0.00000  Uiso   1.00
O516   O     0.68510   0.15976   0.44413   0.00000  Uiso   1.00
Zn517  Zn    0.93786   0.17284   0.50416   0.00000  Uiso   1.00
Zn518  Zn    0.72881   0.16049   0.49584   0.00000  Uiso   1.00
I519   I     0.71643   0.09306   0.37639   0.00000  Uiso   1.00
H520   H     0.93494   0.32970   0.50411   0.00000  Uiso   1.00
I521   I     0.82465   0.08355   0.46104   0.00000  Uiso   1.00
I522   I     0.86895   0.03885   0.58135   0.00000  Uiso   1.00
H523   H     0.95716   0.08250   0.64233   0.00000  Uiso   1.00
I524   I     0.95319   0.24985   0.61620   0.00000  Uiso   1.00
I525   I     0.84941   0.29453   0.37309   0.00000  Uiso   1.00
H526   H     0.72280   0.27916   0.34427   0.00000  Uiso   1.00
H527   H     0.76079   0.08970   0.58648   0.00000  Uiso   1.00
H528   H     0.73202   0.00370   0.49668   0.00000  Uiso   1.00
C529   C     0.01497   0.59824   0.49923   0.00000  Uiso   1.00
C530   C     0.14335   0.51800   0.65863   0.00000  Uiso   1.00
C531   C     0.10635   0.49124   0.62700   0.00000  Uiso   1.00
C532   C     0.19642   0.49733   0.33812   0.00000  Uiso   1.00
C533   C     0.21690   0.45837   0.64880   0.00000  Uiso   1.00
C534   C     0.17977   0.43317   0.61710   0.00000  Uiso   1.00
C535   C     0.12359   0.44642   0.60889   0.00000  Uiso   1.00
C536   C     0.22587   0.50952   0.37491   0.00000  Uiso   1.00
C537   C     0.30346   0.45854   0.36298   0.00000  Uiso   1.00
C538   C     0.05467   0.51201   0.61166   0.00000  Uiso   1.00
C539   C     0.02276   0.65295   0.49903   0.00000  Uiso   1.00
C540   C     0.03523   0.50376   0.57048   0.00000  Uiso   1.00
C541   C     0.31086   0.34712   0.50167   0.00000  Uiso   1.00
C542   C     0.31849   0.40179   0.50104   0.00000  Uiso   1.00
C543   C     0.29780   0.49559   0.42946   0.00000  Uiso   1.00
C544   C     0.27229   0.44275   0.66026   0.00000  Uiso   1.00
C545   C     0.27808   0.48946   0.38825   0.00000  Uiso   1.00
C546   C     0.03369   0.55201   0.63269   0.00000  Uiso   1.00
C547   C     0.06987   0.57808   0.66406   0.00000  Uiso   1.00
C548   C     0.12613   0.56495   0.34160   0.00000  Uiso   1.00
H549   H     0.17693   0.54528   0.52558   0.00000  Uiso   1.00
H550   H     0.20474   0.53024   0.39476   0.00000  Uiso   1.00
N551   N     0.14493   0.48556   0.49028   0.00000  Uiso   1.00
N552   N     0.18840   0.51444   0.50972   0.00000  Uiso   1.00
O553   O     0.29769   0.57963   0.50238   0.00000  Uiso   1.00
O554   O     0.05742   0.57038   0.49616   0.00000  Uiso   1.00
O555   O     0.31490   0.50691   0.55587   0.00000  Uiso   1.00
O556   O     0.07463   0.49766   0.54964   0.00000  Uiso   1.00
O557   O     0.27592   0.42962   0.50384   0.00000  Uiso   1.00
O558   O     0.03565   0.42037   0.49762   0.00000  Uiso   1.00
O559   O     0.25870   0.50234   0.45036   0.00000  Uiso   1.00
O560   O     0.01843   0.49309   0.44413   0.00000  Uiso   1.00
Zn561  Zn    0.27119   0.50618   0.50416   0.00000  Uiso   1.00
Zn562  Zn    0.06214   0.49382   0.49584   0.00000  Uiso   1.00
I563   I     0.04976   0.42640   0.37639   0.00000  Uiso   1.00
H564   H     0.26828   0.66303   0.50411   0.00000  Uiso   1.00
I565   I     0.15798   0.41689   0.46104   0.00000  Uiso   1.00
I566   I     0.20228   0.37218   0.58135   0.00000  Uiso   1.00
H567   H     0.29049   0.41583   0.64233   0.00000  Uiso   1.00
I568   I     0.28653   0.58319   0.61620   0.00000  Uiso   1.00
I569   I     0.18274   0.62786   0.37309   0.00000  Uiso   1.00
H570   H     0.05613   0.61249   0.34427   0.00000  Uiso   1.00
H571   H     0.09413   0.42304   0.58648   0.00000  Uiso   1.00
H572   H     0.06536   0.33704   0.49668   0.00000  Uiso   1.00
C573   C     0.34830   0.59824   0.49923   0.00000  Uiso   1.00
C574   C     0.47669   0.51800   0.65863   0.00000  Uiso   1.00
C575   C     0.43969   0.49124   0.62700   0.00000  Uiso   1.00
C576   C     0.52975   0.49733   0.33812   0.00000  Uiso   1.00
C577   C     0.55024   0.45837   0.64880   0.00000  Uiso   1.00
C578   C     0.51311   0.43317   0.61710   0.00000  Uiso   1.00
C579   C     0.45693   0.44642   0.60889   0.00000  Uiso   1.00
C580   C     0.55920   0.50952   0.37491   0.00000  Uiso   1.00
C581   C     0.63680   0.45854   0.36298   0.00000  Uiso   1.00
C582   C     0.38800   0.51201   0.61166   0.00000  Uiso   1.00
C583   C     0.35609   0.65295   0.49903   0.00000  Uiso   1.00
C584   C     0.36856   0.50376   0.57048   0.00000  Uiso   1.00
C585   C     0.64419   0.34712   0.50167   0.00000  Uiso   1.00
C586   C     0.65182   0.40179   0.50104   0.00000  Uiso   1.00
C587   C     0.63113   0.49559   0.42946   0.00000  Uiso   1.00
C588   C     0.60562   0.44275   0.66026   0.00000  Uiso   1.00
C589   C     0.61141   0.48946   0.38825   0.00000  Uiso   1.00
C590   C     0.36702   0.55201   0.63269   0.00000  Uiso   1.00
C591   C     0.40321   0.57808   0.66406   0.00000  Uiso   1.00
C592   C     0.45946   0.56495   0.34160   0.00000  Uiso   1.00
H593   H     0.51026   0.54528   0.52558   0.00000  Uiso   1.00
H594   H     0.53808   0.53024   0.39476   0.00000  Uiso   1.00
N595   N     0.47827   0.48556   0.49028   0.00000  Uiso   1.00
N596   N     0.52173   0.51444   0.50972   0.00000  Uiso   1.00
O597   O     0.63102   0.57963   0.50238   0.00000  Uiso   1.00
O598   O     0.39075   0.57038   0.49616   0.00000  Uiso   1.00
O599   O     0.64823   0.50691   0.55587   0.00000  Uiso   1.00
O600   O     0.40796   0.49766   0.54964   0.00000  Uiso   1.00
O601   O     0.60925   0.42962   0.50384   0.00000  Uiso   1.00
O602   O     0.36898   0.42037   0.49762   0.00000  Uiso   1.00
O603   O     0.59204   0.50234   0.45036   0.00000  Uiso   1.00
O604   O     0.35177   0.49309   0.44413   0.00000  Uiso   1.00
Zn605  Zn    0.60453   0.50618   0.50416   0.00000  Uiso   1.00
Zn606  Zn    0.39547   0.49382   0.49584   0.00000  Uiso   1.00
I607   I     0.38310   0.42640   0.37639   0.00000  Uiso   1.00
H608   H     0.60161   0.66303   0.50411   0.00000  Uiso   1.00
I609   I     0.49131   0.41689   0.46104   0.00000  Uiso   1.00
I610   I     0.53562   0.37218   0.58135   0.00000  Uiso   1.00
H611   H     0.62382   0.41583   0.64233   0.00000  Uiso   1.00
I612   I     0.61986   0.58319   0.61620   0.00000  Uiso   1.00
I613   I     0.51607   0.62786   0.37309   0.00000  Uiso   1.00
H614   H     0.38947   0.61249   0.34427   0.00000  Uiso   1.00
H615   H     0.42746   0.42304   0.58648   0.00000  Uiso   1.00
H616   H     0.39869   0.33704   0.49668   0.00000  Uiso   1.00
C617   C     0.68163   0.59824   0.49923   0.00000  Uiso   1.00
C618   C     0.81002   0.51800   0.65863   0.00000  Uiso   1.00
C619   C     0.77302   0.49124   0.62700   0.00000  Uiso   1.00
C620   C     0.86309   0.49733   0.33812   0.00000  Uiso   1.00
C621   C     0.88357   0.45837   0.64880   0.00000  Uiso   1.00
C622   C     0.84644   0.43317   0.61710   0.00000  Uiso   1.00
C623   C     0.79026   0.44642   0.60889   0.00000  Uiso   1.00
C624   C     0.89253   0.50952   0.37491   0.00000  Uiso   1.00
C625   C     0.97013   0.45854   0.36298   0.00000  Uiso   1.00
C626   C     0.72134   0.51201   0.61166   0.00000  Uiso   1.00
C627   C     0.68942   0.65295   0.49903   0.00000  Uiso   1.00
C628   C     0.70190   0.50376   0.57048   0.00000  Uiso   1.00
C629   C     0.97752   0.34712   0.50167   0.00000  Uiso   1.00
C630   C     0.98515   0.40179   0.50104   0.00000  Uiso   1.00
C631   C     0.96446   0.49559   0.42946   0.00000  Uiso   1.00
C632   C     0.93896   0.44275   0.66026   0.00000  Uiso   1.00
C633   C     0.94475   0.48946   0.38825   0.00000  Uiso   1.00
C634   C     0.70035   0.55201   0.63269   0.00000  Uiso   1.00
C635   C     0.73654   0.57808   0.66406   0.00000  Uiso   1.00
C636   C     0.79280   0.56495   0.34160   0.00000  Uiso   1.00
H637   H     0.84359   0.54528   0.52558   0.00000  Uiso   1.00
H638   H     0.87141   0.53024   0.39476   0.00000  Uiso   1.00
N639   N     0.81160   0.48556   0.49028   0.00000  Uiso   1.00
N640   N     0.85507   0.51444   0.50972   0.00000  Uiso   1.00
O641   O     0.96435   0.57963   0.50238   0.00000  Uiso   1.00
O642   O     0.72408   0.57038   0.49616   0.00000  Uiso   1.00
O643   O     0.98157   0.50691   0.55587   0.00000  Uiso   1.00
O644   O     0.74130   0.49766   0.54964   0.00000  Uiso   1.00
O645   O     0.94258   0.42962   0.50384   0.00000  Uiso   1.00
O646   O     0.70231   0.42037   0.49762   0.00000  Uiso   1.00
O647   O     0.92537   0.50234   0.45036   0.00000  Uiso   1.00
O648   O     0.68510   0.49309   0.44413   0.00000  Uiso   1.00
Zn649  Zn    0.93786   0.50618   0.50416   0.00000  Uiso   1.00
Zn650  Zn    0.72881   0.49382   0.49584   0.00000  Uiso   1.00
I651   I     0.71643   0.42640   0.37639   0.00000  Uiso   1.00
H652   H     0.93494   0.66303   0.50411   0.00000  Uiso   1.00
I653   I     0.82465   0.41689   0.46104   0.00000  Uiso   1.00
I654   I     0.86895   0.37218   0.58135   0.00000  Uiso   1.00
H655   H     0.95716   0.41583   0.64233   0.00000  Uiso   1.00
I656   I     0.95319   0.58319   0.61620   0.00000  Uiso   1.00
I657   I     0.84941   0.62786   0.37309   0.00000  Uiso   1.00
H658   H     0.72280   0.61249   0.34427   0.00000  Uiso   1.00
H659   H     0.76079   0.42304   0.58648   0.00000  Uiso   1.00
H660   H     0.73202   0.33704   0.49668   0.00000  Uiso   1.00
C661   C     0.01497   0.93157   0.49923   0.00000  Uiso   1.00
C662   C     0.14335   0.85133   0.65863   0.00000  Uiso   1.00
C663   C     0.10635   0.82457   0.62700   0.00000  Uiso   1.00
C664   C     0.19642   0.83066   0.33812   0.00000  Uiso   1.00
C665   C     0.21690   0.79170   0.64880   0.00000  Uiso   1.00
C666   C     0.17977   0.76650   0.61710   0.00000  Uiso   1.00
C667   C     0.12359   0.77975   0.60889   0.00000  Uiso   1.00
C668   C     0.22587   0.84286   0.37491   0.00000  Uiso   1.00
C669   C     0.30346   0.79188   0.36298   0.00000  Uiso   1.00
C670   C     0.05467   0.84534   0.61166   0.00000  Uiso   1.00
C671   C     0.02276   0.98629   0.49903   0.00000  Uiso   1.00
C672   C     0.03523   0.83710   0.57048   0.00000  Uiso   1.00
C673   C     0.31086   0.68045   0.50167   0.00000  Uiso   1.00
C674   C     0.31849   0.73513   0.50104   0.00000  Uiso   1.00
C675   C     0.29780   0.82892   0.42946   0.00000  Uiso   1.00
C676   C     0.27229   0.77608   0.66026   0.00000  Uiso   1.00
C677   C     0.27808   0.82279   0.38825   0.00000  Uiso   1.00
C678   C     0.03369   0.88535   0.63269   0.00000  Uiso   1.00
C679   C     0.06987   0.91141   0.66406   0.00000  Uiso   1.00
C680   C     0.12613   0.89828   0.34160   0.00000  Uiso   1.00
H681   H     0.17693   0.87861   0.52558   0.00000  Uiso   1.00
H682   H     0.20474   0.86357   0.39476   0.00000  Uiso   1.00
N683   N     0.14493   0.81890   0.49028   0.00000  Uiso   1.00
N684   N     0.18840   0.84777   0.50972   0.00000  Uiso   1.00
O685   O     0.29769   0.91296   0.50238   0.00000  Uiso   1.00
O686   O     0.05742   0.90371   0.49616   0.00000  Uiso   1.00
O687   O     0.31490   0.84024   0.55587   0.00000  Uiso   1.00
O688   O     0.07463   0.83099   0.54964   0.00000  Uiso   1.00
O689   O     0.27592   0.76296   0.50384   0.00000  Uiso   1.00
O690   O     0.03565   0.75371   0.49762   0.00000  Uiso   1.00
O691   O     0.25870   0.83567   0.45036   0.00000  Uiso   1.00
O692   O     0.01843   0.82642   0.44413   0.00000  Uiso   1.00
Zn693  Zn    0.27119   0.83951   0.50416   0.00000  Uiso   1.00
Zn694  Zn    0.06214   0.82716   0.49584   0.00000  Uiso   1.00
I695   I     0.04976   0.75973   0.37639   0.00000  Uiso   1.00
H696   H     0.26828   0.99637   0.50411   0.00000  Uiso   1.00
I697   I     0.15798   0.75022   0.46104   0.00000  Uiso   1.00
I698   I     0.20228   0.70551   0.58135   0.00000  Uiso   1.00
H699   H     0.29049   0.74916   0.64233   0.00000  Uiso   1.00
I700   I     0.28653   0.91652   0.61620   0.00000  Uiso   1.00
I701   I     0.18274   0.96120   0.37309   0.00000  Uiso   1.00
H702   H     0.05613   0.94583   0.34427   0.00000  Uiso   1.00
H703   H     0.09413   0.75637   0.58648   0.00000  Uiso   1.00
H704   H     0.06536   0.67037   0.49668   0.00000  Uiso   1.00
C705   C     0.34830   0.93157   0.49923   0.00000  Uiso   1.00
C706   C     0.47669   0.85133   0.65863   0.00000  Uiso   1.00
C707   C     0.43969   0.82457   0.62700   0.00000  Uiso   1.00
C708   C     0.52975   0.83066   0.33812   0.00000  Uiso   1.00
C709   C     0.55024   0.79170   0.64880   0.00000  Uiso   1.00
C710   C     0.51311   0.76650   0.61710   0.00000  Uiso   1.00
C711   C     0.45693   0.77975   0.60889   0.00000  Uiso   1.00
C712   C     0.55920   0.84286   0.37491   0.00000  Uiso   1.00
C713   C     0.63680   0.79188   0.36298   0.00000  Uiso   1.00
C714   C     0.38800   0.84534   0.61166   0.00000  Uiso   1.00
C715   C     0.35609   0.98629   0.49903   0.00000  Uiso   1.00
C716   C     0.36856   0.83710   0.57048   0.00000  Uiso   1.00
C717   C     0.64419   0.68045   0.50167   0.00000  Uiso   1.00
C718   C     0.65182   0.73513   0.50104   0.00000  Uiso   1.00
C719   C     0.63113   0.82892   0.42946   0.00000  Uiso   1.00
C720   C     0.60562   0.77608   0.66026   0.00000  Uiso   1.00
C721   C     0.61141   0.82279   0.38825   0.00000  Uiso   1.00
C722   C     0.36702   0.88535   0.63269   0.00000  Uiso   1.00
C723   C     0.40321   0.91141   0.66406   0.00000  Uiso   1.00
C724   C     0.45946   0.89828   0.34160   0.00000  Uiso   1.00
H725   H     0.51026   0.87861   0.52558   0.00000  Uiso   1.00
H726   H     0.53808   0.86357   0.39476   0.00000  Uiso   1.00
N727   N     0.47827   0.81890   0.49028   0.00000  Uiso   1.00
N728   N     0.52173   0.84777   0.50972   0.00000  Uiso   1.00
O729   O     0.63102   0.91296   0.50238   0.00000  Uiso   1.00
O730   O     0.39075   0.90371   0.49616   0.00000  Uiso   1.00
O731   O     0.64823   0.84024   0.55587   0.00000  Uiso   1.00
O732   O     0.40796   0.83099   0.54964   0.00000  Uiso   1.00
O733   O     0.60925   0.76296   0.50384   0.00000  Uiso   1.00
O734   O     0.36898   0.75371   0.49762   0.00000  Uiso   1.00
O735   O     0.59204   0.83567   0.45036   0.00000  Uiso   1.00
O736   O     0.35177   0.82642   0.44413   0.00000  Uiso   1.00
Zn737  Zn    0.60453   0.83951   0.50416   0.00000  Uiso   1.00
Zn738  Zn    0.39547   0.82716   0.49584   0.00000  Uiso   1.00
I739   I     0.38310   0.75973   0.37639   0.00000  Uiso   1.00
H740   H     0.60161   0.99637   0.50411   0.00000  Uiso   1.00
I741   I     0.49131   0.75022   0.46104   0.00000  Uiso   1.00
I742   I     0.53562   0.70551   0.58135   0.00000  Uiso   1.00
H743   H     0.62382   0.74916   0.64233   0.00000  Uiso   1.00
I744   I     0.61986   0.91652   0.61620   0.00000  Uiso   1.00
I745   I     0.51607   0.96120   0.37309   0.00000  Uiso   1.00
H746   H     0.38947   0.94583   0.34427   0.00000  Uiso   1.00
H747   H     0.42746   0.75637   0.58648   0.00000  Uiso   1.00
H748   H     0.39869   0.67037   0.49668   0.00000  Uiso   1.00
C749   C     0.68163   0.93157   0.49923   0.00000  Uiso   1.00
C750   C     0.81002   0.85133   0.65863   0.00000  Uiso   1.00
C751   C     0.77302   0.82457   0.62700   0.00000  Uiso   1.00
C752   C     0.86309   0.83066   0.33812   0.00000  Uiso   1.00
C753   C     0.88357   0.79170   0.64880   0.00000  Uiso   1.00
C754   C     0.84644   0.76650   0.61710   0.00000  Uiso   1.00
C755   C     0.79026   0.77975   0.60889   0.00000  Uiso   1.00
C756   C     0.89253   0.84286   0.37491   0.00000  Uiso   1.00
C757   C     0.97013   0.79188   0.36298   0.00000  Uiso   1.00
C758   C     0.72134   0.84534   0.61166   0.00000  Uiso   1.00
C759   C     0.68942   0.98629   0.49903   0.00000  Uiso   1.00
C760   C     0.70190   0.83710   0.57048   0.00000  Uiso   1.00
C761   C     0.97752   0.68045   0.50167   0.00000  Uiso   1.00
C762   C     0.98515   0.73513   0.50104   0.00000  Uiso   1.00
C763   C     0.96446   0.82892   0.42946   0.00000  Uiso   1.00
C764   C     0.93896   0.77608   0.66026   0.00000  Uiso   1.00
C765   C     0.94475   0.82279   0.38825   0.00000  Uiso   1.00
C766   C     0.70035   0.88535   0.63269   0.00000  Uiso   1.00
C767   C     0.73654   0.91141   0.66406   0.00000  Uiso   1.00
C768   C     0.79280   0.89828   0.34160   0.00000  Uiso   1.00
H769   H     0.84359   0.87861   0.52558   0.00000  Uiso   1.00
H770   H     0.87141   0.86357   0.39476   0.00000  Uiso   1.00
N771   N     0.81160   0.81890   0.49028   0.00000  Uiso   1.00
N772   N     0.85507   0.84777   0.50972   0.00000  Uiso   1.00
O773   O     0.96435   0.91296   0.50238   0.00000  Uiso   1.00
O774   O     0.72408   0.90371   0.49616   0.00000  Uiso   1.00
O775   O     0.98157   0.84024   0.55587   0.00000  Uiso   1.00
O776   O     0.74130   0.83099   0.54964   0.00000  Uiso   1.00
O777   O     0.94258   0.76296   0.50384   0.00000  Uiso   1.00
O778   O     0.70231   0.75371   0.49762   0.00000  Uiso   1.00
O779   O     0.92537   0.83567   0.45036   0.00000  Uiso   1.00
O780   O     0.68510   0.82642   0.44413   0.00000  Uiso   1.00
Zn781  Zn    0.93786   0.83951   0.50416   0.00000  Uiso   1.00
Zn782  Zn    0.72881   0.82716   0.49584   0.00000  Uiso   1.00
I783   I     0.71643   0.75973   0.37639   0.00000  Uiso   1.00
H784   H     0.93494   0.99637   0.50411   0.00000  Uiso   1.00
I785   I     0.82465   0.75022   0.46104   0.00000  Uiso   1.00
I786   I     0.86895   0.70551   0.58135   0.00000  Uiso   1.00
H787   H     0.95716   0.74916   0.64233   0.00000  Uiso   1.00
I788   I     0.95319   0.91652   0.61620   0.00000  Uiso   1.00
I789   I     0.84941   0.96120   0.37309   0.00000  Uiso   1.00
H790   H     0.72280   0.94583   0.34427   0.00000  Uiso   1.00
H791   H     0.76079   0.75637   0.58648   0.00000  Uiso   1.00
H792   H     0.73202   0.67037   0.49668   0.00000  Uiso   1.00
C793   C     0.01497   0.26490   0.83256   0.00000  Uiso   1.00
C794   C     0.14335   0.18467   0.99196   0.00000  Uiso   1.00
C795   C     0.10635   0.15791   0.96033   0.00000  Uiso   1.00
C796   C     0.19642   0.16399   0.67146   0.00000  Uiso   1.00
C797   C     0.21690   0.12503   0.98214   0.00000  Uiso   1.00
C798   C     0.17977   0.09983   0.95043   0.00000  Uiso   1.00
C799   C     0.12359   0.11308   0.94223   0.00000  Uiso   1.00
C800   C     0.22587   0.17619   0.70824   0.00000  Uiso   1.00
C801   C     0.30346   0.12521   0.69631   0.00000  Uiso   1.00
C802   C     0.05467   0.17868   0.94500   0.00000  Uiso   1.00
C803   C     0.02276   0.31962   0.83236   0.00000  Uiso   1.00
C804   C     0.03523   0.17043   0.90382   0.00000  Uiso   1.00
C805   C     0.31086   0.01379   0.83500   0.00000  Uiso   1.00
C806   C     0.31849   0.06846   0.83438   0.00000  Uiso   1.00
C807   C     0.29780   0.16226   0.76279   0.00000  Uiso   1.00
C808   C     0.27229   0.10941   0.99359   0.00000  Uiso   1.00
C809   C     0.27808   0.15613   0.72158   0.00000  Uiso   1.00
C810   C     0.03369   0.21868   0.96603   0.00000  Uiso   1.00
C811   C     0.06987   0.24475   0.99739   0.00000  Uiso   1.00
C812   C     0.12613   0.23162   0.67493   0.00000  Uiso   1.00
H813   H     0.17693   0.21194   0.85891   0.00000  Uiso   1.00
H814   H     0.20474   0.19691   0.72809   0.00000  Uiso   1.00
N815   N     0.14493   0.15223   0.82362   0.00000  Uiso   1.00
N816   N     0.18840   0.18110   0.84305   0.00000  Uiso   1.00
O817   O     0.29769   0.24629   0.83572   0.00000  Uiso   1.00
O818   O     0.05742   0.23704   0.82949   0.00000  Uiso   1.00
O819   O     0.31490   0.17358   0.88920   0.00000  Uiso   1.00
O820   O     0.07463   0.16433   0.88297   0.00000  Uiso   1.00
O821   O     0.27592   0.09629   0.83718   0.00000  Uiso   1.00
O822   O     0.03565   0.08704   0.83095   0.00000  Uiso   1.00
O823   O     0.25870   0.16901   0.78369   0.00000  Uiso   1.00
O824   O     0.01843   0.15976   0.77747   0.00000  Uiso   1.00
Zn825  Zn    0.27119   0.17284   0.83749   0.00000  Uiso   1.00
Zn826  Zn    0.06214   0.16049   0.82918   0.00000  Uiso   1.00
I827   I     0.04976   0.09306   0.70972   0.00000  Uiso   1.00
H828   H     0.26828   0.32970   0.83744   0.00000  Uiso   1.00
I829   I     0.15798   0.08355   0.79437   0.00000  Uiso   1.00
I830   I     0.20228   0.03885   0.91468   0.00000  Uiso   1.00
H831   H     0.29049   0.08250   0.97566   0.00000  Uiso   1.00
I832   I     0.28653   0.24985   0.94954   0.00000  Uiso   1.00
I833   I     0.18274   0.29453   0.70643   0.00000  Uiso   1.00
H834   H     0.05613   0.27916   0.67761   0.00000  Uiso   1.00
H835   H     0.09413   0.08970   0.91981   0.00000  Uiso   1.00
H836   H     0.06536   0.00370   0.83001   0.00000  Uiso   1.00
C837   C     0.34830   0.26490   0.83256   0.00000  Uiso   1.00
C838   C     0.47669   0.18467   0.99196   0.00000  Uiso   1.00
C839   C     0.43969   0.15791   0.96033   0.00000  Uiso   1.00
C840   C     0.52975   0.16399   0.67146   0.00000  Uiso   1.00
C841   C     0.55024   0.12503   0.98214   0.00000  Uiso   1.00
C842   C     0.51311   0.09983   0.95043   0.00000  Uiso   1.00
C843   C     0.45693   0.11308   0.94223   0.00000  Uiso   1.00
C844   C     0.55920   0.17619   0.70824   0.00000  Uiso   1.00
C845   C     0.63680   0.12521   0.69631   0.00000  Uiso   1.00
C846   C     0.38800   0.17868   0.94500   0.00000  Uiso   1.00
C847   C     0.35609   0.31962   0.83236   0.00000  Uiso   1.00
C848   C     0.36856   0.17043   0.90382   0.00000  Uiso   1.00
C849   C     0.64419   0.01379   0.83500   0.00000  Uiso   1.00
C850   C     0.65182   0.06846   0.83438   0.00000  Uiso   1.00
C851   C     0.63113   0.16226   0.76279   0.00000  Uiso   1.00
C852   C     0.60562   0.10941   0.99359   0.00000  Uiso   1.00
C853   C     0.61141   0.15613   0.72158   0.00000  Uiso   1.00
C854   C     0.36702   0.21868   0.96603   0.00000  Uiso   1.00
C855   C     0.40321   0.24475   0.99739   0.00000  Uiso   1.00
C856   C     0.45946   0.23162   0.67493   0.00000  Uiso   1.00
H857   H     0.51026   0.21194   0.85891   0.00000  Uiso   1.00
H858   H     0.53808   0.19691   0.72809   0.00000  Uiso   1.00
N859   N     0.47827   0.15223   0.82362   0.00000  Uiso   1.00
N860   N     0.52173   0.18110   0.84305   0.00000  Uiso   1.00
O861   O     0.63102   0.24629   0.83572   0.00000  Uiso   1.00
O862   O     0.39075   0.23704   0.82949   0.00000  Uiso   1.00
O863   O     0.64823   0.17358   0.88920   0.00000  Uiso   1.00
O864   O     0.40796   0.16433   0.88297   0.00000  Uiso   1.00
O865   O     0.60925   0.09629   0.83718   0.00000  Uiso   1.00
O866   O     0.36898   0.08704   0.83095   0.00000  Uiso   1.00
O867   O     0.59204   0.16901   0.78369   0.00000  Uiso   1.00
O868   O     0.35177   0.15976   0.77747   0.00000  Uiso   1.00
Zn869  Zn    0.60453   0.17284   0.83749   0.00000  Uiso   1.00
Zn870  Zn    0.39547   0.16049   0.82918   0.00000  Uiso   1.00
I871   I     0.38310   0.09306   0.70972   0.00000  Uiso   1.00
H872   H     0.60161   0.32970   0.83744   0.00000  Uiso   1.00
I873   I     0.49131   0.08355   0.79437   0.00000  Uiso   1.00
I874   I     0.53562   0.03885   0.91468   0.00000  Uiso   1.00
H875   H     0.62382   0.08250   0.97566   0.00000  Uiso   1.00
I876   I     0.61986   0.24985   0.94954   0.00000  Uiso   1.00
I877   I     0.51607   0.29453   0.70643   0.00000  Uiso   1.00
H878   H     0.38947   0.27916   0.67761   0.00000  Uiso   1.00
H879   H     0.42746   0.08970   0.91981   0.00000  Uiso   1.00
H880   H     0.39869   0.00370   0.83001   0.00000  Uiso   1.00
C881   C     0.68163   0.26490   0.83256   0.00000  Uiso   1.00
C882   C     0.81002   0.18467   0.99196   0.00000  Uiso   1.00
C883   C     0.77302   0.15791   0.96033   0.00000  Uiso   1.00
C884   C     0.86309   0.16399   0.67146   0.00000  Uiso   1.00
C885   C     0.88357   0.12503   0.98214   0.00000  Uiso   1.00
C886   C     0.84644   0.09983   0.95043   0.00000  Uiso   1.00
C887   C     0.79026   0.11308   0.94223   0.00000  Uiso   1.00
C888   C     0.89253   0.17619   0.70824   0.00000  Uiso   1.00
C889   C     0.97013   0.12521   0.69631   0.00000  Uiso   1.00
C890   C     0.72134   0.17868   0.94500   0.00000  Uiso   1.00
C891   C     0.68942   0.31962   0.83236   0.00000  Uiso   1.00
C892   C     0.70190   0.17043   0.90382   0.00000  Uiso   1.00
C893   C     0.97752   0.01379   0.83500   0.00000  Uiso   1.00
C894   C     0.98515   0.06846   0.83438   0.00000  Uiso   1.00
C895   C     0.96446   0.16226   0.76279   0.00000  Uiso   1.00
C896   C     0.93896   0.10941   0.99359   0.00000  Uiso   1.00
C897   C     0.94475   0.15613   0.72158   0.00000  Uiso   1.00
C898   C     0.70035   0.21868   0.96603   0.00000  Uiso   1.00
C899   C     0.73654   0.24475   0.99739   0.00000  Uiso   1.00
C900   C     0.79280   0.23162   0.67493   0.00000  Uiso   1.00
H901   H     0.84359   0.21194   0.85891   0.00000  Uiso   1.00
H902   H     0.87141   0.19691   0.72809   0.00000  Uiso   1.00
N903   N     0.81160   0.15223   0.82362   0.00000  Uiso   1.00
N904   N     0.85507   0.18110   0.84305   0.00000  Uiso   1.00
O905   O     0.96435   0.24629   0.83572   0.00000  Uiso   1.00
O906   O     0.72408   0.23704   0.82949   0.00000  Uiso   1.00
O907   O     0.98157   0.17358   0.88920   0.00000  Uiso   1.00
O908   O     0.74130   0.16433   0.88297   0.00000  Uiso   1.00
O909   O     0.94258   0.09629   0.83718   0.00000  Uiso   1.00
O910   O     0.70231   0.08704   0.83095   0.00000  Uiso   1.00
O911   O     0.92537   0.16901   0.78369   0.00000  Uiso   1.00
O912   O     0.68510   0.15976   0.77747   0.00000  Uiso   1.00
Zn913  Zn    0.93786   0.17284   0.83749   0.00000  Uiso   1.00
Zn914  Zn    0.72881   0.16049   0.82918   0.00000  Uiso   1.00
I915   I     0.71643   0.09306   0.70972   0.00000  Uiso   1.00
H916   H     0.93494   0.32970   0.83744   0.00000  Uiso   1.00
I917   I     0.82465   0.08355   0.79437   0.00000  Uiso   1.00
I918   I     0.86895   0.03885   0.91468   0.00000  Uiso   1.00
H919   H     0.95716   0.08250   0.97566   0.00000  Uiso   1.00
I920   I     0.95319   0.24985   0.94954   0.00000  Uiso   1.00
I921   I     0.84941   0.29453   0.70643   0.00000  Uiso   1.00
H922   H     0.72280   0.27916   0.67761   0.00000  Uiso   1.00
H923   H     0.76079   0.08970   0.91981   0.00000  Uiso   1.00
H924   H     0.73202   0.00370   0.83001   0.00000  Uiso   1.00
C925   C     0.01497   0.59824   0.83256   0.00000  Uiso   1.00
C926   C     0.14335   0.51800   0.99196   0.00000  Uiso   1.00
C927   C     0.10635   0.49124   0.96033   0.00000  Uiso   1.00
C928   C     0.19642   0.49733   0.67146   0.00000  Uiso   1.00
C929   C     0.21690   0.45837   0.98214   0.00000  Uiso   1.00
C930   C     0.17977   0.43317   0.95043   0.00000  Uiso   1.00
C931   C     0.12359   0.44642   0.94223   0.00000  Uiso   1.00
C932   C     0.22587   0.50952   0.70824   0.00000  Uiso   1.00
C933   C     0.30346   0.45854   0.69631   0.00000  Uiso   1.00
C934   C     0.05467   0.51201   0.94500   0.00000  Uiso   1.00
C935   C     0.02276   0.65295   0.83236   0.00000  Uiso   1.00
C936   C     0.03523   0.50376   0.90382   0.00000  Uiso   1.00
C937   C     0.31086   0.34712   0.83500   0.00000  Uiso   1.00
C938   C     0.31849   0.40179   0.83438   0.00000  Uiso   1.00
C939   C     0.29780   0.49559   0.76279   0.00000  Uiso   1.00
C940   C     0.27229   0.44275   0.99359   0.00000  Uiso   1.00
C941   C     0.27808   0.48946   0.72158   0.00000  Uiso   1.00
C942   C     0.03369   0.55201   0.96603   0.00000  Uiso   1.00
C943   C     0.06987   0.57808   0.99739   0.00000  Uiso   1.00
C944   C     0.12613   0.56495   0.67493   0.00000  Uiso   1.00
H945   H     0.17693   0.54528   0.85891   0.00000  Uiso   1.00
H946   H     0.20474   0.53024   0.72809   0.00000  Uiso   1.00
N947   N     0.14493   0.48556   0.82362   0.00000  Uiso   1.00
N948   N     0.18840   0.51444   0.84305   0.00000  Uiso   1.00
O949   O     0.29769   0.57963   0.83572   0.00000  Uiso   1.00
O950   O     0.05742   0.57038   0.82949   0.00000  Uiso   1.00
O951   O     0.31490   0.50691   0.88920   0.00000  Uiso   1.00
O952   O     0.07463   0.49766   0.88297   0.00000  Uiso   1.00
O953   O     0.27592   0.42962   0.83718   0.00000  Uiso   1.00
O954   O     0.03565   0.42037   0.83095   0.00000  Uiso   1.00
O955   O     0.25870   0.50234   0.78369   0.00000  Uiso   1.00
O956   O     0.01843   0.49309   0.77747   0.00000  Uiso   1.00
Zn957  Zn    0.27119   0.50618   0.83749   0.00000  Uiso   1.00
Zn958  Zn    0.06214   0.49382   0.82918   0.00000  Uiso   1.00
I959   I     0.04976   0.42640   0.70972   0.00000  Uiso   1.00
H960   H     0.26828   0.66303   0.83744   0.00000  Uiso   1.00
I961   I     0.15798   0.41689   0.79437   0.00000  Uiso   1.00
I962   I     0.20228   0.37218   0.91468   0.00000  Uiso   1.00
H963   H     0.29049   0.41583   0.97566   0.00000  Uiso   1.00
I964   I     0.28653   0.58319   0.94954   0.00000  Uiso   1.00
I965   I     0.18274   0.62786   0.70643   0.00000  Uiso   1.00
H966   H     0.05613   0.61249   0.67761   0.00000  Uiso   1.00
H967   H     0.09413   0.42304   0.91981   0.00000  Uiso   1.00
H968   H     0.06536   0.33704   0.83001   0.00000  Uiso   1.00
C969   C     0.34830   0.59824   0.83256   0.00000  Uiso   1.00
C970   C     0.47669   0.51800   0.99196   0.00000  Uiso   1.00
C971   C     0.43969   0.49124   0.96033   0.00000  Uiso   1.00
C972   C     0.52975   0.49733   0.67146   0.00000  Uiso   1.00
C973   C     0.55024   0.45837   0.98214   0.00000  Uiso   1.00
C974   C     0.51311   0.43317   0.95043   0.00000  Uiso   1.00
C975   C     0.45693   0.44642   0.94223   0.00000  Uiso   1.00
C976   C     0.55920   0.50952   0.70824   0.00000  Uiso   1.00
C977   C     0.63680   0.45854   0.69631   0.00000  Uiso   1.00
C978   C     0.38800   0.51201   0.94500   0.00000  Uiso   1.00
C979   C     0.35609   0.65295   0.83236   0.00000  Uiso   1.00
C980   C     0.36856   0.50376   0.90382   0.00000  Uiso   1.00
C981   C     0.64419   0.34712   0.83500   0.00000  Uiso   1.00
C982   C     0.65182   0.40179   0.83438   0.00000  Uiso   1.00
C983   C     0.63113   0.49559   0.76279   0.00000  Uiso   1.00
C984   C     0.60562   0.44275   0.99359   0.00000  Uiso   1.00
C985   C     0.61141   0.48946   0.72158   0.00000  Uiso   1.00
C986   C     0.36702   0.55201   0.96603   0.00000  Uiso   1.00
C987   C     0.40321   0.57808   0.99739   0.00000  Uiso   1.00
C988   C     0.45946   0.56495   0.67493   0.00000  Uiso   1.00
H989   H     0.51026   0.54528   0.85891   0.00000  Uiso   1.00
H990   H     0.53808   0.53024   0.72809   0.00000  Uiso   1.00
N991   N     0.47827   0.48556   0.82362   0.00000  Uiso   1.00
N992   N     0.52173   0.51444   0.84305   0.00000  Uiso   1.00
O993   O     0.63102   0.57963   0.83572   0.00000  Uiso   1.00
O994   O     0.39075   0.57038   0.82949   0.00000  Uiso   1.00
O995   O     0.64823   0.50691   0.88920   0.00000  Uiso   1.00
O996   O     0.40796   0.49766   0.88297   0.00000  Uiso   1.00
O997   O     0.60925   0.42962   0.83718   0.00000  Uiso   1.00
O998   O     0.36898   0.42037   0.83095   0.00000  Uiso   1.00
O999   O     0.59204   0.50234   0.78369   0.00000  Uiso   1.00
O1000  O     0.35177   0.49309   0.77747   0.00000  Uiso   1.00
Zn1001 Zn    0.60453   0.50618   0.83749   0.00000  Uiso   1.00
Zn1002 Zn    0.39547   0.49382   0.82918   0.00000  Uiso   1.00
I1003  I     0.38310   0.42640   0.70972   0.00000  Uiso   1.00
H1004  H     0.60161   0.66303   0.83744   0.00000  Uiso   1.00
I1005  I     0.49131   0.41689   0.79437   0.00000  Uiso   1.00
I1006  I     0.53562   0.37218   0.91468   0.00000  Uiso   1.00
H1007  H     0.62382   0.41583   0.97566   0.00000  Uiso   1.00
I1008  I     0.61986   0.58319   0.94954   0.00000  Uiso   1.00
I1009  I     0.51607   0.62786   0.70643   0.00000  Uiso   1.00
H1010  H     0.38947   0.61249   0.67761   0.00000  Uiso   1.00
H1011  H     0.42746   0.42304   0.91981   0.00000  Uiso   1.00
H1012  H     0.39869   0.33704   0.83001   0.00000  Uiso   1.00
C1013  C     0.68163   0.59824   0.83256   0.00000  Uiso   1.00
C1014  C     0.81002   0.51800   0.99196   0.00000  Uiso   1.00
C1015  C     0.77302   0.49124   0.96033   0.00000  Uiso   1.00
C1016  C     0.86309   0.49733   0.67146   0.00000  Uiso   1.00
C1017  C     0.88357   0.45837   0.98214   0.00000  Uiso   1.00
C1018  C     0.84644   0.43317   0.95043   0.00000  Uiso   1.00
C1019  C     0.79026   0.44642   0.94223   0.00000  Uiso   1.00
C1020  C     0.89253   0.50952   0.70824   0.00000  Uiso   1.00
C1021  C     0.97013   0.45854   0.69631   0.00000  Uiso   1.00
C1022  C     0.72134   0.51201   0.94500   0.00000  Uiso   1.00
C1023  C     0.68942   0.65295   0.83236   0.00000  Uiso   1.00
C1024  C     0.70190   0.50376   0.90382   0.00000  Uiso   1.00
C1025  C     0.97752   0.34712   0.83500   0.00000  Uiso   1.00
C1026  C     0.98515   0.40179   0.83438   0.00000  Uiso   1.00
C1027  C     0.96446   0.49559   0.76279   0.00000  Uiso   1.00
C1028  C     0.93896   0.44275   0.99359   0.00000  Uiso   1.00
C1029  C     0.94475   0.48946   0.72158   0.00000  Uiso   1.00
C1030  C     0.70035   0.55201   0.96603   0.00000  Uiso   1.00
C1031  C     0.73654   0.57808   0.99739   0.00000  Uiso   1.00
C1032  C     0.79280   0.56495   0.67493   0.00000  Uiso   1.00
H1033  H     0.84359   0.54528   0.85891   0.00000  Uiso   1.00
H1034  H     0.87141   0.53024   0.72809   0.00000  Uiso   1.00
N1035  N     0.81160   0.48556   0.82362   0.00000  Uiso   1.00
N1036  N     0.85507   0.51444   0.84305   0.00000  Uiso   1.00
O1037  O     0.96435   0.57963   0.83572   0.00000  Uiso   1.00
O1038  O     0.72408   0.57038   0.82949   0.00000  Uiso   1.00
O1039  O     0.98157   0.50691   0.88920   0.00000  Uiso   1.00
O1040  O     0.74130   0.49766   0.88297   0.00000  Uiso   1.00
O1041  O     0.94258   0.42962   0.83718   0.00000  Uiso   1.00
O1042  O     0.70231   0.42037   0.83095   0.00000  Uiso   1.00
O1043  O     0.92537   0.50234   0.78369   0.00000  Uiso   1.00
O1044  O     0.68510   0.49309   0.77747   0.00000  Uiso   1.00
Zn1045 Zn    0.93786   0.50618   0.83749   0.00000  Uiso   1.00
Zn1046 Zn    0.72881   0.49382   0.82918   0.00000  Uiso   1.00
I1047  I     0.71643   0.42640   0.70972   0.00000  Uiso   1.00
H1048  H     0.93494   0.66303   0.83744   0.00000  Uiso   1.00
I1049  I     0.82465   0.41689   0.79437   0.00000  Uiso   1.00
I1050  I     0.86895   0.37218   0.91468   0.00000  Uiso   1.00
H1051  H     0.95716   0.41583   0.97566   0.00000  Uiso   1.00
I1052  I     0.95319   0.58319   0.94954   0.00000  Uiso   1.00
I1053  I     0.84941   0.62786   0.70643   0.00000  Uiso   1.00
H1054  H     0.72280   0.61249   0.67761   0.00000  Uiso   1.00
H1055  H     0.76079   0.42304   0.91981   0.00000  Uiso   1.00
H1056  H     0.73202   0.33704   0.83001   0.00000  Uiso   1.00
C1057  C     0.01497   0.93157   0.83256   0.00000  Uiso   1.00
C1058  C     0.14335   0.85133   0.99196   0.00000  Uiso   1.00
C1059  C     0.10635   0.82457   0.96033   0.00000  Uiso   1.00
C1060  C     0.19642   0.83066   0.67146   0.00000  Uiso   1.00
C1061  C     0.21690   0.79170   0.98214   0.00000  Uiso   1.00
C1062  C     0.17977   0.76650   0.95043   0.00000  Uiso   1.00
C1063  C     0.12359   0.77975   0.94223   0.00000  Uiso   1.00
C1064  C     0.22587   0.84286   0.70824   0.00000  Uiso   1.00
C1065  C     0.30346   0.79188   0.69631   0.00000  Uiso   1.00
C1066  C     0.05467   0.84534   0.94500   0.00000  Uiso   1.00
C1067  C     0.02276   0.98629   0.83236   0.00000  Uiso   1.00
C1068  C     0.03523   0.83710   0.90382   0.00000  Uiso   1.00
C1069  C     0.31086   0.68045   0.83500   0.00000  Uiso   1.00
C1070  C     0.31849   0.73513   0.83438   0.00000  Uiso   1.00
C1071  C     0.29780   0.82892   0.76279   0.00000  Uiso   1.00
C1072  C     0.27229   0.77608   0.99359   0.00000  Uiso   1.00
C1073  C     0.27808   0.82279   0.72158   0.00000  Uiso   1.00
C1074  C     0.03369   0.88535   0.96603   0.00000  Uiso   1.00
C1075  C     0.06987   0.91141   0.99739   0.00000  Uiso   1.00
C1076  C     0.12613   0.89828   0.67493   0.00000  Uiso   1.00
H1077  H     0.17693   0.87861   0.85891   0.00000  Uiso   1.00
H1078  H     0.20474   0.86357   0.72809   0.00000  Uiso   1.00
N1079  N     0.14493   0.81890   0.82362   0.00000  Uiso   1.00
N1080  N     0.18840   0.84777   0.84305   0.00000  Uiso   1.00
O1081  O     0.29769   0.91296   0.83572   0.00000  Uiso   1.00
O1082  O     0.05742   0.90371   0.82949   0.00000  Uiso   1.00
O1083  O     0.31490   0.84024   0.88920   0.00000  Uiso   1.00
O1084  O     0.07463   0.83099   0.88297   0.00000  Uiso   1.00
O1085  O     0.27592   0.76296   0.83718   0.00000  Uiso   1.00
O1086  O     0.03565   0.75371   0.83095   0.00000  Uiso   1.00
O1087  O     0.25870   0.83567   0.78369   0.00000  Uiso   1.00
O1088  O     0.01843   0.82642   0.77747   0.00000  Uiso   1.00
Zn1089 Zn    0.27119   0.83951   0.83749   0.00000  Uiso   1.00
Zn1090 Zn    0.06214   0.82716   0.82918   0.00000  Uiso   1.00
I1091  I     0.04976   0.75973   0.70972   0.00000  Uiso   1.00
H1092  H     0.26828   0.99637   0.83744   0.00000  Uiso   1.00
I1093  I     0.15798   0.75022   0.79437   0.00000  Uiso   1.00
I1094  I     0.20228   0.70551   0.91468   0.00000  Uiso   1.00
H1095  H     0.29049   0.74916   0.97566   0.00000  Uiso   1.00
I1096  I     0.28653   0.91652   0.94954   0.00000  Uiso   1.00
I1097  I     0.18274   0.96120   0.70643   0.00000  Uiso   1.00
H1098  H     0.05613   0.94583   0.67761   0.00000  Uiso   1.00
H1099  H     0.09413   0.75637   0.91981   0.00000  Uiso   1.00
H1100  H     0.06536   0.67037   0.83001   0.00000  Uiso   1.00
C1101  C     0.34830   0.93157   0.83256   0.00000  Uiso   1.00
C1102  C     0.47669   0.85133   0.99196   0.00000  Uiso   1.00
C1103  C     0.43969   0.82457   0.96033   0.00000  Uiso   1.00
C1104  C     0.52975   0.83066   0.67146   0.00000  Uiso   1.00
C1105  C     0.55024   0.79170   0.98214   0.00000  Uiso   1.00
C1106  C     0.51311   0.76650   0.95043   0.00000  Uiso   1.00
C1107  C     0.45693   0.77975   0.94223   0.00000  Uiso   1.00
C1108  C     0.55920   0.84286   0.70824   0.00000  Uiso   1.00
C1109  C     0.63680   0.79188   0.69631   0.00000  Uiso   1.00
C1110  C     0.38800   0.84534   0.94500   0.00000  Uiso   1.00
C1111  C     0.35609   0.98629   0.83236   0.00000  Uiso   1.00
C1112  C     0.36856   0.83710   0.90382   0.00000  Uiso   1.00
C1113  C     0.64419   0.68045   0.83500   0.00000  Uiso   1.00
C1114  C     0.65182   0.73513   0.83438   0.00000  Uiso   1.00
C1115  C     0.63113   0.82892   0.76279   0.00000  Uiso   1.00
C1116  C     0.60562   0.77608   0.99359   0.00000  Uiso   1.00
C1117  C     0.61141   0.82279   0.72158   0.00000  Uiso   1.00
C1118  C     0.36702   0.88535   0.96603   0.00000  Uiso   1.00
C1119  C     0.40321   0.91141   0.99739   0.00000  Uiso   1.00
C1120  C     0.45946   0.89828   0.67493   0.00000  Uiso   1.00
H1121  H     0.51026   0.87861   0.85891   0.00000  Uiso   1.00
H1122  H     0.53808   0.86357   0.72809   0.00000  Uiso   1.00
N1123  N     0.47827   0.81890   0.82362   0.00000  Uiso   1.00
N1124  N     0.52173   0.84777   0.84305   0.00000  Uiso   1.00
O1125  O     0.63102   0.91296   0.83572   0.00000  Uiso   1.00
O1126  O     0.39075   0.90371   0.82949   0.00000  Uiso   1.00
O1127  O     0.64823   0.84024   0.88920   0.00000  Uiso   1.00
O1128  O     0.40796   0.83099   0.88297   0.00000  Uiso   1.00
O1129  O     0.60925   0.76296   0.83718   0.00000  Uiso   1.00
O1130  O     0.36898   0.75371   0.83095   0.00000  Uiso   1.00
O1131  O     0.59204   0.83567   0.78369   0.00000  Uiso   1.00
O1132  O     0.35177   0.82642   0.77747   0.00000  Uiso   1.00
Zn1133 Zn    0.60453   0.83951   0.83749   0.00000  Uiso   1.00
Zn1134 Zn    0.39547   0.82716   0.82918   0.00000  Uiso   1.00
I1135  I     0.38310   0.75973   0.70972   0.00000  Uiso   1.00
H1136  H     0.60161   0.99637   0.83744   0.00000  Uiso   1.00
I1137  I     0.49131   0.75022   0.79437   0.00000  Uiso   1.00
I1138  I     0.53562   0.70551   0.91468   0.00000  Uiso   1.00
H1139  H     0.62382   0.74916   0.97566   0.00000  Uiso   1.00
I1140  I     0.61986   0.91652   0.94954   0.00000  Uiso   1.00
I1141  I     0.51607   0.96120   0.70643   0.00000  Uiso   1.00
H1142  H     0.38947   0.94583   0.67761   0.00000  Uiso   1.00
H1143  H     0.42746   0.75637   0.91981   0.00000  Uiso   1.00
H1144  H     0.39869   0.67037   0.83001   0.00000  Uiso   1.00
C1145  C     0.68163   0.93157   0.83256   0.00000  Uiso   1.00
C1146  C     0.81002   0.85133   0.99196   0.00000  Uiso   1.00
C1147  C     0.77302   0.82457   0.96033   0.00000  Uiso   1.00
C1148  C     0.86309   0.83066   0.67146   0.00000  Uiso   1.00
C1149  C     0.88357   0.79170   0.98214   0.00000  Uiso   1.00
C1150  C     0.84644   0.76650   0.95043   0.00000  Uiso   1.00
C1151  C     0.79026   0.77975   0.94223   0.00000  Uiso   1.00
C1152  C     0.89253   0.84286   0.70824   0.00000  Uiso   1.00
C1153  C     0.97013   0.79188   0.69631   0.00000  Uiso   1.00
C1154  C     0.72134   0.84534   0.94500   0.00000  Uiso   1.00
C1155  C     0.68942   0.98629   0.83236   0.00000  Uiso   1.00
C1156  C     0.70190   0.83710   0.90382   0.00000  Uiso   1.00
C1157  C     0.97752   0.68045   0.83500   0.00000  Uiso   1.00
C1158  C     0.98515   0.73513   0.83438   0.00000  Uiso   1.00
C1159  C     0.96446   0.82892   0.76279   0.00000  Uiso   1.00
C1160  C     0.93896   0.77608   0.99359   0.00000  Uiso   1.00
C1161  C     0.94475   0.82279   0.72158   0.00000  Uiso   1.00
C1162  C     0.70035   0.88535   0.96603   0.00000  Uiso   1.00
C1163  C     0.73654   0.91141   0.99739   0.00000  Uiso   1.00
C1164  C     0.79280   0.89828   0.67493   0.00000  Uiso   1.00
H1165  H     0.84359   0.87861   0.85891   0.00000  Uiso   1.00
H1166  H     0.87141   0.86357   0.72809   0.00000  Uiso   1.00
N1167  N     0.81160   0.81890   0.82362   0.00000  Uiso   1.00
N1168  N     0.85507   0.84777   0.84305   0.00000  Uiso   1.00
O1169  O     0.96435   0.91296   0.83572   0.00000  Uiso   1.00
O1170  O     0.72408   0.90371   0.82949   0.00000  Uiso   1.00
O1171  O     0.98157   0.84024   0.88920   0.00000  Uiso   1.00
O1172  O     0.74130   0.83099   0.88297   0.00000  Uiso   1.00
O1173  O     0.94258   0.76296   0.83718   0.00000  Uiso   1.00
O1174  O     0.70231   0.75371   0.83095   0.00000  Uiso   1.00
O1175  O     0.92537   0.83567   0.78369   0.00000  Uiso   1.00
O1176  O     0.68510   0.82642   0.77747   0.00000  Uiso   1.00
Zn1177 Zn    0.93786   0.83951   0.83749   0.00000  Uiso   1.00
Zn1178 Zn    0.72881   0.82716   0.82918   0.00000  Uiso   1.00
I1179  I     0.71643   0.75973   0.70972   0.00000  Uiso   1.00
H1180  H     0.93494   0.99637   0.83744   0.00000  Uiso   1.00
I1181  I     0.82465   0.75022   0.79437   0.00000  Uiso   1.00
I1182  I     0.86895   0.70551   0.91468   0.00000  Uiso   1.00
H1183  H     0.95716   0.74916   0.97566   0.00000  Uiso   1.00
I1184  I     0.95319   0.91652   0.94954   0.00000  Uiso   1.00
I1185  I     0.84941   0.96120   0.70643   0.00000  Uiso   1.00
H1186  H     0.72280   0.94583   0.67761   0.00000  Uiso   1.00
H1187  H     0.76079   0.75637   0.91981   0.00000  Uiso   1.00
H1188  H     0.73202   0.67037   0.83001   0.00000  Uiso   1.00
loop_
_geom_bond_atom_site_label_1
_geom_bond_atom_site_label_2
_geom_bond_distance
_geom_bond_site_symmetry_2
_ccdc_geom_bond_type
C1     C11     1.402   .     S
C1     O26     1.294   .     A
C1     O113    1.278   1_455 S
C2     C3      1.411   .     A
C2     C400    1.414   .     S
C2     C416    1.428   .     S
C3     C10     1.408   .     A
C3     C7      1.411   .     A
C4     C8      1.386   .     A
C4     C794    1.414   1_554 S
C4     C797    1.420   1_554 S
C5     C6      1.399   .     A
C5     C16     1.399   .     A
C5     C400    1.420   .     S
C6     C7      1.383   .     A
C6     I38     2.125   .     S
C7     H43     1.083   .     S
C8     H22     1.078   .     S
C8     C17     1.393   .     A
C9     C17     1.412   .     A
C9     C808    1.393   1_554 S
C9     I79     2.105   .     S
C10    C12     1.467   .     S
C10    C18     1.411   .     A
C11    C233    1.341   1_455 S
C11    H176    1.087   .     S
C12    O28     1.305   .     A
C12    O115    1.296   1_455 S
C13    C14     1.402   .     S
C13    C319    1.341   1_545 S
C13    H300    1.088   1_545 S
C14    O29     1.294   .     A
C14    O74     1.278   .     S
C15    O31     1.303   .     A
C15    C17     1.466   .     S
C15    O76     1.300   .     S
C16    H39     1.081   .     S
C16    C405    1.393   .     S
C18    C19     1.390   .     A
C18    I128    2.125   1_455 S
C19    C416    1.393   .     S
C19    H438    1.083   .     S
C20    I41     2.142   .     S
C20    C794    1.428   1_554 S
C20    C811    1.393   1_554 S
H21    N24     1.029   .     S
N23    N24     1.288   .     D
N23    Zn34    2.027   .     S
N23    I37     2.071   .     S
N24    Zn33    2.027   .     S
O25    Zn33    1.946   .     S
O25    C45     1.278   .     S
O26    Zn34    1.976   .     S
O27    Zn33    1.958   .     S
O27    C56     1.296   .     S
O28    Zn34    1.897   .     S
O29    Zn33    1.976   .     S
O30    Zn34    1.946   .     S
O30    C102    1.278   1_455 S
O31    Zn33    1.897   .     S
O32    Zn34    1.958   .     S
O32    C103    1.300   1_455 S
I35    C97     2.105   1_455 S
H36    C145    1.088   .     S
I40    C62     2.125   .     S
H42    C811    1.083   1_554 S
H44    C275    1.087   1_545 S
C45    C55     1.402   .     S
C45    O70     1.294   .     A
C46    C47     1.411   .     A
C46    C444    1.414   .     S
C46    C460    1.428   .     S
C47    C54     1.408   .     A
C47    C51     1.411   .     A
C48    C52     1.386   .     A
C48    C838    1.414   1_554 S
C48    C841    1.420   1_554 S
C49    C50     1.399   .     A
C49    C60     1.399   .     A
C49    C444    1.420   .     S
C50    C51     1.383   .     A
C50    I82     2.125   .     S
C51    H87     1.083   .     S
C52    H66     1.078   .     S
C52    C61     1.393   .     A
C53    C61     1.412   .     A
C53    C852    1.393   1_554 S
C53    I123    2.105   .     S
C54    C56     1.467   .     S
C54    C62     1.411   .     A
C55    C145    1.341   .     S
C55    H220    1.087   .     S
C56    O72     1.305   .     A
C57    C58     1.402   .     S
C57    C363    1.341   1_545 S
C57    H344    1.088   1_545 S
C58    O73     1.294   .     A
C58    O118    1.278   .     S
C59    O75     1.303   .     A
C59    C61     1.466   .     S
C59    O120    1.300   .     S
C60    H83     1.081   .     S
C60    C449    1.393   .     S
C62    C63     1.390   .     A
C63    C460    1.393   .     S
C63    H482    1.083   .     S
C64    I85     2.142   .     S
C64    C838    1.428   1_554 S
C64    C855    1.393   1_554 S
H65    N68     1.029   .     S
N67    N68     1.288   .     D
N67    Zn78    2.027   .     S
N67    I81     2.071   .     S
N68    Zn77    2.027   .     S
O69    Zn77    1.946   .     S
O69    C89     1.278   .     S
O70    Zn78    1.976   .     S
O71    Zn77    1.958   .     S
O71    C100    1.296   .     S
O72    Zn78    1.897   .     S
O73    Zn77    1.976   .     S
O74    Zn78    1.946   .     S
O75    Zn77    1.897   .     S
O76    Zn78    1.958   .     S
H80    C189    1.088   .     S
I84    C106    2.125   .     S
H86    C855    1.083   1_554 S
H88    C319    1.087   1_545 S
C89    C99     1.402   .     S
C89    O114    1.294   .     A
C90    C91     1.411   .     A
C90    C488    1.414   .     S
C90    C504    1.428   .     S
C91    C98     1.408   .     A
C91    C95     1.411   .     A
C92    C96     1.386   .     A
C92    C882    1.414   1_554 S
C92    C885    1.420   1_554 S
C93    C94     1.399   .     A
C93    C104    1.399   .     A
C93    C488    1.420   .     S
C94    C95     1.383   .     A
C94    I126    2.125   .     S
C95    H131    1.083   .     S
C96    H110    1.078   .     S
C96    C105    1.393   .     A
C97    C105    1.412   .     A
C97    C896    1.393   1_554 S
C97    I35     2.105   1_655 S
C98    C100    1.467   .     S
C98    C106    1.411   .     A
C99    C189    1.341   .     S
C99    H264    1.087   .     S
C100   O116    1.305   .     A
C101   C102    1.402   .     S
C101   C275    1.341   1_645 S
C101   H388    1.088   1_545 S
C102   O117    1.294   .     A
C102   O30     1.278   1_655 S
C103   O119    1.303   .     A
C103   C105    1.466   .     S
C103   O32     1.300   1_655 S
C104   H127    1.081   .     S
C104   C493    1.393   .     S
C106   C107    1.390   .     A
C107   C504    1.393   .     S
C107   H526    1.083   .     S
C108   I129    2.142   .     S
C108   C882    1.428   1_554 S
C108   C899    1.393   1_554 S
H109   N112    1.029   .     S
N111   N112    1.288   .     D
N111   Zn122   2.027   .     S
N111   I125    2.071   .     S
N112   Zn121   2.027   .     S
O113   Zn121   1.946   .     S
O113   C1      1.278   1_655 S
O114   Zn122   1.976   .     S
O115   Zn121   1.958   .     S
O115   C12     1.296   1_655 S
O116   Zn122   1.897   .     S
O117   Zn121   1.976   .     S
O118   Zn122   1.946   .     S
O119   Zn121   1.897   .     S
O120   Zn122   1.958   .     S
H124   C233    1.088   .     S
I128   C18     2.125   1_655 S
H130   C899    1.083   1_554 S
H132   C363    1.087   1_545 S
C133   C143    1.402   .     S
C133   O158    1.294   .     A
C133   O245    1.278   1_455 S
C134   C135    1.411   .     A
C134   C532    1.414   .     S
C134   C548    1.428   .     S
C135   C142    1.408   .     A
C135   C139    1.411   .     A
C136   C140    1.386   .     A
C136   C926    1.414   1_554 S
C136   C929    1.420   1_554 S
C137   C138    1.399   .     A
C137   C148    1.399   .     A
C137   C532    1.420   .     S
C138   C139    1.383   .     A
C138   I170    2.125   .     S
C139   H175    1.083   .     S
C140   H154    1.078   .     S
C140   C149    1.393   .     A
C141   C149    1.412   .     A
C141   C940    1.393   1_554 S
C141   I211    2.105   .     S
C142   C144    1.467   .     S
C142   C150    1.411   .     A
C143   C365    1.341   1_455 S
C143   H308    1.087   .     S
C144   O160    1.305   .     A
C144   O247    1.296   1_455 S
C145   C146    1.402   .     S
C146   O161    1.294   .     A
C146   O206    1.278   .     S
C147   O163    1.303   .     A
C147   C149    1.466   .     S
C147   O208    1.300   .     S
C148   H171    1.081   .     S
C148   C537    1.393   .     S
C150   C151    1.390   .     A
C150   I260    2.125   1_455 S
C151   C548    1.393   .     S
C151   H570    1.083   .     S
C152   I173    2.142   .     S
C152   C926    1.428   1_554 S
C152   C943    1.393   1_554 S
H153   N156    1.029   .     S
N155   N156    1.288   .     D
N155   Zn166   2.027   .     S
N155   I169    2.071   .     S
N156   Zn165   2.027   .     S
O157   Zn165   1.946   .     S
O157   C177    1.278   .     S
O158   Zn166   1.976   .     S
O159   Zn165   1.958   .     S
O159   C188    1.296   .     S
O160   Zn166   1.897   .     S
O161   Zn165   1.976   .     S
O162   Zn166   1.946   .     S
O162   C234    1.278   1_455 S
O163   Zn165   1.897   .     S
O164   Zn166   1.958   .     S
O164   C235    1.300   1_455 S
I167   C229    2.105   1_455 S
H168   C277    1.088   .     S
I172   C194    2.125   .     S
H174   C943    1.083   1_554 S
C177   C187    1.402   .     S
C177   O202    1.294   .     A
C178   C179    1.411   .     A
C178   C576    1.414   .     S
C178   C592    1.428   .     S
C179   C186    1.408   .     A
C179   C183    1.411   .     A
C180   C184    1.386   .     A
C180   C970    1.414   1_554 S
C180   C973    1.420   1_554 S
C181   C182    1.399   .     A
C181   C192    1.399   .     A
C181   C576    1.420   .     S
C182   C183    1.383   .     A
C182   I214    2.125   .     S
C183   H219    1.083   .     S
C184   H198    1.078   .     S
C184   C193    1.393   .     A
C185   C193    1.412   .     A
C185   C984    1.393   1_554 S
C185   I255    2.105   .     S
C186   C188    1.467   .     S
C186   C194    1.411   .     A
C187   C277    1.341   .     S
C187   H352    1.087   .     S
C188   O204    1.305   .     A
C189   C190    1.402   .     S
C190   O205    1.294   .     A
C190   O250    1.278   .     S
C191   O207    1.303   .     A
C191   C193    1.466   .     S
C191   O252    1.300   .     S
C192   H215    1.081   .     S
C192   C581    1.393   .     S
C194   C195    1.390   .     A
C195   C592    1.393   .     S
C195   H614    1.083   .     S
C196   I217    2.142   .     S
C196   C970    1.428   1_554 S
C196   C987    1.393   1_554 S
H197   N200    1.029   .     S
N199   N200    1.288   .     D
N199   Zn210   2.027   .     S
N199   I213    2.071   .     S
N200   Zn209   2.027   .     S
O201   Zn209   1.946   .     S
O201   C221    1.278   .     S
O202   Zn210   1.976   .     S
O203   Zn209   1.958   .     S
O203   C232    1.296   .     S
O204   Zn210   1.897   .     S
O205   Zn209   1.976   .     S
O206   Zn210   1.946   .     S
O207   Zn209   1.897   .     S
O208   Zn210   1.958   .     S
H212   C321    1.088   .     S
I216   C238    2.125   .     S
H218   C987    1.083   1_554 S
C221   C231    1.402   .     S
C221   O246    1.294   .     A
C222   C223    1.411   .     A
C222   C620    1.414   .     S
C222   C636    1.428   .     S
C223   C230    1.408   .     A
C223   C227    1.411   .     A
C224   C228    1.386   .     A
C224   C1014   1.414   1_554 S
C224   C1017   1.420   1_554 S
C225   C226    1.399   .     A
C225   C236    1.399   .     A
C225   C620    1.420   .     S
C226   C227    1.383   .     A
C226   I258    2.125   .     S
C227   H263    1.083   .     S
C228   H242    1.078   .     S
C228   C237    1.393   .     A
C229   C237    1.412   .     A
C229   C1028   1.393   1_554 S
C229   I167    2.105   1_655 S
C230   C232    1.467   .     S
C230   C238    1.411   .     A
C231   C321    1.341   .     S
C231   H396    1.087   .     S
C232   O248    1.305   .     A
C233   C234    1.402   .     S
C233   C11     1.341   1_655 S
C234   O249    1.294   .     A
C234   O162    1.278   1_655 S
C235   O251    1.303   .     A
C235   C237    1.466   .     S
C235   O164    1.300   1_655 S
C236   H259    1.081   .     S
C236   C625    1.393   .     S
C238   C239    1.390   .     A
C239   C636    1.393   .     S
C239   H658    1.083   .     S
C240   I261    2.142   .     S
C240   C1014   1.428   1_554 S
C240   C1031   1.393   1_554 S
H241   N244    1.029   .     S
N243   N244    1.288   .     D
N243   Zn254   2.027   .     S
N243   I257    2.071   .     S
N244   Zn253   2.027   .     S
O245   Zn253   1.946   .     S
O245   C133    1.278   1_655 S
O246   Zn254   1.976   .     S
O247   Zn253   1.958   .     S
O247   C144    1.296   1_655 S
O248   Zn254   1.897   .     S
O249   Zn253   1.976   .     S
O250   Zn254   1.946   .     S
O251   Zn253   1.897   .     S
O252   Zn254   1.958   .     S
H256   C365    1.088   .     S
I260   C150    2.125   1_655 S
H262   C1031   1.083   1_554 S
C265   C275    1.402   .     S
C265   O290    1.294   .     A
C265   O377    1.278   1_455 S
C266   C267    1.411   .     A
C266   C664    1.414   .     S
C266   C680    1.428   .     S
C267   C274    1.408   .     A
C267   C271    1.411   .     A
C268   C272    1.386   .     A
C268   C1058   1.414   1_554 S
C268   C1061   1.420   1_554 S
C269   C270    1.399   .     A
C269   C280    1.399   .     A
C269   C664    1.420   .     S
C270   C271    1.383   .     A
C270   I302    2.125   .     S
C271   H307    1.083   .     S
C272   H286    1.078   .     S
C272   C281    1.393   .     A
C273   C281    1.412   .     A
C273   C1072   1.393   1_554 S
C273   I343    2.105   .     S
C274   C276    1.467   .     S
C274   C282    1.411   .     A
C275   C101    1.341   1_465 S
C275   H44     1.087   1_565 S
C276   O292    1.305   .     A
C276   O379    1.296   1_455 S
C277   C278    1.402   .     S
C278   O293    1.294   .     A
C278   O338    1.278   .     S
C279   O295    1.303   .     A
C279   C281    1.466   .     S
C279   O340    1.300   .     S
C280   H303    1.081   .     S
C280   C669    1.393   .     S
C282   C283    1.390   .     A
C282   I392    2.125   1_455 S
C283   C680    1.393   .     S
C283   H702    1.083   .     S
C284   I305    2.142   .     S
C284   C1058   1.428   1_554 S
C284   C1075   1.393   1_554 S
H285   N288    1.029   .     S
N287   N288    1.288   .     D
N287   Zn298   2.027   .     S
N287   I301    2.071   .     S
N288   Zn297   2.027   .     S
O289   Zn297   1.946   .     S
O289   C309    1.278   .     S
O290   Zn298   1.976   .     S
O291   Zn297   1.958   .     S
O291   C320    1.296   .     S
O292   Zn298   1.897   .     S
O293   Zn297   1.976   .     S
O294   Zn298   1.946   .     S
O294   C366    1.278   1_455 S
O295   Zn297   1.897   .     S
O296   Zn298   1.958   .     S
O296   C367    1.300   1_455 S
I299   C361    2.105   1_455 S
H300   C13     1.088   1_565 S
I304   C326    2.125   .     S
H306   C1075   1.083   1_554 S
C309   C319    1.402   .     S
C309   O334    1.294   .     A
C310   C311    1.411   .     A
C310   C708    1.414   .     S
C310   C724    1.428   .     S
C311   C318    1.408   .     A
C311   C315    1.411   .     A
C312   C316    1.386   .     A
C312   C1102   1.414   1_554 S
C312   C1105   1.420   1_554 S
C313   C314    1.399   .     A
C313   C324    1.399   .     A
C313   C708    1.420   .     S
C314   C315    1.383   .     A
C314   I346    2.125   .     S
C315   H351    1.083   .     S
C316   H330    1.078   .     S
C316   C325    1.393   .     A
C317   C325    1.412   .     A
C317   C1116   1.393   1_554 S
C317   I387    2.105   .     S
C318   C320    1.467   .     S
C318   C326    1.411   .     A
C319   C13     1.341   1_565 S
C319   H88     1.087   1_565 S
C320   O336    1.305   .     A
C321   C322    1.402   .     S
C322   O337    1.294   .     A
C322   O382    1.278   .     S
C323   O339    1.303   .     A
C323   C325    1.466   .     S
C323   O384    1.300   .     S
C324   H347    1.081   .     S
C324   C713    1.393   .     S
C326   C327    1.390   .     A
C327   C724    1.393   .     S
C327   H746    1.083   .     S
C328   I349    2.142   .     S
C328   C1102   1.428   1_554 S
C328   C1119   1.393   1_554 S
H329   N332    1.029   .     S
N331   N332    1.288   .     D
N331   Zn342   2.027   .     S
N331   I345    2.071   .     S
N332   Zn341   2.027   .     S
O333   Zn341   1.946   .     S
O333   C353    1.278   .     S
O334   Zn342   1.976   .     S
O335   Zn341   1.958   .     S
O335   C364    1.296   .     S
O336   Zn342   1.897   .     S
O337   Zn341   1.976   .     S
O338   Zn342   1.946   .     S
O339   Zn341   1.897   .     S
O340   Zn342   1.958   .     S
H344   C57     1.088   1_565 S
I348   C370    2.125   .     S
H350   C1119   1.083   1_554 S
C353   C363    1.402   .     S
C353   O378    1.294   .     A
C354   C355    1.411   .     A
C354   C752    1.414   .     S
C354   C768    1.428   .     S
C355   C362    1.408   .     A
C355   C359    1.411   .     A
C356   C360    1.386   .     A
C356   C1146   1.414   1_554 S
C356   C1149   1.420   1_554 S
C357   C358    1.399   .     A
C357   C368    1.399   .     A
C357   C752    1.420   .     S
C358   C359    1.383   .     A
C358   I390    2.125   .     S
C359   H395    1.083   .     S
C360   H374    1.078   .     S
C360   C369    1.393   .     A
C361   C369    1.412   .     A
C361   C1160   1.393   1_554 S
C361   I299    2.105   1_655 S
C362   C364    1.467   .     S
C362   C370    1.411   .     A
C363   C57     1.341   1_565 S
C363   H132    1.087   1_565 S
C364   O380    1.305   .     A
C365   C366    1.402   .     S
C365   C143    1.341   1_655 S
C366   O381    1.294   .     A
C366   O294    1.278   1_655 S
C367   O383    1.303   .     A
C367   C369    1.466   .     S
C367   O296    1.300   1_655 S
C368   H391    1.081   .     S
C368   C757    1.393   .     S
C370   C371    1.390   .     A
C371   C768    1.393   .     S
C371   H790    1.083   .     S
C372   I393    2.142   .     S
C372   C1146   1.428   1_554 S
C372   C1163   1.393   1_554 S
H373   N376    1.029   .     S
N375   N376    1.288   .     D
N375   Zn386   2.027   .     S
N375   I389    2.071   .     S
N376   Zn385   2.027   .     S
O377   Zn385   1.946   .     S
O377   C265    1.278   1_655 S
O378   Zn386   1.976   .     S
O379   Zn385   1.958   .     S
O379   C276    1.296   1_655 S
O380   Zn386   1.897   .     S
O381   Zn385   1.976   .     S
O382   Zn386   1.946   .     S
O383   Zn385   1.897   .     S
O384   Zn386   1.958   .     S
H388   C101    1.088   1_565 S
I392   C282    2.125   1_655 S
H394   C1163   1.083   1_554 S
C397   C407    1.402   .     S
C397   O422    1.294   .     A
C397   O509    1.278   1_455 S
C398   C399    1.411   .     A
C398   C796    1.414   .     S
C398   C812    1.428   .     S
C399   C406    1.408   .     A
C399   C403    1.411   .     A
C400   C404    1.386   .     A
C401   C402    1.399   .     A
C401   C412    1.399   .     A
C401   C796    1.420   .     S
C402   C403    1.383   .     A
C402   I434    2.125   .     S
C403   H439    1.083   .     S
C404   H418    1.078   .     S
C404   C413    1.393   .     A
C405   C413    1.412   .     A
C405   I475    2.105   .     S
C406   C408    1.467   .     S
C406   C414    1.411   .     A
C407   C629    1.341   1_455 S
C407   H572    1.087   .     S
C408   O424    1.305   .     A
C408   O511    1.296   1_455 S
C409   C410    1.402   .     S
C409   C715    1.341   1_545 S
C409   H696    1.088   1_545 S
C410   O425    1.294   .     A
C410   O470    1.278   .     S
C411   O427    1.303   .     A
C411   C413    1.466   .     S
C411   O472    1.300   .     S
C412   H435    1.081   .     S
C412   C801    1.393   .     S
C414   C415    1.390   .     A
C414   I524    2.125   1_455 S
C415   C812    1.393   .     S
C415   H834    1.083   .     S
C416   I437    2.142   .     S
H417   N420    1.029   .     S
N419   N420    1.288   .     D
N419   Zn430   2.027   .     S
N419   I433    2.071   .     S
N420   Zn429   2.027   .     S
O421   Zn429   1.946   .     S
O421   C441    1.278   .     S
O422   Zn430   1.976   .     S
O423   Zn429   1.958   .     S
O423   C452    1.296   .     S
O424   Zn430   1.897   .     S
O425   Zn429   1.976   .     S
O426   Zn430   1.946   .     S
O426   C498    1.278   1_455 S
O427   Zn429   1.897   .     S
O428   Zn430   1.958   .     S
O428   C499    1.300   1_455 S
I431   C493    2.105   1_455 S
H432   C541    1.088   .     S
I436   C458    2.125   .     S
H440   C671    1.087   1_545 S
C441   C451    1.402   .     S
C441   O466    1.294   .     A
C442   C443    1.411   .     A
C442   C840    1.414   .     S
C442   C856    1.428   .     S
C443   C450    1.408   .     A
C443   C447    1.411   .     A
C444   C448    1.386   .     A
C445   C446    1.399   .     A
C445   C456    1.399   .     A
C445   C840    1.420   .     S
C446   C447    1.383   .     A
C446   I478    2.125   .     S
C447   H483    1.083   .     S
C448   H462    1.078   .     S
C448   C457    1.393   .     A
C449   C457    1.412   .     A
C449   I519    2.105   .     S
C450   C452    1.467   .     S
C450   C458    1.411   .     A
C451   C541    1.341   .     S
C451   H616    1.087   .     S
C452   O468    1.305   .     A
C453   C454    1.402   .     S
C453   C759    1.341   1_545 S
C453   H740    1.088   1_545 S
C454   O469    1.294   .     A
C454   O514    1.278   .     S
C455   O471    1.303   .     A
C455   C457    1.466   .     S
C455   O516    1.300   .     S
C456   H479    1.081   .     S
C456   C845    1.393   .     S
C458   C459    1.390   .     A
C459   C856    1.393   .     S
C459   H878    1.083   .     S
C460   I481    2.142   .     S
H461   N464    1.029   .     S
N463   N464    1.288   .     D
N463   Zn474   2.027   .     S
N463   I477    2.071   .     S
N464   Zn473   2.027   .     S
O465   Zn473   1.946   .     S
O465   C485    1.278   .     S
O466   Zn474   1.976   .     S
O467   Zn473   1.958   .     S
O467   C496    1.296   .     S
O468   Zn474   1.897   .     S
O469   Zn473   1.976   .     S
O470   Zn474   1.946   .     S
O471   Zn473   1.897   .     S
O472   Zn474   1.958   .     S
H476   C585    1.088   .     S
I480   C502    2.125   .     S
H484   C715    1.087   1_545 S
C485   C495    1.402   .     S
C485   O510    1.294   .     A
C486   C487    1.411   .     A
C486   C884    1.414   .     S
C486   C900    1.428   .     S
C487   C494    1.408   .     A
C487   C491    1.411   .     A
C488   C492    1.386   .     A
C489   C490    1.399   .     A
C489   C500    1.399   .     A
C489   C884    1.420   .     S
C490   C491    1.383   .     A
C490   I522    2.125   .     S
C491   H527    1.083   .     S
C492   H506    1.078   .     S
C492   C501    1.393   .     A
C493   C501    1.412   .     A
C493   I431    2.105   1_655 S
C494   C496    1.467   .     S
C494   C502    1.411   .     A
C495   C585    1.341   .     S
C495   H660    1.087   .     S
C496   O512    1.305   .     A
C497   C498    1.402   .     S
C497   C671    1.341   1_645 S
C497   H784    1.088   1_545 S
C498   O513    1.294   .     A
C498   O426    1.278   1_655 S
C499   O515    1.303   .     A
C499   C501    1.466   .     S
C499   O428    1.300   1_655 S
C500   H523    1.081   .     S
C500   C889    1.393   .     S
C502   C503    1.390   .     A
C503   C900    1.393   .     S
C503   H922    1.083   .     S
C504   I525    2.142   .     S
H505   N508    1.029   .     S
N507   N508    1.288   .     D
N507   Zn518   2.027   .     S
N507   I521    2.071   .     S
N508   Zn517   2.027   .     S
O509   Zn517   1.946   .     S
O509   C397    1.278   1_655 S
O510   Zn518   1.976   .     S
O511   Zn517   1.958   .     S
O511   C408    1.296   1_655 S
O512   Zn518   1.897   .     S
O513   Zn517   1.976   .     S
O514   Zn518   1.946   .     S
O515   Zn517   1.897   .     S
O516   Zn518   1.958   .     S
H520   C629    1.088   .     S
I524   C414    2.125   1_655 S
H528   C759    1.087   1_545 S
C529   C539    1.402   .     S
C529   O554    1.294   .     A
C529   O641    1.278   1_455 S
C530   C531    1.411   .     A
C530   C928    1.414   .     S
C530   C944    1.428   .     S
C531   C538    1.408   .     A
C531   C535    1.411   .     A
C532   C536    1.386   .     A
C533   C534    1.399   .     A
C533   C544    1.399   .     A
C533   C928    1.420   .     S
C534   C535    1.383   .     A
C534   I566    2.125   .     S
C535   H571    1.083   .     S
C536   H550    1.078   .     S
C536   C545    1.393   .     A
C537   C545    1.412   .     A
C537   I607    2.105   .     S
C538   C540    1.467   .     S
C538   C546    1.411   .     A
C539   C761    1.341   1_455 S
C539   H704    1.087   .     S
C540   O556    1.305   .     A
C540   O643    1.296   1_455 S
C541   C542    1.402   .     S
C542   O557    1.294   .     A
C542   O602    1.278   .     S
C543   O559    1.303   .     A
C543   C545    1.466   .     S
C543   O604    1.300   .     S
C544   H567    1.081   .     S
C544   C933    1.393   .     S
C546   C547    1.390   .     A
C546   I656    2.125   1_455 S
C547   C944    1.393   .     S
C547   H966    1.083   .     S
C548   I569    2.142   .     S
H549   N552    1.029   .     S
N551   N552    1.288   .     D
N551   Zn562   2.027   .     S
N551   I565    2.071   .     S
N552   Zn561   2.027   .     S
O553   Zn561   1.946   .     S
O553   C573    1.278   .     S
O554   Zn562   1.976   .     S
O555   Zn561   1.958   .     S
O555   C584    1.296   .     S
O556   Zn562   1.897   .     S
O557   Zn561   1.976   .     S
O558   Zn562   1.946   .     S
O558   C630    1.278   1_455 S
O559   Zn561   1.897   .     S
O560   Zn562   1.958   .     S
O560   C631    1.300   1_455 S
I563   C625    2.105   1_455 S
H564   C673    1.088   .     S
I568   C590    2.125   .     S
C573   C583    1.402   .     S
C573   O598    1.294   .     A
C574   C575    1.411   .     A
C574   C972    1.414   .     S
C574   C988    1.428   .     S
C575   C582    1.408   .     A
C575   C579    1.411   .     A
C576   C580    1.386   .     A
C577   C578    1.399   .     A
C577   C588    1.399   .     A
C577   C972    1.420   .     S
C578   C579    1.383   .     A
C578   I610    2.125   .     S
C579   H615    1.083   .     S
C580   H594    1.078   .     S
C580   C589    1.393   .     A
C581   C589    1.412   .     A
C581   I651    2.105   .     S
C582   C584    1.467   .     S
C582   C590    1.411   .     A
C583   C673    1.341   .     S
C583   H748    1.087   .     S
C584   O600    1.305   .     A
C585   C586    1.402   .     S
C586   O601    1.294   .     A
C586   O646    1.278   .     S
C587   O603    1.303   .     A
C587   C589    1.466   .     S
C587   O648    1.300   .     S
C588   H611    1.081   .     S
C588   C977    1.393   .     S
C590   C591    1.390   .     A
C591   C988    1.393   .     S
C591   H1010   1.083   .     S
C592   I613    2.142   .     S
H593   N596    1.029   .     S
N595   N596    1.288   .     D
N595   Zn606   2.027   .     S
N595   I609    2.071   .     S
N596   Zn605   2.027   .     S
O597   Zn605   1.946   .     S
O597   C617    1.278   .     S
O598   Zn606   1.976   .     S
O599   Zn605   1.958   .     S
O599   C628    1.296   .     S
O600   Zn606   1.897   .     S
O601   Zn605   1.976   .     S
O602   Zn606   1.946   .     S
O603   Zn605   1.897   .     S
O604   Zn606   1.958   .     S
H608   C717    1.088   .     S
I612   C634    2.125   .     S
C617   C627    1.402   .     S
C617   O642    1.294   .     A
C618   C619    1.411   .     A
C618   C1016   1.414   .     S
C618   C1032   1.428   .     S
C619   C626    1.408   .     A
C619   C623    1.411   .     A
C620   C624    1.386   .     A
C621   C622    1.399   .     A
C621   C632    1.399   .     A
C621   C1016   1.420   .     S
C622   C623    1.383   .     A
C622   I654    2.125   .     S
C623   H659    1.083   .     S
C624   H638    1.078   .     S
C624   C633    1.393   .     A
C625   C633    1.412   .     A
C625   I563    2.105   1_655 S
C626   C628    1.467   .     S
C626   C634    1.411   .     A
C627   C717    1.341   .     S
C627   H792    1.087   .     S
C628   O644    1.305   .     A
C629   C630    1.402   .     S
C629   C407    1.341   1_655 S
C630   O645    1.294   .     A
C630   O558    1.278   1_655 S
C631   O647    1.303   .     A
C631   C633    1.466   .     S
C631   O560    1.300   1_655 S
C632   H655    1.081   .     S
C632   C1021   1.393   .     S
C634   C635    1.390   .     A
C635   C1032   1.393   .     S
C635   H1054   1.083   .     S
C636   I657    2.142   .     S
H637   N640    1.029   .     S
N639   N640    1.288   .     D
N639   Zn650   2.027   .     S
N639   I653    2.071   .     S
N640   Zn649   2.027   .     S
O641   Zn649   1.946   .     S
O641   C529    1.278   1_655 S
O642   Zn650   1.976   .     S
O643   Zn649   1.958   .     S
O643   C540    1.296   1_655 S
O644   Zn650   1.897   .     S
O645   Zn649   1.976   .     S
O646   Zn650   1.946   .     S
O647   Zn649   1.897   .     S
O648   Zn650   1.958   .     S
H652   C761    1.088   .     S
I656   C546    2.125   1_655 S
C661   C671    1.402   .     S
C661   O686    1.294   .     A
C661   O773    1.278   1_455 S
C662   C663    1.411   .     A
C662   C1060   1.414   .     S
C662   C1076   1.428   .     S
C663   C670    1.408   .     A
C663   C667    1.411   .     A
C664   C668    1.386   .     A
C665   C666    1.399   .     A
C665   C676    1.399   .     A
C665   C1060   1.420   .     S
C666   C667    1.383   .     A
C666   I698    2.125   .     S
C667   H703    1.083   .     S
C668   H682    1.078   .     S
C668   C677    1.393   .     A
C669   C677    1.412   .     A
C669   I739    2.105   .     S
C670   C672    1.467   .     S
C670   C678    1.411   .     A
C671   C497    1.341   1_465 S
C671   H440    1.087   1_565 S
C672   O688    1.305   .     A
C672   O775    1.296   1_455 S
C673   C674    1.402   .     S
C674   O689    1.294   .     A
C674   O734    1.278   .     S
C675   O691    1.303   .     A
C675   C677    1.466   .     S
C675   O736    1.300   .     S
C676   H699    1.081   .     S
C676   C1065   1.393   .     S
C678   C679    1.390   .     A
C678   I788    2.125   1_455 S
C679   C1076   1.393   .     S
C679   H1098   1.083   .     S
C680   I701    2.142   .     S
H681   N684    1.029   .     S
N683   N684    1.288   .     D
N683   Zn694   2.027   .     S
N683   I697    2.071   .     S
N684   Zn693   2.027   .     S
O685   Zn693   1.946   .     S
O685   C705    1.278   .     S
O686   Zn694   1.976   .     S
O687   Zn693   1.958   .     S
O687   C716    1.296   .     S
O688   Zn694   1.897   .     S
O689   Zn693   1.976   .     S
O690   Zn694   1.946   .     S
O690   C762    1.278   1_455 S
O691   Zn693   1.897   .     S
O692   Zn694   1.958   .     S
O692   C763    1.300   1_455 S
I695   C757    2.105   1_455 S
H696   C409    1.088   1_565 S
I700   C722    2.125   .     S
C705   C715    1.402   .     S
C705   O730    1.294   .     A
C706   C707    1.411   .     A
C706   C1104   1.414   .     S
C706   C1120   1.428   .     S
C707   C714    1.408   .     A
C707   C711    1.411   .     A
C708   C712    1.386   .     A
C709   C710    1.399   .     A
C709   C720    1.399   .     A
C709   C1104   1.420   .     S
C710   C711    1.383   .     A
C710   I742    2.125   .     S
C711   H747    1.083   .     S
C712   H726    1.078   .     S
C712   C721    1.393   .     A
C713   C721    1.412   .     A
C713   I783    2.105   .     S
C714   C716    1.467   .     S
C714   C722    1.411   .     A
C715   C409    1.341   1_565 S
C715   H484    1.087   1_565 S
C716   O732    1.305   .     A
C717   C718    1.402   .     S
C718   O733    1.294   .     A
C718   O778    1.278   .     S
C719   O735    1.303   .     A
C719   C721    1.466   .     S
C719   O780    1.300   .     S
C720   H743    1.081   .     S
C720   C1109   1.393   .     S
C722   C723    1.390   .     A
C723   C1120   1.393   .     S
C723   H1142   1.083   .     S
C724   I745    2.142   .     S
H725   N728    1.029   .     S
N727   N728    1.288   .     D
N727   Zn738   2.027   .     S
N727   I741    2.071   .     S
N728   Zn737   2.027   .     S
O729   Zn737   1.946   .     S
O729   C749    1.278   .     S
O730   Zn738   1.976   .     S
O731   Zn737   1.958   .     S
O731   C760    1.296   .     S
O732   Zn738   1.897   .     S
O733   Zn737   1.976   .     S
O734   Zn738   1.946   .     S
O735   Zn737   1.897   .     S
O736   Zn738   1.958   .     S
H740   C453    1.088   1_565 S
I744   C766    2.125   .     S
C749   C759    1.402   .     S
C749   O774    1.294   .     A
C750   C751    1.411   .     A
C750   C1148   1.414   .     S
C750   C1164   1.428   .     S
C751   C758    1.408   .     A
C751   C755    1.411   .     A
C752   C756    1.386   .     A
C753   C754    1.399   .     A
C753   C764    1.399   .     A
C753   C1148   1.420   .     S
C754   C755    1.383   .     A
C754   I786    2.125   .     S
C755   H791    1.083   .     S
C756   H770    1.078   .     S
C756   C765    1.393   .     A
C757   C765    1.412   .     A
C757   I695    2.105   1_655 S
C758   C760    1.467   .     S
C758   C766    1.411   .     A
C759   C453    1.341   1_565 S
C759   H528    1.087   1_565 S
C760   O776    1.305   .     A
C761   C762    1.402   .     S
C761   C539    1.341   1_655 S
C762   O777    1.294   .     A
C762   O690    1.278   1_655 S
C763   O779    1.303   .     A
C763   C765    1.466   .     S
C763   O692    1.300   1_655 S
C764   H787    1.081   .     S
C764   C1153   1.393   .     S
C766   C767    1.390   .     A
C767   C1164   1.393   .     S
C767   H1186   1.083   .     S
C768   I789    2.142   .     S
H769   N772    1.029   .     S
N771   N772    1.288   .     D
N771   Zn782   2.027   .     S
N771   I785    2.071   .     S
N772   Zn781   2.027   .     S
O773   Zn781   1.946   .     S
O773   C661    1.278   1_655 S
O774   Zn782   1.976   .     S
O775   Zn781   1.958   .     S
O775   C672    1.296   1_655 S
O776   Zn782   1.897   .     S
O777   Zn781   1.976   .     S
O778   Zn782   1.946   .     S
O779   Zn781   1.897   .     S
O780   Zn782   1.958   .     S
H784   C497    1.088   1_565 S
I788   C678    2.125   1_655 S
C793   C803    1.402   .     S
C793   O818    1.294   .     A
C793   O905    1.278   1_455 S
C794   C795    1.411   .     A
C794   C4      1.414   1_556 S
C794   C20     1.428   1_556 S
C795   C802    1.408   .     A
C795   C799    1.411   .     A
C796   C800    1.386   .     A
C797   C798    1.399   .     A
C797   C808    1.399   .     A
C797   C4      1.420   1_556 S
C798   C799    1.383   .     A
C798   I830    2.125   .     S
C799   H835    1.083   .     S
C800   H814    1.078   .     S
C800   C809    1.393   .     A
C801   C809    1.412   .     A
C801   I871    2.105   .     S
C802   C804    1.467   .     S
C802   C810    1.411   .     A
C803   C1025   1.341   1_455 S
C803   H968    1.087   .     S
C804   O820    1.305   .     A
C804   O907    1.296   1_455 S
C805   C806    1.402   .     S
C805   C1111   1.341   1_545 S
C805   H1092   1.088   1_545 S
C806   O821    1.294   .     A
C806   O866    1.278   .     S
C807   O823    1.303   .     A
C807   C809    1.466   .     S
C807   O868    1.300   .     S
C808   H831    1.081   .     S
C808   C9      1.393   1_556 S
C810   C811    1.390   .     A
C810   I920    2.125   1_455 S
C811   C20     1.393   1_556 S
C811   H42     1.083   1_556 S
C812   I833    2.142   .     S
H813   N816    1.029   .     S
N815   N816    1.288   .     D
N815   Zn826   2.027   .     S
N815   I829    2.071   .     S
N816   Zn825   2.027   .     S
O817   Zn825   1.946   .     S
O817   C837    1.278   .     S
O818   Zn826   1.976   .     S
O819   Zn825   1.958   .     S
O819   C848    1.296   .     S
O820   Zn826   1.897   .     S
O821   Zn825   1.976   .     S
O822   Zn826   1.946   .     S
O822   C894    1.278   1_455 S
O823   Zn825   1.897   .     S
O824   Zn826   1.958   .     S
O824   C895    1.300   1_455 S
I827   C889    2.105   1_455 S
H828   C937    1.088   .     S
I832   C854    2.125   .     S
H836   C1067   1.087   1_545 S
C837   C847    1.402   .     S
C837   O862    1.294   .     A
C838   C839    1.411   .     A
C838   C48     1.414   1_556 S
C838   C64     1.428   1_556 S
C839   C846    1.408   .     A
C839   C843    1.411   .     A
C840   C844    1.386   .     A
C841   C842    1.399   .     A
C841   C852    1.399   .     A
C841   C48     1.420   1_556 S
C842   C843    1.383   .     A
C842   I874    2.125   .     S
C843   H879    1.083   .     S
C844   H858    1.078   .     S
C844   C853    1.393   .     A
C845   C853    1.412   .     A
C845   I915    2.105   .     S
C846   C848    1.467   .     S
C846   C854    1.411   .     A
C847   C937    1.341   .     S
C847   H1012   1.087   .     S
C848   O864    1.305   .     A
C849   C850    1.402   .     S
C849   C1155   1.341   1_545 S
C849   H1136   1.088   1_545 S
C850   O865    1.294   .     A
C850   O910    1.278   .     S
C851   O867    1.303   .     A
C851   C853    1.466   .     S
C851   O912    1.300   .     S
C852   H875    1.081   .     S
C852   C53     1.393   1_556 S
C854   C855    1.390   .     A
C855   C64     1.393   1_556 S
C855   H86     1.083   1_556 S
C856   I877    2.142   .     S
H857   N860    1.029   .     S
N859   N860    1.288   .     D
N859   Zn870   2.027   .     S
N859   I873    2.071   .     S
N860   Zn869   2.027   .     S
O861   Zn869   1.946   .     S
O861   C881    1.278   .     S
O862   Zn870   1.976   .     S
O863   Zn869   1.958   .     S
O863   C892    1.296   .     S
O864   Zn870   1.897   .     S
O865   Zn869   1.976   .     S
O866   Zn870   1.946   .     S
O867   Zn869   1.897   .     S
O868   Zn870   1.958   .     S
H872   C981    1.088   .     S
I876   C898    2.125   .     S
H880   C1111   1.087   1_545 S
C881   C891    1.402   .     S
C881   O906    1.294   .     A
C882   C883    1.411   .     A
C882   C92     1.414   1_556 S
C882   C108    1.428   1_556 S
C883   C890    1.408   .     A
C883   C887    1.411   .     A
C884   C888    1.386   .     A
C885   C886    1.399   .     A
C885   C896    1.399   .     A
C885   C92     1.420   1_556 S
C886   C887    1.383   .     A
C886   I918    2.125   .     S
C887   H923    1.083   .     S
C888   H902    1.078   .     S
C888   C897    1.393   .     A
C889   C897    1.412   .     A
C889   I827    2.105   1_655 S
C890   C892    1.467   .     S
C890   C898    1.411   .     A
C891   C981    1.341   .     S
C891   H1056   1.087   .     S
C892   O908    1.305   .     A
C893   C894    1.402   .     S
C893   C1067   1.341   1_645 S
C893   H1180   1.088   1_545 S
C894   O909    1.294   .     A
C894   O822    1.278   1_655 S
C895   O911    1.303   .     A
C895   C897    1.466   .     S
C895   O824    1.300   1_655 S
C896   H919    1.081   .     S
C896   C97     1.393   1_556 S
C898   C899    1.390   .     A
C899   C108    1.393   1_556 S
C899   H130    1.083   1_556 S
C900   I921    2.142   .     S
H901   N904    1.029   .     S
N903   N904    1.288   .     D
N903   Zn914   2.027   .     S
N903   I917    2.071   .     S
N904   Zn913   2.027   .     S
O905   Zn913   1.946   .     S
O905   C793    1.278   1_655 S
O906   Zn914   1.976   .     S
O907   Zn913   1.958   .     S
O907   C804    1.296   1_655 S
O908   Zn914   1.897   .     S
O909   Zn913   1.976   .     S
O910   Zn914   1.946   .     S
O911   Zn913   1.897   .     S
O912   Zn914   1.958   .     S
H916   C1025   1.088   .     S
I920   C810    2.125   1_655 S
H924   C1155   1.087   1_545 S
C925   C935    1.402   .     S
C925   O950    1.294   .     A
C925   O1037   1.278   1_455 S
C926   C927    1.411   .     A
C926   C136    1.414   1_556 S
C926   C152    1.428   1_556 S
C927   C934    1.408   .     A
C927   C931    1.411   .     A
C928   C932    1.386   .     A
C929   C930    1.399   .     A
C929   C940    1.399   .     A
C929   C136    1.420   1_556 S
C930   C931    1.383   .     A
C930   I962    2.125   .     S
C931   H967    1.083   .     S
C932   H946    1.078   .     S
C932   C941    1.393   .     A
C933   C941    1.412   .     A
C933   I1003   2.105   .     S
C934   C936    1.467   .     S
C934   C942    1.411   .     A
C935   C1157   1.341   1_455 S
C935   H1100   1.087   .     S
C936   O952    1.305   .     A
C936   O1039   1.296   1_455 S
C937   C938    1.402   .     S
C938   O953    1.294   .     A
C938   O998    1.278   .     S
C939   O955    1.303   .     A
C939   C941    1.466   .     S
C939   O1000   1.300   .     S
C940   H963    1.081   .     S
C940   C141    1.393   1_556 S
C942   C943    1.390   .     A
C942   I1052   2.125   1_455 S
C943   C152    1.393   1_556 S
C943   H174    1.083   1_556 S
C944   I965    2.142   .     S
H945   N948    1.029   .     S
N947   N948    1.288   .     D
N947   Zn958   2.027   .     S
N947   I961    2.071   .     S
N948   Zn957   2.027   .     S
O949   Zn957   1.946   .     S
O949   C969    1.278   .     S
O950   Zn958   1.976   .     S
O951   Zn957   1.958   .     S
O951   C980    1.296   .     S
O952   Zn958   1.897   .     S
O953   Zn957   1.976   .     S
O954   Zn958   1.946   .     S
O954   C1026   1.278   1_455 S
O955   Zn957   1.897   .     S
O956   Zn958   1.958   .     S
O956   C1027   1.300   1_455 S
I959   C1021   2.105   1_455 S
H960   C1069   1.088   .     S
I964   C986    2.125   .     S
C969   C979    1.402   .     S
C969   O994    1.294   .     A
C970   C971    1.411   .     A
C970   C180    1.414   1_556 S
C970   C196    1.428   1_556 S
C971   C978    1.408   .     A
C971   C975    1.411   .     A
C972   C976    1.386   .     A
C973   C974    1.399   .     A
C973   C984    1.399   .     A
C973   C180    1.420   1_556 S
C974   C975    1.383   .     A
C974   I1006   2.125   .     S
C975   H1011   1.083   .     S
C976   H990    1.078   .     S
C976   C985    1.393   .     A
C977   C985    1.412   .     A
C977   I1047   2.105   .     S
C978   C980    1.467   .     S
C978   C986    1.411   .     A
C979   C1069   1.341   .     S
C979   H1144   1.087   .     S
C980   O996    1.305   .     A
C981   C982    1.402   .     S
C982   O997    1.294   .     A
C982   O1042   1.278   .     S
C983   O999    1.303   .     A
C983   C985    1.466   .     S
C983   O1044   1.300   .     S
C984   H1007   1.081   .     S
C984   C185    1.393   1_556 S
C986   C987    1.390   .     A
C987   C196    1.393   1_556 S
C987   H218    1.083   1_556 S
C988   I1009   2.142   .     S
H989   N992    1.029   .     S
N991   N992    1.288   .     D
N991   Zn1002  2.027   .     S
N991   I1005   2.071   .     S
N992   Zn1001  2.027   .     S
O993   Zn1001  1.946   .     S
O993   C1013   1.278   .     S
O994   Zn1002  1.976   .     S
O995   Zn1001  1.958   .     S
O995   C1024   1.296   .     S
O996   Zn1002  1.897   .     S
O997   Zn1001  1.976   .     S
O998   Zn1002  1.946   .     S
O999   Zn1001  1.897   .     S
O1000  Zn1002  1.958   .     S
H1004  C1113   1.088   .     S
I1008  C1030   2.125   .     S
C1013  C1023   1.402   .     S
C1013  O1038   1.294   .     A
C1014  C1015   1.411   .     A
C1014  C224    1.414   1_556 S
C1014  C240    1.428   1_556 S
C1015  C1022   1.408   .     A
C1015  C1019   1.411   .     A
C1016  C1020   1.386   .     A
C1017  C1018   1.399   .     A
C1017  C1028   1.399   .     A
C1017  C224    1.420   1_556 S
C1018  C1019   1.383   .     A
C1018  I1050   2.125   .     S
C1019  H1055   1.083   .     S
C1020  H1034   1.078   .     S
C1020  C1029   1.393   .     A
C1021  C1029   1.412   .     A
C1021  I959    2.105   1_655 S
C1022  C1024   1.467   .     S
C1022  C1030   1.411   .     A
C1023  C1113   1.341   .     S
C1023  H1188   1.087   .     S
C1024  O1040   1.305   .     A
C1025  C1026   1.402   .     S
C1025  C803    1.341   1_655 S
C1026  O1041   1.294   .     A
C1026  O954    1.278   1_655 S
C1027  O1043   1.303   .     A
C1027  C1029   1.466   .     S
C1027  O956    1.300   1_655 S
C1028  H1051   1.081   .     S
C1028  C229    1.393   1_556 S
C1030  C1031   1.390   .     A
C1031  C240    1.393   1_556 S
C1031  H262    1.083   1_556 S
C1032  I1053   2.142   .     S
H1033  N1036   1.029   .     S
N1035  N1036   1.288   .     D
N1035  Zn1046  2.027   .     S
N1035  I1049   2.071   .     S
N1036  Zn1045  2.027   .     S
O1037  Zn1045  1.946   .     S
O1037  C925    1.278   1_655 S
O1038  Zn1046  1.976   .     S
O1039  Zn1045  1.958   .     S
O1039  C936    1.296   1_655 S
O1040  Zn1046  1.897   .     S
O1041  Zn1045  1.976   .     S
O1042  Zn1046  1.946   .     S
O1043  Zn1045  1.897   .     S
O1044  Zn1046  1.958   .     S
H1048  C1157   1.088   .     S
I1052  C942    2.125   1_655 S
C1057  C1067   1.402   .     S
C1057  O1082   1.294   .     A
C1057  O1169   1.278   1_455 S
C1058  C1059   1.411   .     A
C1058  C268    1.414   1_556 S
C1058  C284    1.428   1_556 S
C1059  C1066   1.408   .     A
C1059  C1063   1.411   .     A
C1060  C1064   1.386   .     A
C1061  C1062   1.399   .     A
C1061  C1072   1.399   .     A
C1061  C268    1.420   1_556 S
C1062  C1063   1.383   .     A
C1062  I1094   2.125   .     S
C1063  H1099   1.083   .     S
C1064  H1078   1.078   .     S
C1064  C1073   1.393   .     A
C1065  C1073   1.412   .     A
C1065  I1135   2.105   .     S
C1066  C1068   1.467   .     S
C1066  C1074   1.411   .     A
C1067  C893    1.341   1_465 S
C1067  H836    1.087   1_565 S
C1068  O1084   1.305   .     A
C1068  O1171   1.296   1_455 S
C1069  C1070   1.402   .     S
C1070  O1085   1.294   .     A
C1070  O1130   1.278   .     S
C1071  O1087   1.303   .     A
C1071  C1073   1.466   .     S
C1071  O1132   1.300   .     S
C1072  H1095   1.081   .     S
C1072  C273    1.393   1_556 S
C1074  C1075   1.390   .     A
C1074  I1184   2.125   1_455 S
C1075  C284    1.393   1_556 S
C1075  H306    1.083   1_556 S
C1076  I1097   2.142   .     S
H1077  N1080   1.029   .     S
N1079  N1080   1.288   .     D
N1079  Zn1090  2.027   .     S
N1079  I1093   2.071   .     S
N1080  Zn1089  2.027   .     S
O1081  Zn1089  1.946   .     S
O1081  C1101   1.278   .     S
O1082  Zn1090  1.976   .     S
O1083  Zn1089  1.958   .     S
O1083  C1112   1.296   .     S
O1084  Zn1090  1.897   .     S
O1085  Zn1089  1.976   .     S
O1086  Zn1090  1.946   .     S
O1086  C1158   1.278   1_455 S
O1087  Zn1089  1.897   .     S
O1088  Zn1090  1.958   .     S
O1088  C1159   1.300   1_455 S
I1091  C1153   2.105   1_455 S
H1092  C805    1.088   1_565 S
I1096  C1118   2.125   .     S
C1101  C1111   1.402   .     S
C1101  O1126   1.294   .     A
C1102  C1103   1.411   .     A
C1102  C312    1.414   1_556 S
C1102  C328    1.428   1_556 S
C1103  C1110   1.408   .     A
C1103  C1107   1.411   .     A
C1104  C1108   1.386   .     A
C1105  C1106   1.399   .     A
C1105  C1116   1.399   .     A
C1105  C312    1.420   1_556 S
C1106  C1107   1.383   .     A
C1106  I1138   2.125   .     S
C1107  H1143   1.083   .     S
C1108  H1122   1.078   .     S
C1108  C1117   1.393   .     A
C1109  C1117   1.412   .     A
C1109  I1179   2.105   .     S
C1110  C1112   1.467   .     S
C1110  C1118   1.411   .     A
C1111  C805    1.341   1_565 S
C1111  H880    1.087   1_565 S
C1112  O1128   1.305   .     A
C1113  C1114   1.402   .     S
C1114  O1129   1.294   .     A
C1114  O1174   1.278   .     S
C1115  O1131   1.303   .     A
C1115  C1117   1.466   .     S
C1115  O1176   1.300   .     S
C1116  H1139   1.081   .     S
C1116  C317    1.393   1_556 S
C1118  C1119   1.390   .     A
C1119  C328    1.393   1_556 S
C1119  H350    1.083   1_556 S
C1120  I1141   2.142   .     S
H1121  N1124   1.029   .     S
N1123  N1124   1.288   .     D
N1123  Zn1134  2.027   .     S
N1123  I1137   2.071   .     S
N1124  Zn1133  2.027   .     S
O1125  Zn1133  1.946   .     S
O1125  C1145   1.278   .     S
O1126  Zn1134  1.976   .     S
O1127  Zn1133  1.958   .     S
O1127  C1156   1.296   .     S
O1128  Zn1134  1.897   .     S
O1129  Zn1133  1.976   .     S
O1130  Zn1134  1.946   .     S
O1131  Zn1133  1.897   .     S
O1132  Zn1134  1.958   .     S
H1136  C849    1.088   1_565 S
I1140  C1162   2.125   .     S
C1145  C1155   1.402   .     S
C1145  O1170   1.294   .     A
C1146  C1147   1.411   .     A
C1146  C356    1.414   1_556 S
C1146  C372    1.428   1_556 S
C1147  C1154   1.408   .     A
C1147  C1151   1.411   .     A
C1148  C1152   1.386   .     A
C1149  C1150   1.399   .     A
C1149  C1160   1.399   .     A
C1149  C356    1.420   1_556 S
C1150  C1151   1.383   .     A
C1150  I1182   2.125   .     S
C1151  H1187   1.083   .     S
C1152  H1166   1.078   .     S
C1152  C1161   1.393   .     A
C1153  C1161   1.412   .     A
C1153  I1091   2.105   1_655 S
C1154  C1156   1.467   .     S
C1154  C1162   1.411   .     A
C1155  C849    1.341   1_565 S
C1155  H924    1.087   1_565 S
C1156  O1172   1.305   .     A
C1157  C1158   1.402   .     S
C1157  C935    1.341   1_655 S
C1158  O1173   1.294   .     A
C1158  O1086   1.278   1_655 S
C1159  O1175   1.303   .     A
C1159  C1161   1.466   .     S
C1159  O1088   1.300   1_655 S
C1160  H1183   1.081   .     S
C1160  C361    1.393   1_556 S
C1162  C1163   1.390   .     A
C1163  C372    1.393   1_556 S
C1163  H394    1.083   1_556 S
C1164  I1185   2.142   .     S
H1165  N1168   1.029   .     S
N1167  N1168   1.288   .     D
N1167  Zn1178  2.027   .     S
N1167  I1181   2.071   .     S
N1168  Zn1177  2.027   .     S
O1169  Zn1177  1.946   .     S
O1169  C1057   1.278   1_655 S
O1170  Zn1178  1.976   .     S
O1171  Zn1177  1.958   .     S
O1171  C1068   1.296   1_655 S
O1172  Zn1178  1.897   .     S
O1173  Zn1177  1.976   .     S
O1174  Zn1178  1.946   .     S
O1175  Zn1177  1.897   .     S
O1176  Zn1178  1.958   .     S
H1180  C893    1.088   1_565 S
I1184  C1074   2.125   1_655 S
