data_str_m3_o1_o18_pcu_sym.84
_audit_creation_date              2020-01-03
_audit_creation_method            'Materials Studio'
_symmetry_space_group_name_H-M    'P1'
_symmetry_Int_Tables_number       1
_symmetry_cell_setting            triclinic
loop_
_symmetry_equiv_pos_as_xyz
  x,y,z
_cell_length_a                    29.5845
_cell_length_b                    31.9245
_cell_length_c                    31.0700
_cell_angle_alpha                 90.4644
_cell_angle_beta                  66.8791
_cell_angle_gamma                 90.3152
loop_
_atom_site_label
_atom_site_type_symbol
_atom_site_fract_x
_atom_site_fract_y
_atom_site_fract_z
_atom_site_U_iso_or_equiv
_atom_site_adp_type
_atom_site_occupancy
Br1    Br    0.31406   0.19669   0.10593   0.00000  Uiso   1.00
Br2    Br    0.02733   0.11892   0.38644   0.00000  Uiso   1.00
C3     C     0.16631   0.24657   0.25128   0.00000  Uiso   1.00
C4     C     0.12633   0.31303   0.28480   0.00000  Uiso   1.00
C5     C     0.16694   0.04262   0.24759   0.00000  Uiso   1.00
C6     C     0.16637   0.29072   0.25245   0.00000  Uiso   1.00
C7     C     0.32127   0.14127   0.21975   0.00000  Uiso   1.00
C8     C     0.01199   0.19188   0.28043   0.00000  Uiso   1.00
C9     C     0.03622   0.14043   0.22064   0.00000  Uiso   1.00
C10    C     0.29706   0.19278   0.27949   0.00000  Uiso   1.00
C11    C     0.13561   0.16575   0.33816   0.00000  Uiso   1.00
C12    C     0.19775   0.16675   0.16171   0.00000  Uiso   1.00
C13    C     0.11568   0.16012   0.38890   0.00000  Uiso   1.00
C14    C     0.16701   0.08676   0.24875   0.00000  Uiso   1.00
C15    C     0.21803   0.16608   0.11036   0.00000  Uiso   1.00
C16    C     0.06037   0.12773   0.46056   0.00000  Uiso   1.00
C17    C     0.27975   0.18196   0.03366   0.00000  Uiso   1.00
C18    C     0.07156   0.13837   0.41400   0.00000  Uiso   1.00
C19    C     0.26618   0.17914   0.08191   0.00000  Uiso   1.00
C20    C     0.14673   0.17138   0.41109   0.00000  Uiso   1.00
C21    C     0.18582   0.15391   0.08960   0.00000  Uiso   1.00
C22    C     0.13933   0.15599   0.45524   0.00000  Uiso   1.00
C23    C     0.19849   0.15722   0.04151   0.00000  Uiso   1.00
C24    C     0.09430   0.13554   0.48098   0.00000  Uiso   1.00
C25    C     0.11833   0.12840   0.04616   0.00000  Uiso   1.00
C26    C     0.24591   0.17258   0.01360   0.00000  Uiso   1.00
C27    C     0.17581   0.16002   0.47401   0.00000  Uiso   1.00
C28    C     0.16404   0.14840   0.02113   0.00000  Uiso   1.00
C29    C     0.22420   0.17381   0.44666   0.00000  Uiso   1.00
C30    C     0.08435   0.12192   0.02618   0.00000  Uiso   1.00
C31    C     0.25862   0.17960   0.46619   0.00000  Uiso   1.00
C32    C     0.20651   0.31078   0.21868   0.00000  Uiso   1.00
C33    C     0.12680   0.02257   0.28137   0.00000  Uiso   1.00
C34    C     0.20697   0.02032   0.21523   0.00000  Uiso   1.00
H35    H     0.05016   0.10592   0.04619   0.00000  Uiso   1.00
H36    H     0.09666   0.04045   0.30633   0.00000  Uiso   1.00
H37    H     0.23668   0.06715   0.17363   0.00000  Uiso   1.00
H38    H     0.09655   0.26617   0.32634   0.00000  Uiso   1.00
H39    H     0.00605   0.11316   0.15978   0.00000  Uiso   1.00
H40    H     0.32703   0.21913   0.34085   0.00000  Uiso   1.00
H41    H     0.05577   0.08769   0.18712   0.00000  Uiso   1.00
H42    H     0.27738   0.24522   0.31364   0.00000  Uiso   1.00
H43    H     0.29500   0.19087   0.44429   0.00000  Uiso   1.00
H44    H     0.14945   0.14429   0.11232   0.00000  Uiso   1.00
H45    H     0.17778   0.19115   0.39221   0.00000  Uiso   1.00
H46    H     0.02634   0.11129   0.47998   0.00000  Uiso   1.00
H47    H     0.31623   0.19321   0.01201   0.00000  Uiso   1.00
H48    H     0.10827   0.11571   0.08071   0.00000  Uiso   1.00
H49    H     0.23719   0.17935   0.40957   0.00000  Uiso   1.00
H50    H     0.23666   0.29290   0.19372   0.00000  Uiso   1.00
N51    N     0.04759   0.16668   0.25001   0.00000  Uiso   1.00
N52    N     0.28574   0.16666   0.24999   0.00000  Uiso   1.00
O53    O     0.12846   0.22775   0.25000   0.00000  Uiso   1.00
O54    O     0.08720   0.29461   0.32048   0.00000  Uiso   1.00
O55    O     0.30929   0.11779   0.18832   0.00000  Uiso   1.00
O56    O     0.02381   0.21501   0.31220   0.00000  Uiso   1.00
O57    O     0.07189   0.11286   0.19348   0.00000  Uiso   1.00
O58    O     0.26132   0.22022   0.30684   0.00000  Uiso   1.00
O59    O     0.20488   0.10558   0.25000   0.00000  Uiso   1.00
O60    O     0.20490   0.22774   0.25000   0.00000  Uiso   1.00
O61    O     0.12843   0.10559   0.25000   0.00000  Uiso   1.00
O62    O     0.10661   0.16667   0.31612   0.00000  Uiso   1.00
O63    O     0.22672   0.16666   0.18388   0.00000  Uiso   1.00
O64    O     0.18305   0.16666   0.31612   0.00000  Uiso   1.00
O65    O     0.15028   0.16667   0.18388   0.00000  Uiso   1.00
O66    O     0.24607   0.03874   0.17952   0.00000  Uiso   1.00
Zn67   Zn    0.11562   0.16667   0.25000   0.00000  Uiso   1.00
Zn68   Zn    0.21771   0.16666   0.25000   0.00000  Uiso   1.00
Br69   Br    0.64739   0.19669   0.10593   0.00000  Uiso   1.00
Br70   Br    0.36066   0.11892   0.38644   0.00000  Uiso   1.00
C71    C     0.49964   0.24657   0.25128   0.00000  Uiso   1.00
C72    C     0.45966   0.31303   0.28480   0.00000  Uiso   1.00
C73    C     0.50027   0.04262   0.24759   0.00000  Uiso   1.00
C74    C     0.49971   0.29072   0.25245   0.00000  Uiso   1.00
C75    C     0.65460   0.14127   0.21975   0.00000  Uiso   1.00
C76    C     0.34532   0.19188   0.28043   0.00000  Uiso   1.00
C77    C     0.36955   0.14043   0.22064   0.00000  Uiso   1.00
C78    C     0.63040   0.19278   0.27949   0.00000  Uiso   1.00
C79    C     0.46895   0.16575   0.33816   0.00000  Uiso   1.00
C80    C     0.53109   0.16675   0.16171   0.00000  Uiso   1.00
C81    C     0.44901   0.16012   0.38890   0.00000  Uiso   1.00
C82    C     0.50034   0.08676   0.24875   0.00000  Uiso   1.00
C83    C     0.55136   0.16608   0.11036   0.00000  Uiso   1.00
C84    C     0.39371   0.12773   0.46056   0.00000  Uiso   1.00
C85    C     0.61309   0.18196   0.03366   0.00000  Uiso   1.00
C86    C     0.40489   0.13837   0.41400   0.00000  Uiso   1.00
C87    C     0.59951   0.17914   0.08191   0.00000  Uiso   1.00
C88    C     0.48006   0.17138   0.41109   0.00000  Uiso   1.00
C89    C     0.51915   0.15391   0.08960   0.00000  Uiso   1.00
C90    C     0.47267   0.15599   0.45524   0.00000  Uiso   1.00
C91    C     0.53183   0.15722   0.04151   0.00000  Uiso   1.00
C92    C     0.42764   0.13554   0.48098   0.00000  Uiso   1.00
C93    C     0.45166   0.12840   0.04616   0.00000  Uiso   1.00
C94    C     0.57924   0.17258   0.01360   0.00000  Uiso   1.00
C95    C     0.50914   0.16002   0.47401   0.00000  Uiso   1.00
C96    C     0.49737   0.14840   0.02113   0.00000  Uiso   1.00
C97    C     0.55754   0.17381   0.44666   0.00000  Uiso   1.00
C98    C     0.41768   0.12192   0.02618   0.00000  Uiso   1.00
C99    C     0.59196   0.17960   0.46619   0.00000  Uiso   1.00
C100   C     0.53985   0.31078   0.21868   0.00000  Uiso   1.00
C101   C     0.46014   0.02257   0.28137   0.00000  Uiso   1.00
C102   C     0.54031   0.02032   0.21523   0.00000  Uiso   1.00
H103   H     0.38350   0.10592   0.04619   0.00000  Uiso   1.00
H104   H     0.42999   0.04045   0.30633   0.00000  Uiso   1.00
H105   H     0.57001   0.06715   0.17363   0.00000  Uiso   1.00
H106   H     0.42989   0.26617   0.32634   0.00000  Uiso   1.00
H107   H     0.33939   0.11316   0.15978   0.00000  Uiso   1.00
H108   H     0.66036   0.21913   0.34085   0.00000  Uiso   1.00
H109   H     0.38911   0.08769   0.18712   0.00000  Uiso   1.00
H110   H     0.61071   0.24522   0.31364   0.00000  Uiso   1.00
H111   H     0.62833   0.19087   0.44429   0.00000  Uiso   1.00
H112   H     0.48278   0.14429   0.11232   0.00000  Uiso   1.00
H113   H     0.51111   0.19115   0.39221   0.00000  Uiso   1.00
H114   H     0.35967   0.11129   0.47998   0.00000  Uiso   1.00
H115   H     0.64956   0.19321   0.01201   0.00000  Uiso   1.00
H116   H     0.44160   0.11571   0.08071   0.00000  Uiso   1.00
H117   H     0.57052   0.17935   0.40957   0.00000  Uiso   1.00
H118   H     0.57000   0.29290   0.19372   0.00000  Uiso   1.00
N119   N     0.38093   0.16668   0.25001   0.00000  Uiso   1.00
N120   N     0.61907   0.16666   0.24999   0.00000  Uiso   1.00
O121   O     0.46179   0.22775   0.25000   0.00000  Uiso   1.00
O122   O     0.42054   0.29461   0.32048   0.00000  Uiso   1.00
O123   O     0.64262   0.11779   0.18832   0.00000  Uiso   1.00
O124   O     0.35715   0.21501   0.31220   0.00000  Uiso   1.00
O125   O     0.40522   0.11286   0.19348   0.00000  Uiso   1.00
O126   O     0.59466   0.22022   0.30684   0.00000  Uiso   1.00
O127   O     0.53821   0.10558   0.25000   0.00000  Uiso   1.00
O128   O     0.53823   0.22774   0.25000   0.00000  Uiso   1.00
O129   O     0.46177   0.10559   0.25000   0.00000  Uiso   1.00
O130   O     0.43994   0.16667   0.31612   0.00000  Uiso   1.00
O131   O     0.56006   0.16666   0.18388   0.00000  Uiso   1.00
O132   O     0.51639   0.16666   0.31612   0.00000  Uiso   1.00
O133   O     0.48361   0.16667   0.18388   0.00000  Uiso   1.00
O134   O     0.57940   0.03874   0.17952   0.00000  Uiso   1.00
Zn135  Zn    0.44896   0.16667   0.25000   0.00000  Uiso   1.00
Zn136  Zn    0.55104   0.16666   0.25000   0.00000  Uiso   1.00
Br137  Br    0.98072   0.19669   0.10593   0.00000  Uiso   1.00
Br138  Br    0.69399   0.11892   0.38644   0.00000  Uiso   1.00
C139   C     0.83298   0.24657   0.25128   0.00000  Uiso   1.00
C140   C     0.79299   0.31303   0.28480   0.00000  Uiso   1.00
C141   C     0.83361   0.04262   0.24759   0.00000  Uiso   1.00
C142   C     0.83304   0.29072   0.25245   0.00000  Uiso   1.00
C143   C     0.98793   0.14127   0.21975   0.00000  Uiso   1.00
C144   C     0.67866   0.19188   0.28043   0.00000  Uiso   1.00
C145   C     0.70289   0.14043   0.22064   0.00000  Uiso   1.00
C146   C     0.96373   0.19278   0.27949   0.00000  Uiso   1.00
C147   C     0.80228   0.16575   0.33816   0.00000  Uiso   1.00
C148   C     0.86442   0.16675   0.16171   0.00000  Uiso   1.00
C149   C     0.78235   0.16012   0.38890   0.00000  Uiso   1.00
C150   C     0.83368   0.08676   0.24875   0.00000  Uiso   1.00
C151   C     0.88470   0.16608   0.11036   0.00000  Uiso   1.00
C152   C     0.72704   0.12773   0.46056   0.00000  Uiso   1.00
C153   C     0.94642   0.18196   0.03366   0.00000  Uiso   1.00
C154   C     0.73822   0.13837   0.41400   0.00000  Uiso   1.00
C155   C     0.93284   0.17914   0.08191   0.00000  Uiso   1.00
C156   C     0.81339   0.17138   0.41109   0.00000  Uiso   1.00
C157   C     0.85248   0.15391   0.08960   0.00000  Uiso   1.00
C158   C     0.80600   0.15599   0.45524   0.00000  Uiso   1.00
C159   C     0.86516   0.15722   0.04151   0.00000  Uiso   1.00
C160   C     0.76097   0.13554   0.48098   0.00000  Uiso   1.00
C161   C     0.78499   0.12840   0.04616   0.00000  Uiso   1.00
C162   C     0.91258   0.17258   0.01360   0.00000  Uiso   1.00
C163   C     0.84247   0.16002   0.47401   0.00000  Uiso   1.00
C164   C     0.83071   0.14840   0.02113   0.00000  Uiso   1.00
C165   C     0.89087   0.17381   0.44666   0.00000  Uiso   1.00
C166   C     0.75102   0.12192   0.02618   0.00000  Uiso   1.00
C167   C     0.92529   0.17960   0.46619   0.00000  Uiso   1.00
C168   C     0.87318   0.31078   0.21868   0.00000  Uiso   1.00
C169   C     0.79347   0.02257   0.28137   0.00000  Uiso   1.00
C170   C     0.87364   0.02032   0.21523   0.00000  Uiso   1.00
H171   H     0.71683   0.10592   0.04619   0.00000  Uiso   1.00
H172   H     0.76332   0.04045   0.30633   0.00000  Uiso   1.00
H173   H     0.90335   0.06715   0.17363   0.00000  Uiso   1.00
H174   H     0.76322   0.26617   0.32634   0.00000  Uiso   1.00
H175   H     0.67272   0.11316   0.15978   0.00000  Uiso   1.00
H176   H     0.99370   0.21913   0.34085   0.00000  Uiso   1.00
H177   H     0.72244   0.08769   0.18712   0.00000  Uiso   1.00
H178   H     0.94405   0.24522   0.31364   0.00000  Uiso   1.00
H179   H     0.96167   0.19087   0.44429   0.00000  Uiso   1.00
H180   H     0.81611   0.14429   0.11232   0.00000  Uiso   1.00
H181   H     0.84444   0.19115   0.39221   0.00000  Uiso   1.00
H182   H     0.69301   0.11129   0.47998   0.00000  Uiso   1.00
H183   H     0.98289   0.19321   0.01201   0.00000  Uiso   1.00
H184   H     0.77493   0.11571   0.08071   0.00000  Uiso   1.00
H185   H     0.90386   0.17935   0.40957   0.00000  Uiso   1.00
H186   H     0.90333   0.29290   0.19372   0.00000  Uiso   1.00
N187   N     0.71426   0.16668   0.25001   0.00000  Uiso   1.00
N188   N     0.95241   0.16666   0.24999   0.00000  Uiso   1.00
O189   O     0.79512   0.22775   0.25000   0.00000  Uiso   1.00
O190   O     0.75387   0.29461   0.32048   0.00000  Uiso   1.00
O191   O     0.97596   0.11779   0.18832   0.00000  Uiso   1.00
O192   O     0.69048   0.21501   0.31220   0.00000  Uiso   1.00
O193   O     0.73856   0.11286   0.19348   0.00000  Uiso   1.00
O194   O     0.92799   0.22022   0.30684   0.00000  Uiso   1.00
O195   O     0.87154   0.10558   0.25000   0.00000  Uiso   1.00
O196   O     0.87157   0.22774   0.25000   0.00000  Uiso   1.00
O197   O     0.79510   0.10559   0.25000   0.00000  Uiso   1.00
O198   O     0.77328   0.16667   0.31612   0.00000  Uiso   1.00
O199   O     0.89339   0.16666   0.18388   0.00000  Uiso   1.00
O200   O     0.84972   0.16666   0.31612   0.00000  Uiso   1.00
O201   O     0.81695   0.16667   0.18388   0.00000  Uiso   1.00
O202   O     0.91274   0.03874   0.17952   0.00000  Uiso   1.00
Zn203  Zn    0.78229   0.16667   0.25000   0.00000  Uiso   1.00
Zn204  Zn    0.88438   0.16666   0.25000   0.00000  Uiso   1.00
Br205  Br    0.31406   0.53002   0.10593   0.00000  Uiso   1.00
Br206  Br    0.02733   0.45225   0.38644   0.00000  Uiso   1.00
C207   C     0.16631   0.57991   0.25128   0.00000  Uiso   1.00
C208   C     0.12633   0.64636   0.28480   0.00000  Uiso   1.00
C209   C     0.16694   0.37596   0.24759   0.00000  Uiso   1.00
C210   C     0.16637   0.62405   0.25245   0.00000  Uiso   1.00
C211   C     0.32127   0.47461   0.21975   0.00000  Uiso   1.00
C212   C     0.01199   0.52521   0.28043   0.00000  Uiso   1.00
C213   C     0.03622   0.47377   0.22064   0.00000  Uiso   1.00
C214   C     0.29706   0.52611   0.27949   0.00000  Uiso   1.00
C215   C     0.13561   0.49908   0.33816   0.00000  Uiso   1.00
C216   C     0.19775   0.50008   0.16171   0.00000  Uiso   1.00
C217   C     0.11568   0.49346   0.38890   0.00000  Uiso   1.00
C218   C     0.16701   0.42010   0.24875   0.00000  Uiso   1.00
C219   C     0.21803   0.49941   0.11036   0.00000  Uiso   1.00
C220   C     0.06037   0.46106   0.46056   0.00000  Uiso   1.00
C221   C     0.27975   0.51529   0.03366   0.00000  Uiso   1.00
C222   C     0.07156   0.47170   0.41400   0.00000  Uiso   1.00
C223   C     0.26618   0.51247   0.08191   0.00000  Uiso   1.00
C224   C     0.14673   0.50472   0.41109   0.00000  Uiso   1.00
C225   C     0.18582   0.48725   0.08960   0.00000  Uiso   1.00
C226   C     0.13933   0.48932   0.45524   0.00000  Uiso   1.00
C227   C     0.19849   0.49055   0.04151   0.00000  Uiso   1.00
C228   C     0.09430   0.46887   0.48098   0.00000  Uiso   1.00
C229   C     0.11833   0.46173   0.04616   0.00000  Uiso   1.00
C230   C     0.24591   0.50592   0.01360   0.00000  Uiso   1.00
C231   C     0.17581   0.49336   0.47401   0.00000  Uiso   1.00
C232   C     0.16404   0.48173   0.02113   0.00000  Uiso   1.00
C233   C     0.22420   0.50714   0.44666   0.00000  Uiso   1.00
C234   C     0.08435   0.45526   0.02618   0.00000  Uiso   1.00
C235   C     0.25862   0.51294   0.46619   0.00000  Uiso   1.00
C236   C     0.20651   0.64411   0.21868   0.00000  Uiso   1.00
C237   C     0.12680   0.35591   0.28137   0.00000  Uiso   1.00
C238   C     0.20697   0.35365   0.21523   0.00000  Uiso   1.00
H239   H     0.05016   0.43926   0.04619   0.00000  Uiso   1.00
H240   H     0.09666   0.37379   0.30633   0.00000  Uiso   1.00
H241   H     0.23668   0.40048   0.17363   0.00000  Uiso   1.00
H242   H     0.09655   0.59951   0.32634   0.00000  Uiso   1.00
H243   H     0.00605   0.44650   0.15978   0.00000  Uiso   1.00
H244   H     0.32703   0.55247   0.34085   0.00000  Uiso   1.00
H245   H     0.05577   0.42102   0.18712   0.00000  Uiso   1.00
H246   H     0.27738   0.57856   0.31364   0.00000  Uiso   1.00
H247   H     0.29500   0.52421   0.44429   0.00000  Uiso   1.00
H248   H     0.14945   0.47763   0.11232   0.00000  Uiso   1.00
H249   H     0.17778   0.52448   0.39221   0.00000  Uiso   1.00
H250   H     0.02634   0.44462   0.47998   0.00000  Uiso   1.00
H251   H     0.31623   0.52654   0.01201   0.00000  Uiso   1.00
H252   H     0.10827   0.44904   0.08071   0.00000  Uiso   1.00
H253   H     0.23719   0.51269   0.40957   0.00000  Uiso   1.00
H254   H     0.23666   0.62623   0.19372   0.00000  Uiso   1.00
N255   N     0.04759   0.50001   0.25001   0.00000  Uiso   1.00
N256   N     0.28574   0.49999   0.24999   0.00000  Uiso   1.00
O257   O     0.12846   0.56108   0.25000   0.00000  Uiso   1.00
O258   O     0.08720   0.62794   0.32048   0.00000  Uiso   1.00
O259   O     0.30929   0.45112   0.18832   0.00000  Uiso   1.00
O260   O     0.02381   0.54834   0.31220   0.00000  Uiso   1.00
O261   O     0.07189   0.44619   0.19348   0.00000  Uiso   1.00
O262   O     0.26132   0.55355   0.30684   0.00000  Uiso   1.00
O263   O     0.20488   0.43892   0.25000   0.00000  Uiso   1.00
O264   O     0.20490   0.56107   0.25000   0.00000  Uiso   1.00
O265   O     0.12843   0.43893   0.25000   0.00000  Uiso   1.00
O266   O     0.10661   0.50001   0.31612   0.00000  Uiso   1.00
O267   O     0.22672   0.49999   0.18388   0.00000  Uiso   1.00
O268   O     0.18305   0.50000   0.31612   0.00000  Uiso   1.00
O269   O     0.15028   0.50000   0.18388   0.00000  Uiso   1.00
O270   O     0.24607   0.37207   0.17952   0.00000  Uiso   1.00
Zn271  Zn    0.11562   0.50001   0.25000   0.00000  Uiso   1.00
Zn272  Zn    0.21771   0.49999   0.25000   0.00000  Uiso   1.00
Br273  Br    0.64739   0.53002   0.10593   0.00000  Uiso   1.00
Br274  Br    0.36066   0.45225   0.38644   0.00000  Uiso   1.00
C275   C     0.49964   0.57991   0.25128   0.00000  Uiso   1.00
C276   C     0.45966   0.64636   0.28480   0.00000  Uiso   1.00
C277   C     0.50027   0.37596   0.24759   0.00000  Uiso   1.00
C278   C     0.49971   0.62405   0.25245   0.00000  Uiso   1.00
C279   C     0.65460   0.47461   0.21975   0.00000  Uiso   1.00
C280   C     0.34532   0.52521   0.28043   0.00000  Uiso   1.00
C281   C     0.36955   0.47377   0.22064   0.00000  Uiso   1.00
C282   C     0.63040   0.52611   0.27949   0.00000  Uiso   1.00
C283   C     0.46895   0.49908   0.33816   0.00000  Uiso   1.00
C284   C     0.53109   0.50008   0.16171   0.00000  Uiso   1.00
C285   C     0.44901   0.49346   0.38890   0.00000  Uiso   1.00
C286   C     0.50034   0.42010   0.24875   0.00000  Uiso   1.00
C287   C     0.55136   0.49941   0.11036   0.00000  Uiso   1.00
C288   C     0.39371   0.46106   0.46056   0.00000  Uiso   1.00
C289   C     0.61309   0.51529   0.03366   0.00000  Uiso   1.00
C290   C     0.40489   0.47170   0.41400   0.00000  Uiso   1.00
C291   C     0.59951   0.51247   0.08191   0.00000  Uiso   1.00
C292   C     0.48006   0.50472   0.41109   0.00000  Uiso   1.00
C293   C     0.51915   0.48725   0.08960   0.00000  Uiso   1.00
C294   C     0.47267   0.48932   0.45524   0.00000  Uiso   1.00
C295   C     0.53183   0.49055   0.04151   0.00000  Uiso   1.00
C296   C     0.42764   0.46887   0.48098   0.00000  Uiso   1.00
C297   C     0.45166   0.46173   0.04616   0.00000  Uiso   1.00
C298   C     0.57924   0.50592   0.01360   0.00000  Uiso   1.00
C299   C     0.50914   0.49336   0.47401   0.00000  Uiso   1.00
C300   C     0.49737   0.48173   0.02113   0.00000  Uiso   1.00
C301   C     0.55754   0.50714   0.44666   0.00000  Uiso   1.00
C302   C     0.41768   0.45526   0.02618   0.00000  Uiso   1.00
C303   C     0.59196   0.51294   0.46619   0.00000  Uiso   1.00
C304   C     0.53985   0.64411   0.21868   0.00000  Uiso   1.00
C305   C     0.46014   0.35591   0.28137   0.00000  Uiso   1.00
C306   C     0.54031   0.35365   0.21523   0.00000  Uiso   1.00
H307   H     0.38350   0.43926   0.04619   0.00000  Uiso   1.00
H308   H     0.42999   0.37379   0.30633   0.00000  Uiso   1.00
H309   H     0.57001   0.40048   0.17363   0.00000  Uiso   1.00
H310   H     0.42989   0.59951   0.32634   0.00000  Uiso   1.00
H311   H     0.33939   0.44650   0.15978   0.00000  Uiso   1.00
H312   H     0.66036   0.55247   0.34085   0.00000  Uiso   1.00
H313   H     0.38911   0.42102   0.18712   0.00000  Uiso   1.00
H314   H     0.61071   0.57856   0.31364   0.00000  Uiso   1.00
H315   H     0.62833   0.52421   0.44429   0.00000  Uiso   1.00
H316   H     0.48278   0.47763   0.11232   0.00000  Uiso   1.00
H317   H     0.51111   0.52448   0.39221   0.00000  Uiso   1.00
H318   H     0.35967   0.44462   0.47998   0.00000  Uiso   1.00
H319   H     0.64956   0.52654   0.01201   0.00000  Uiso   1.00
H320   H     0.44160   0.44904   0.08071   0.00000  Uiso   1.00
H321   H     0.57052   0.51269   0.40957   0.00000  Uiso   1.00
H322   H     0.57000   0.62623   0.19372   0.00000  Uiso   1.00
N323   N     0.38093   0.50001   0.25001   0.00000  Uiso   1.00
N324   N     0.61907   0.49999   0.24999   0.00000  Uiso   1.00
O325   O     0.46179   0.56108   0.25000   0.00000  Uiso   1.00
O326   O     0.42054   0.62794   0.32048   0.00000  Uiso   1.00
O327   O     0.64262   0.45112   0.18832   0.00000  Uiso   1.00
O328   O     0.35715   0.54834   0.31220   0.00000  Uiso   1.00
O329   O     0.40522   0.44619   0.19348   0.00000  Uiso   1.00
O330   O     0.59466   0.55355   0.30684   0.00000  Uiso   1.00
O331   O     0.53821   0.43892   0.25000   0.00000  Uiso   1.00
O332   O     0.53823   0.56107   0.25000   0.00000  Uiso   1.00
O333   O     0.46177   0.43893   0.25000   0.00000  Uiso   1.00
O334   O     0.43994   0.50001   0.31612   0.00000  Uiso   1.00
O335   O     0.56006   0.49999   0.18388   0.00000  Uiso   1.00
O336   O     0.51639   0.50000   0.31612   0.00000  Uiso   1.00
O337   O     0.48361   0.50000   0.18388   0.00000  Uiso   1.00
O338   O     0.57940   0.37207   0.17952   0.00000  Uiso   1.00
Zn339  Zn    0.44896   0.50001   0.25000   0.00000  Uiso   1.00
Zn340  Zn    0.55104   0.49999   0.25000   0.00000  Uiso   1.00
Br341  Br    0.98072   0.53002   0.10593   0.00000  Uiso   1.00
Br342  Br    0.69399   0.45225   0.38644   0.00000  Uiso   1.00
C343   C     0.83298   0.57991   0.25128   0.00000  Uiso   1.00
C344   C     0.79299   0.64636   0.28480   0.00000  Uiso   1.00
C345   C     0.83361   0.37596   0.24759   0.00000  Uiso   1.00
C346   C     0.83304   0.62405   0.25245   0.00000  Uiso   1.00
C347   C     0.98793   0.47461   0.21975   0.00000  Uiso   1.00
C348   C     0.67866   0.52521   0.28043   0.00000  Uiso   1.00
C349   C     0.70289   0.47377   0.22064   0.00000  Uiso   1.00
C350   C     0.96373   0.52611   0.27949   0.00000  Uiso   1.00
C351   C     0.80228   0.49908   0.33816   0.00000  Uiso   1.00
C352   C     0.86442   0.50008   0.16171   0.00000  Uiso   1.00
C353   C     0.78235   0.49346   0.38890   0.00000  Uiso   1.00
C354   C     0.83368   0.42010   0.24875   0.00000  Uiso   1.00
C355   C     0.88470   0.49941   0.11036   0.00000  Uiso   1.00
C356   C     0.72704   0.46106   0.46056   0.00000  Uiso   1.00
C357   C     0.94642   0.51529   0.03366   0.00000  Uiso   1.00
C358   C     0.73822   0.47170   0.41400   0.00000  Uiso   1.00
C359   C     0.93284   0.51247   0.08191   0.00000  Uiso   1.00
C360   C     0.81339   0.50472   0.41109   0.00000  Uiso   1.00
C361   C     0.85248   0.48725   0.08960   0.00000  Uiso   1.00
C362   C     0.80600   0.48932   0.45524   0.00000  Uiso   1.00
C363   C     0.86516   0.49055   0.04151   0.00000  Uiso   1.00
C364   C     0.76097   0.46887   0.48098   0.00000  Uiso   1.00
C365   C     0.78499   0.46173   0.04616   0.00000  Uiso   1.00
C366   C     0.91258   0.50592   0.01360   0.00000  Uiso   1.00
C367   C     0.84247   0.49336   0.47401   0.00000  Uiso   1.00
C368   C     0.83071   0.48173   0.02113   0.00000  Uiso   1.00
C369   C     0.89087   0.50714   0.44666   0.00000  Uiso   1.00
C370   C     0.75102   0.45526   0.02618   0.00000  Uiso   1.00
C371   C     0.92529   0.51294   0.46619   0.00000  Uiso   1.00
C372   C     0.87318   0.64411   0.21868   0.00000  Uiso   1.00
C373   C     0.79347   0.35591   0.28137   0.00000  Uiso   1.00
C374   C     0.87364   0.35365   0.21523   0.00000  Uiso   1.00
H375   H     0.71683   0.43926   0.04619   0.00000  Uiso   1.00
H376   H     0.76332   0.37379   0.30633   0.00000  Uiso   1.00
H377   H     0.90335   0.40048   0.17363   0.00000  Uiso   1.00
H378   H     0.76322   0.59951   0.32634   0.00000  Uiso   1.00
H379   H     0.67272   0.44650   0.15978   0.00000  Uiso   1.00
H380   H     0.99370   0.55247   0.34085   0.00000  Uiso   1.00
H381   H     0.72244   0.42102   0.18712   0.00000  Uiso   1.00
H382   H     0.94405   0.57856   0.31364   0.00000  Uiso   1.00
H383   H     0.96167   0.52421   0.44429   0.00000  Uiso   1.00
H384   H     0.81611   0.47763   0.11232   0.00000  Uiso   1.00
H385   H     0.84444   0.52448   0.39221   0.00000  Uiso   1.00
H386   H     0.69301   0.44462   0.47998   0.00000  Uiso   1.00
H387   H     0.98289   0.52654   0.01201   0.00000  Uiso   1.00
H388   H     0.77493   0.44904   0.08071   0.00000  Uiso   1.00
H389   H     0.90386   0.51269   0.40957   0.00000  Uiso   1.00
H390   H     0.90333   0.62623   0.19372   0.00000  Uiso   1.00
N391   N     0.71426   0.50001   0.25001   0.00000  Uiso   1.00
N392   N     0.95241   0.49999   0.24999   0.00000  Uiso   1.00
O393   O     0.79512   0.56108   0.25000   0.00000  Uiso   1.00
O394   O     0.75387   0.62794   0.32048   0.00000  Uiso   1.00
O395   O     0.97596   0.45112   0.18832   0.00000  Uiso   1.00
O396   O     0.69048   0.54834   0.31220   0.00000  Uiso   1.00
O397   O     0.73856   0.44619   0.19348   0.00000  Uiso   1.00
O398   O     0.92799   0.55355   0.30684   0.00000  Uiso   1.00
O399   O     0.87154   0.43892   0.25000   0.00000  Uiso   1.00
O400   O     0.87157   0.56107   0.25000   0.00000  Uiso   1.00
O401   O     0.79510   0.43893   0.25000   0.00000  Uiso   1.00
O402   O     0.77328   0.50001   0.31612   0.00000  Uiso   1.00
O403   O     0.89339   0.49999   0.18388   0.00000  Uiso   1.00
O404   O     0.84972   0.50000   0.31612   0.00000  Uiso   1.00
O405   O     0.81695   0.50000   0.18388   0.00000  Uiso   1.00
O406   O     0.91274   0.37207   0.17952   0.00000  Uiso   1.00
Zn407  Zn    0.78229   0.50001   0.25000   0.00000  Uiso   1.00
Zn408  Zn    0.88438   0.49999   0.25000   0.00000  Uiso   1.00
Br409  Br    0.31406   0.86336   0.10593   0.00000  Uiso   1.00
Br410  Br    0.02733   0.78558   0.38644   0.00000  Uiso   1.00
C411   C     0.16631   0.91324   0.25128   0.00000  Uiso   1.00
C412   C     0.12633   0.97969   0.28480   0.00000  Uiso   1.00
C413   C     0.16694   0.70929   0.24759   0.00000  Uiso   1.00
C414   C     0.16637   0.95739   0.25245   0.00000  Uiso   1.00
C415   C     0.32127   0.80794   0.21975   0.00000  Uiso   1.00
C416   C     0.01199   0.85854   0.28043   0.00000  Uiso   1.00
C417   C     0.03622   0.80710   0.22064   0.00000  Uiso   1.00
C418   C     0.29706   0.85945   0.27949   0.00000  Uiso   1.00
C419   C     0.13561   0.83241   0.33816   0.00000  Uiso   1.00
C420   C     0.19775   0.83342   0.16171   0.00000  Uiso   1.00
C421   C     0.11568   0.82679   0.38890   0.00000  Uiso   1.00
C422   C     0.16701   0.75343   0.24875   0.00000  Uiso   1.00
C423   C     0.21803   0.83275   0.11036   0.00000  Uiso   1.00
C424   C     0.06037   0.79439   0.46056   0.00000  Uiso   1.00
C425   C     0.27975   0.84863   0.03366   0.00000  Uiso   1.00
C426   C     0.07156   0.80504   0.41400   0.00000  Uiso   1.00
C427   C     0.26618   0.84581   0.08191   0.00000  Uiso   1.00
C428   C     0.14673   0.83805   0.41109   0.00000  Uiso   1.00
C429   C     0.18582   0.82058   0.08960   0.00000  Uiso   1.00
C430   C     0.13933   0.82265   0.45524   0.00000  Uiso   1.00
C431   C     0.19849   0.82388   0.04151   0.00000  Uiso   1.00
C432   C     0.09430   0.80221   0.48098   0.00000  Uiso   1.00
C433   C     0.11833   0.79507   0.04616   0.00000  Uiso   1.00
C434   C     0.24591   0.83925   0.01360   0.00000  Uiso   1.00
C435   C     0.17581   0.82669   0.47401   0.00000  Uiso   1.00
C436   C     0.16404   0.81507   0.02113   0.00000  Uiso   1.00
C437   C     0.22420   0.84048   0.44666   0.00000  Uiso   1.00
C438   C     0.08435   0.78859   0.02618   0.00000  Uiso   1.00
C439   C     0.25862   0.84627   0.46619   0.00000  Uiso   1.00
C440   C     0.20651   0.97744   0.21868   0.00000  Uiso   1.00
C441   C     0.12680   0.68924   0.28137   0.00000  Uiso   1.00
C442   C     0.20697   0.68699   0.21523   0.00000  Uiso   1.00
H443   H     0.05016   0.77259   0.04619   0.00000  Uiso   1.00
H444   H     0.09666   0.70712   0.30633   0.00000  Uiso   1.00
H445   H     0.23668   0.73382   0.17363   0.00000  Uiso   1.00
H446   H     0.09655   0.93284   0.32634   0.00000  Uiso   1.00
H447   H     0.00605   0.77983   0.15978   0.00000  Uiso   1.00
H448   H     0.32703   0.88580   0.34085   0.00000  Uiso   1.00
H449   H     0.05577   0.75435   0.18712   0.00000  Uiso   1.00
H450   H     0.27738   0.91189   0.31364   0.00000  Uiso   1.00
H451   H     0.29500   0.85754   0.44429   0.00000  Uiso   1.00
H452   H     0.14945   0.81096   0.11232   0.00000  Uiso   1.00
H453   H     0.17778   0.85781   0.39221   0.00000  Uiso   1.00
H454   H     0.02634   0.77796   0.47998   0.00000  Uiso   1.00
H455   H     0.31623   0.85988   0.01201   0.00000  Uiso   1.00
H456   H     0.10827   0.78238   0.08071   0.00000  Uiso   1.00
H457   H     0.23719   0.84602   0.40957   0.00000  Uiso   1.00
H458   H     0.23666   0.95956   0.19372   0.00000  Uiso   1.00
N459   N     0.04759   0.83334   0.25001   0.00000  Uiso   1.00
N460   N     0.28574   0.83332   0.24999   0.00000  Uiso   1.00
O461   O     0.12846   0.89442   0.25000   0.00000  Uiso   1.00
O462   O     0.08720   0.96128   0.32048   0.00000  Uiso   1.00
O463   O     0.30929   0.78446   0.18832   0.00000  Uiso   1.00
O464   O     0.02381   0.88167   0.31220   0.00000  Uiso   1.00
O465   O     0.07189   0.77952   0.19348   0.00000  Uiso   1.00
O466   O     0.26132   0.88688   0.30684   0.00000  Uiso   1.00
O467   O     0.20488   0.77225   0.25000   0.00000  Uiso   1.00
O468   O     0.20490   0.89441   0.25000   0.00000  Uiso   1.00
O469   O     0.12843   0.77226   0.25000   0.00000  Uiso   1.00
O470   O     0.10661   0.83334   0.31612   0.00000  Uiso   1.00
O471   O     0.22672   0.83333   0.18388   0.00000  Uiso   1.00
O472   O     0.18305   0.83333   0.31612   0.00000  Uiso   1.00
O473   O     0.15028   0.83334   0.18388   0.00000  Uiso   1.00
O474   O     0.24607   0.70540   0.17952   0.00000  Uiso   1.00
Zn475  Zn    0.11562   0.83334   0.25000   0.00000  Uiso   1.00
Zn476  Zn    0.21771   0.83333   0.25000   0.00000  Uiso   1.00
Br477  Br    0.64739   0.86336   0.10593   0.00000  Uiso   1.00
Br478  Br    0.36066   0.78558   0.38644   0.00000  Uiso   1.00
C479   C     0.49964   0.91324   0.25128   0.00000  Uiso   1.00
C480   C     0.45966   0.97969   0.28480   0.00000  Uiso   1.00
C481   C     0.50027   0.70929   0.24759   0.00000  Uiso   1.00
C482   C     0.49971   0.95739   0.25245   0.00000  Uiso   1.00
C483   C     0.65460   0.80794   0.21975   0.00000  Uiso   1.00
C484   C     0.34532   0.85854   0.28043   0.00000  Uiso   1.00
C485   C     0.36955   0.80710   0.22064   0.00000  Uiso   1.00
C486   C     0.63040   0.85945   0.27949   0.00000  Uiso   1.00
C487   C     0.46895   0.83241   0.33816   0.00000  Uiso   1.00
C488   C     0.53109   0.83342   0.16171   0.00000  Uiso   1.00
C489   C     0.44901   0.82679   0.38890   0.00000  Uiso   1.00
C490   C     0.50034   0.75343   0.24875   0.00000  Uiso   1.00
C491   C     0.55136   0.83275   0.11036   0.00000  Uiso   1.00
C492   C     0.39371   0.79439   0.46056   0.00000  Uiso   1.00
C493   C     0.61309   0.84863   0.03366   0.00000  Uiso   1.00
C494   C     0.40489   0.80504   0.41400   0.00000  Uiso   1.00
C495   C     0.59951   0.84581   0.08191   0.00000  Uiso   1.00
C496   C     0.48006   0.83805   0.41109   0.00000  Uiso   1.00
C497   C     0.51915   0.82058   0.08960   0.00000  Uiso   1.00
C498   C     0.47267   0.82265   0.45524   0.00000  Uiso   1.00
C499   C     0.53183   0.82388   0.04151   0.00000  Uiso   1.00
C500   C     0.42764   0.80221   0.48098   0.00000  Uiso   1.00
C501   C     0.45166   0.79507   0.04616   0.00000  Uiso   1.00
C502   C     0.57924   0.83925   0.01360   0.00000  Uiso   1.00
C503   C     0.50914   0.82669   0.47401   0.00000  Uiso   1.00
C504   C     0.49737   0.81507   0.02113   0.00000  Uiso   1.00
C505   C     0.55754   0.84048   0.44666   0.00000  Uiso   1.00
C506   C     0.41768   0.78859   0.02618   0.00000  Uiso   1.00
C507   C     0.59196   0.84627   0.46619   0.00000  Uiso   1.00
C508   C     0.53985   0.97744   0.21868   0.00000  Uiso   1.00
C509   C     0.46014   0.68924   0.28137   0.00000  Uiso   1.00
C510   C     0.54031   0.68699   0.21523   0.00000  Uiso   1.00
H511   H     0.38350   0.77259   0.04619   0.00000  Uiso   1.00
H512   H     0.42999   0.70712   0.30633   0.00000  Uiso   1.00
H513   H     0.57001   0.73382   0.17363   0.00000  Uiso   1.00
H514   H     0.42989   0.93284   0.32634   0.00000  Uiso   1.00
H515   H     0.33939   0.77983   0.15978   0.00000  Uiso   1.00
H516   H     0.66036   0.88580   0.34085   0.00000  Uiso   1.00
H517   H     0.38911   0.75435   0.18712   0.00000  Uiso   1.00
H518   H     0.61071   0.91189   0.31364   0.00000  Uiso   1.00
H519   H     0.62833   0.85754   0.44429   0.00000  Uiso   1.00
H520   H     0.48278   0.81096   0.11232   0.00000  Uiso   1.00
H521   H     0.51111   0.85781   0.39221   0.00000  Uiso   1.00
H522   H     0.35967   0.77796   0.47998   0.00000  Uiso   1.00
H523   H     0.64956   0.85988   0.01201   0.00000  Uiso   1.00
H524   H     0.44160   0.78238   0.08071   0.00000  Uiso   1.00
H525   H     0.57052   0.84602   0.40957   0.00000  Uiso   1.00
H526   H     0.57000   0.95956   0.19372   0.00000  Uiso   1.00
N527   N     0.38093   0.83334   0.25001   0.00000  Uiso   1.00
N528   N     0.61907   0.83332   0.24999   0.00000  Uiso   1.00
O529   O     0.46179   0.89442   0.25000   0.00000  Uiso   1.00
O530   O     0.42054   0.96128   0.32048   0.00000  Uiso   1.00
O531   O     0.64262   0.78446   0.18832   0.00000  Uiso   1.00
O532   O     0.35715   0.88167   0.31220   0.00000  Uiso   1.00
O533   O     0.40522   0.77952   0.19348   0.00000  Uiso   1.00
O534   O     0.59466   0.88688   0.30684   0.00000  Uiso   1.00
O535   O     0.53821   0.77225   0.25000   0.00000  Uiso   1.00
O536   O     0.53823   0.89441   0.25000   0.00000  Uiso   1.00
O537   O     0.46177   0.77226   0.25000   0.00000  Uiso   1.00
O538   O     0.43994   0.83334   0.31612   0.00000  Uiso   1.00
O539   O     0.56006   0.83333   0.18388   0.00000  Uiso   1.00
O540   O     0.51639   0.83333   0.31612   0.00000  Uiso   1.00
O541   O     0.48361   0.83334   0.18388   0.00000  Uiso   1.00
O542   O     0.57940   0.70540   0.17952   0.00000  Uiso   1.00
Zn543  Zn    0.44896   0.83334   0.25000   0.00000  Uiso   1.00
Zn544  Zn    0.55104   0.83333   0.25000   0.00000  Uiso   1.00
Br545  Br    0.98072   0.86336   0.10593   0.00000  Uiso   1.00
Br546  Br    0.69399   0.78558   0.38644   0.00000  Uiso   1.00
C547   C     0.83298   0.91324   0.25128   0.00000  Uiso   1.00
C548   C     0.79299   0.97969   0.28480   0.00000  Uiso   1.00
C549   C     0.83361   0.70929   0.24759   0.00000  Uiso   1.00
C550   C     0.83304   0.95739   0.25245   0.00000  Uiso   1.00
C551   C     0.98793   0.80794   0.21975   0.00000  Uiso   1.00
C552   C     0.67866   0.85854   0.28043   0.00000  Uiso   1.00
C553   C     0.70289   0.80710   0.22064   0.00000  Uiso   1.00
C554   C     0.96373   0.85945   0.27949   0.00000  Uiso   1.00
C555   C     0.80228   0.83241   0.33816   0.00000  Uiso   1.00
C556   C     0.86442   0.83342   0.16171   0.00000  Uiso   1.00
C557   C     0.78235   0.82679   0.38890   0.00000  Uiso   1.00
C558   C     0.83368   0.75343   0.24875   0.00000  Uiso   1.00
C559   C     0.88470   0.83275   0.11036   0.00000  Uiso   1.00
C560   C     0.72704   0.79439   0.46056   0.00000  Uiso   1.00
C561   C     0.94642   0.84863   0.03366   0.00000  Uiso   1.00
C562   C     0.73822   0.80504   0.41400   0.00000  Uiso   1.00
C563   C     0.93284   0.84581   0.08191   0.00000  Uiso   1.00
C564   C     0.81339   0.83805   0.41109   0.00000  Uiso   1.00
C565   C     0.85248   0.82058   0.08960   0.00000  Uiso   1.00
C566   C     0.80600   0.82265   0.45524   0.00000  Uiso   1.00
C567   C     0.86516   0.82388   0.04151   0.00000  Uiso   1.00
C568   C     0.76097   0.80221   0.48098   0.00000  Uiso   1.00
C569   C     0.78499   0.79507   0.04616   0.00000  Uiso   1.00
C570   C     0.91258   0.83925   0.01360   0.00000  Uiso   1.00
C571   C     0.84247   0.82669   0.47401   0.00000  Uiso   1.00
C572   C     0.83071   0.81507   0.02113   0.00000  Uiso   1.00
C573   C     0.89087   0.84048   0.44666   0.00000  Uiso   1.00
C574   C     0.75102   0.78859   0.02618   0.00000  Uiso   1.00
C575   C     0.92529   0.84627   0.46619   0.00000  Uiso   1.00
C576   C     0.87318   0.97744   0.21868   0.00000  Uiso   1.00
C577   C     0.79347   0.68924   0.28137   0.00000  Uiso   1.00
C578   C     0.87364   0.68699   0.21523   0.00000  Uiso   1.00
H579   H     0.71683   0.77259   0.04619   0.00000  Uiso   1.00
H580   H     0.76332   0.70712   0.30633   0.00000  Uiso   1.00
H581   H     0.90335   0.73382   0.17363   0.00000  Uiso   1.00
H582   H     0.76322   0.93284   0.32634   0.00000  Uiso   1.00
H583   H     0.67272   0.77983   0.15978   0.00000  Uiso   1.00
H584   H     0.99370   0.88580   0.34085   0.00000  Uiso   1.00
H585   H     0.72244   0.75435   0.18712   0.00000  Uiso   1.00
H586   H     0.94405   0.91189   0.31364   0.00000  Uiso   1.00
H587   H     0.96167   0.85754   0.44429   0.00000  Uiso   1.00
H588   H     0.81611   0.81096   0.11232   0.00000  Uiso   1.00
H589   H     0.84444   0.85781   0.39221   0.00000  Uiso   1.00
H590   H     0.69301   0.77796   0.47998   0.00000  Uiso   1.00
H591   H     0.98289   0.85988   0.01201   0.00000  Uiso   1.00
H592   H     0.77493   0.78238   0.08071   0.00000  Uiso   1.00
H593   H     0.90386   0.84602   0.40957   0.00000  Uiso   1.00
H594   H     0.90333   0.95956   0.19372   0.00000  Uiso   1.00
N595   N     0.71426   0.83334   0.25001   0.00000  Uiso   1.00
N596   N     0.95241   0.83332   0.24999   0.00000  Uiso   1.00
O597   O     0.79512   0.89442   0.25000   0.00000  Uiso   1.00
O598   O     0.75387   0.96128   0.32048   0.00000  Uiso   1.00
O599   O     0.97596   0.78446   0.18832   0.00000  Uiso   1.00
O600   O     0.69048   0.88167   0.31220   0.00000  Uiso   1.00
O601   O     0.73856   0.77952   0.19348   0.00000  Uiso   1.00
O602   O     0.92799   0.88688   0.30684   0.00000  Uiso   1.00
O603   O     0.87154   0.77225   0.25000   0.00000  Uiso   1.00
O604   O     0.87157   0.89441   0.25000   0.00000  Uiso   1.00
O605   O     0.79510   0.77226   0.25000   0.00000  Uiso   1.00
O606   O     0.77328   0.83334   0.31612   0.00000  Uiso   1.00
O607   O     0.89339   0.83333   0.18388   0.00000  Uiso   1.00
O608   O     0.84972   0.83333   0.31612   0.00000  Uiso   1.00
O609   O     0.81695   0.83334   0.18388   0.00000  Uiso   1.00
O610   O     0.91274   0.70540   0.17952   0.00000  Uiso   1.00
Zn611  Zn    0.78229   0.83334   0.25000   0.00000  Uiso   1.00
Zn612  Zn    0.88438   0.83333   0.25000   0.00000  Uiso   1.00
Br613  Br    0.31406   0.19669   0.60593   0.00000  Uiso   1.00
Br614  Br    0.02733   0.11892   0.88644   0.00000  Uiso   1.00
C615   C     0.16631   0.24657   0.75128   0.00000  Uiso   1.00
C616   C     0.12633   0.31303   0.78480   0.00000  Uiso   1.00
C617   C     0.16694   0.04262   0.74759   0.00000  Uiso   1.00
C618   C     0.16637   0.29072   0.75245   0.00000  Uiso   1.00
C619   C     0.32127   0.14127   0.71975   0.00000  Uiso   1.00
C620   C     0.01199   0.19188   0.78043   0.00000  Uiso   1.00
C621   C     0.03622   0.14043   0.72064   0.00000  Uiso   1.00
C622   C     0.29706   0.19278   0.77949   0.00000  Uiso   1.00
C623   C     0.13561   0.16575   0.83816   0.00000  Uiso   1.00
C624   C     0.19775   0.16675   0.66171   0.00000  Uiso   1.00
C625   C     0.11568   0.16012   0.88890   0.00000  Uiso   1.00
C626   C     0.16701   0.08676   0.74875   0.00000  Uiso   1.00
C627   C     0.21803   0.16608   0.61036   0.00000  Uiso   1.00
C628   C     0.06037   0.12773   0.96056   0.00000  Uiso   1.00
C629   C     0.27975   0.18196   0.53366   0.00000  Uiso   1.00
C630   C     0.07156   0.13837   0.91400   0.00000  Uiso   1.00
C631   C     0.26618   0.17914   0.58191   0.00000  Uiso   1.00
C632   C     0.14673   0.17138   0.91109   0.00000  Uiso   1.00
C633   C     0.18582   0.15391   0.58960   0.00000  Uiso   1.00
C634   C     0.13933   0.15599   0.95524   0.00000  Uiso   1.00
C635   C     0.19849   0.15722   0.54151   0.00000  Uiso   1.00
C636   C     0.09430   0.13554   0.98098   0.00000  Uiso   1.00
C637   C     0.11833   0.12840   0.54616   0.00000  Uiso   1.00
C638   C     0.24591   0.17258   0.51360   0.00000  Uiso   1.00
C639   C     0.17581   0.16002   0.97401   0.00000  Uiso   1.00
C640   C     0.16404   0.14840   0.52113   0.00000  Uiso   1.00
C641   C     0.22420   0.17381   0.94666   0.00000  Uiso   1.00
C642   C     0.08435   0.12192   0.52618   0.00000  Uiso   1.00
C643   C     0.25862   0.17960   0.96619   0.00000  Uiso   1.00
C644   C     0.20651   0.31078   0.71868   0.00000  Uiso   1.00
C645   C     0.12680   0.02257   0.78137   0.00000  Uiso   1.00
C646   C     0.20697   0.02032   0.71523   0.00000  Uiso   1.00
H647   H     0.05016   0.10592   0.54619   0.00000  Uiso   1.00
H648   H     0.09666   0.04045   0.80633   0.00000  Uiso   1.00
H649   H     0.23668   0.06715   0.67363   0.00000  Uiso   1.00
H650   H     0.09655   0.26617   0.82634   0.00000  Uiso   1.00
H651   H     0.00605   0.11316   0.65978   0.00000  Uiso   1.00
H652   H     0.32703   0.21913   0.84085   0.00000  Uiso   1.00
H653   H     0.05577   0.08769   0.68712   0.00000  Uiso   1.00
H654   H     0.27738   0.24522   0.81364   0.00000  Uiso   1.00
H655   H     0.29500   0.19087   0.94429   0.00000  Uiso   1.00
H656   H     0.14945   0.14429   0.61232   0.00000  Uiso   1.00
H657   H     0.17778   0.19115   0.89221   0.00000  Uiso   1.00
H658   H     0.02634   0.11129   0.97998   0.00000  Uiso   1.00
H659   H     0.31623   0.19321   0.51201   0.00000  Uiso   1.00
H660   H     0.10827   0.11571   0.58071   0.00000  Uiso   1.00
H661   H     0.23719   0.17935   0.90957   0.00000  Uiso   1.00
H662   H     0.23666   0.29290   0.69372   0.00000  Uiso   1.00
N663   N     0.04759   0.16668   0.75001   0.00000  Uiso   1.00
N664   N     0.28574   0.16666   0.74999   0.00000  Uiso   1.00
O665   O     0.12846   0.22775   0.75000   0.00000  Uiso   1.00
O666   O     0.08720   0.29461   0.82048   0.00000  Uiso   1.00
O667   O     0.30929   0.11779   0.68832   0.00000  Uiso   1.00
O668   O     0.02381   0.21501   0.81220   0.00000  Uiso   1.00
O669   O     0.07189   0.11286   0.69348   0.00000  Uiso   1.00
O670   O     0.26132   0.22022   0.80684   0.00000  Uiso   1.00
O671   O     0.20488   0.10558   0.75000   0.00000  Uiso   1.00
O672   O     0.20490   0.22774   0.75000   0.00000  Uiso   1.00
O673   O     0.12843   0.10559   0.75000   0.00000  Uiso   1.00
O674   O     0.10661   0.16667   0.81612   0.00000  Uiso   1.00
O675   O     0.22672   0.16666   0.68388   0.00000  Uiso   1.00
O676   O     0.18305   0.16666   0.81612   0.00000  Uiso   1.00
O677   O     0.15028   0.16667   0.68388   0.00000  Uiso   1.00
O678   O     0.24607   0.03874   0.67952   0.00000  Uiso   1.00
Zn679  Zn    0.11562   0.16667   0.75000   0.00000  Uiso   1.00
Zn680  Zn    0.21771   0.16666   0.75000   0.00000  Uiso   1.00
Br681  Br    0.64739   0.19669   0.60593   0.00000  Uiso   1.00
Br682  Br    0.36066   0.11892   0.88644   0.00000  Uiso   1.00
C683   C     0.49964   0.24657   0.75128   0.00000  Uiso   1.00
C684   C     0.45966   0.31303   0.78480   0.00000  Uiso   1.00
C685   C     0.50027   0.04262   0.74759   0.00000  Uiso   1.00
C686   C     0.49971   0.29072   0.75245   0.00000  Uiso   1.00
C687   C     0.65460   0.14127   0.71975   0.00000  Uiso   1.00
C688   C     0.34532   0.19188   0.78043   0.00000  Uiso   1.00
C689   C     0.36955   0.14043   0.72064   0.00000  Uiso   1.00
C690   C     0.63040   0.19278   0.77949   0.00000  Uiso   1.00
C691   C     0.46895   0.16575   0.83816   0.00000  Uiso   1.00
C692   C     0.53109   0.16675   0.66171   0.00000  Uiso   1.00
C693   C     0.44901   0.16012   0.88890   0.00000  Uiso   1.00
C694   C     0.50034   0.08676   0.74875   0.00000  Uiso   1.00
C695   C     0.55136   0.16608   0.61036   0.00000  Uiso   1.00
C696   C     0.39371   0.12773   0.96056   0.00000  Uiso   1.00
C697   C     0.61309   0.18196   0.53366   0.00000  Uiso   1.00
C698   C     0.40489   0.13837   0.91400   0.00000  Uiso   1.00
C699   C     0.59951   0.17914   0.58191   0.00000  Uiso   1.00
C700   C     0.48006   0.17138   0.91109   0.00000  Uiso   1.00
C701   C     0.51915   0.15391   0.58960   0.00000  Uiso   1.00
C702   C     0.47267   0.15599   0.95524   0.00000  Uiso   1.00
C703   C     0.53183   0.15722   0.54151   0.00000  Uiso   1.00
C704   C     0.42764   0.13554   0.98098   0.00000  Uiso   1.00
C705   C     0.45166   0.12840   0.54616   0.00000  Uiso   1.00
C706   C     0.57924   0.17258   0.51360   0.00000  Uiso   1.00
C707   C     0.50914   0.16002   0.97401   0.00000  Uiso   1.00
C708   C     0.49737   0.14840   0.52113   0.00000  Uiso   1.00
C709   C     0.55754   0.17381   0.94666   0.00000  Uiso   1.00
C710   C     0.41768   0.12192   0.52618   0.00000  Uiso   1.00
C711   C     0.59196   0.17960   0.96619   0.00000  Uiso   1.00
C712   C     0.53985   0.31078   0.71868   0.00000  Uiso   1.00
C713   C     0.46014   0.02257   0.78137   0.00000  Uiso   1.00
C714   C     0.54031   0.02032   0.71523   0.00000  Uiso   1.00
H715   H     0.38350   0.10592   0.54619   0.00000  Uiso   1.00
H716   H     0.42999   0.04045   0.80633   0.00000  Uiso   1.00
H717   H     0.57001   0.06715   0.67363   0.00000  Uiso   1.00
H718   H     0.42989   0.26617   0.82634   0.00000  Uiso   1.00
H719   H     0.33939   0.11316   0.65978   0.00000  Uiso   1.00
H720   H     0.66036   0.21913   0.84085   0.00000  Uiso   1.00
H721   H     0.38911   0.08769   0.68712   0.00000  Uiso   1.00
H722   H     0.61071   0.24522   0.81364   0.00000  Uiso   1.00
H723   H     0.62833   0.19087   0.94429   0.00000  Uiso   1.00
H724   H     0.48278   0.14429   0.61232   0.00000  Uiso   1.00
H725   H     0.51111   0.19115   0.89221   0.00000  Uiso   1.00
H726   H     0.35967   0.11129   0.97998   0.00000  Uiso   1.00
H727   H     0.64956   0.19321   0.51201   0.00000  Uiso   1.00
H728   H     0.44160   0.11571   0.58071   0.00000  Uiso   1.00
H729   H     0.57052   0.17935   0.90957   0.00000  Uiso   1.00
H730   H     0.57000   0.29290   0.69372   0.00000  Uiso   1.00
N731   N     0.38093   0.16668   0.75001   0.00000  Uiso   1.00
N732   N     0.61907   0.16666   0.74999   0.00000  Uiso   1.00
O733   O     0.46179   0.22775   0.75000   0.00000  Uiso   1.00
O734   O     0.42054   0.29461   0.82048   0.00000  Uiso   1.00
O735   O     0.64262   0.11779   0.68832   0.00000  Uiso   1.00
O736   O     0.35715   0.21501   0.81220   0.00000  Uiso   1.00
O737   O     0.40522   0.11286   0.69348   0.00000  Uiso   1.00
O738   O     0.59466   0.22022   0.80684   0.00000  Uiso   1.00
O739   O     0.53821   0.10558   0.75000   0.00000  Uiso   1.00
O740   O     0.53823   0.22774   0.75000   0.00000  Uiso   1.00
O741   O     0.46177   0.10559   0.75000   0.00000  Uiso   1.00
O742   O     0.43994   0.16667   0.81612   0.00000  Uiso   1.00
O743   O     0.56006   0.16666   0.68388   0.00000  Uiso   1.00
O744   O     0.51639   0.16666   0.81612   0.00000  Uiso   1.00
O745   O     0.48361   0.16667   0.68388   0.00000  Uiso   1.00
O746   O     0.57940   0.03874   0.67952   0.00000  Uiso   1.00
Zn747  Zn    0.44896   0.16667   0.75000   0.00000  Uiso   1.00
Zn748  Zn    0.55104   0.16666   0.75000   0.00000  Uiso   1.00
Br749  Br    0.98072   0.19669   0.60593   0.00000  Uiso   1.00
Br750  Br    0.69399   0.11892   0.88644   0.00000  Uiso   1.00
C751   C     0.83298   0.24657   0.75128   0.00000  Uiso   1.00
C752   C     0.79299   0.31303   0.78480   0.00000  Uiso   1.00
C753   C     0.83361   0.04262   0.74759   0.00000  Uiso   1.00
C754   C     0.83304   0.29072   0.75245   0.00000  Uiso   1.00
C755   C     0.98793   0.14127   0.71975   0.00000  Uiso   1.00
C756   C     0.67866   0.19188   0.78043   0.00000  Uiso   1.00
C757   C     0.70289   0.14043   0.72064   0.00000  Uiso   1.00
C758   C     0.96373   0.19278   0.77949   0.00000  Uiso   1.00
C759   C     0.80228   0.16575   0.83816   0.00000  Uiso   1.00
C760   C     0.86442   0.16675   0.66171   0.00000  Uiso   1.00
C761   C     0.78235   0.16012   0.88890   0.00000  Uiso   1.00
C762   C     0.83368   0.08676   0.74875   0.00000  Uiso   1.00
C763   C     0.88470   0.16608   0.61036   0.00000  Uiso   1.00
C764   C     0.72704   0.12773   0.96056   0.00000  Uiso   1.00
C765   C     0.94642   0.18196   0.53366   0.00000  Uiso   1.00
C766   C     0.73822   0.13837   0.91400   0.00000  Uiso   1.00
C767   C     0.93284   0.17914   0.58191   0.00000  Uiso   1.00
C768   C     0.81339   0.17138   0.91109   0.00000  Uiso   1.00
C769   C     0.85248   0.15391   0.58960   0.00000  Uiso   1.00
C770   C     0.80600   0.15599   0.95524   0.00000  Uiso   1.00
C771   C     0.86516   0.15722   0.54151   0.00000  Uiso   1.00
C772   C     0.76097   0.13554   0.98098   0.00000  Uiso   1.00
C773   C     0.78499   0.12840   0.54616   0.00000  Uiso   1.00
C774   C     0.91258   0.17258   0.51360   0.00000  Uiso   1.00
C775   C     0.84247   0.16002   0.97401   0.00000  Uiso   1.00
C776   C     0.83071   0.14840   0.52113   0.00000  Uiso   1.00
C777   C     0.89087   0.17381   0.94666   0.00000  Uiso   1.00
C778   C     0.75102   0.12192   0.52618   0.00000  Uiso   1.00
C779   C     0.92529   0.17960   0.96619   0.00000  Uiso   1.00
C780   C     0.87318   0.31078   0.71868   0.00000  Uiso   1.00
C781   C     0.79347   0.02257   0.78137   0.00000  Uiso   1.00
C782   C     0.87364   0.02032   0.71523   0.00000  Uiso   1.00
H783   H     0.71683   0.10592   0.54619   0.00000  Uiso   1.00
H784   H     0.76332   0.04045   0.80633   0.00000  Uiso   1.00
H785   H     0.90335   0.06715   0.67363   0.00000  Uiso   1.00
H786   H     0.76322   0.26617   0.82634   0.00000  Uiso   1.00
H787   H     0.67272   0.11316   0.65978   0.00000  Uiso   1.00
H788   H     0.99370   0.21913   0.84085   0.00000  Uiso   1.00
H789   H     0.72244   0.08769   0.68712   0.00000  Uiso   1.00
H790   H     0.94405   0.24522   0.81364   0.00000  Uiso   1.00
H791   H     0.96167   0.19087   0.94429   0.00000  Uiso   1.00
H792   H     0.81611   0.14429   0.61232   0.00000  Uiso   1.00
H793   H     0.84444   0.19115   0.89221   0.00000  Uiso   1.00
H794   H     0.69301   0.11129   0.97998   0.00000  Uiso   1.00
H795   H     0.98289   0.19321   0.51201   0.00000  Uiso   1.00
H796   H     0.77493   0.11571   0.58071   0.00000  Uiso   1.00
H797   H     0.90386   0.17935   0.90957   0.00000  Uiso   1.00
H798   H     0.90333   0.29290   0.69372   0.00000  Uiso   1.00
N799   N     0.71426   0.16668   0.75001   0.00000  Uiso   1.00
N800   N     0.95241   0.16666   0.74999   0.00000  Uiso   1.00
O801   O     0.79512   0.22775   0.75000   0.00000  Uiso   1.00
O802   O     0.75387   0.29461   0.82048   0.00000  Uiso   1.00
O803   O     0.97596   0.11779   0.68832   0.00000  Uiso   1.00
O804   O     0.69048   0.21501   0.81220   0.00000  Uiso   1.00
O805   O     0.73856   0.11286   0.69348   0.00000  Uiso   1.00
O806   O     0.92799   0.22022   0.80684   0.00000  Uiso   1.00
O807   O     0.87154   0.10558   0.75000   0.00000  Uiso   1.00
O808   O     0.87157   0.22774   0.75000   0.00000  Uiso   1.00
O809   O     0.79510   0.10559   0.75000   0.00000  Uiso   1.00
O810   O     0.77328   0.16667   0.81612   0.00000  Uiso   1.00
O811   O     0.89339   0.16666   0.68388   0.00000  Uiso   1.00
O812   O     0.84972   0.16666   0.81612   0.00000  Uiso   1.00
O813   O     0.81695   0.16667   0.68388   0.00000  Uiso   1.00
O814   O     0.91274   0.03874   0.67952   0.00000  Uiso   1.00
Zn815  Zn    0.78229   0.16667   0.75000   0.00000  Uiso   1.00
Zn816  Zn    0.88438   0.16666   0.75000   0.00000  Uiso   1.00
Br817  Br    0.31406   0.53002   0.60593   0.00000  Uiso   1.00
Br818  Br    0.02733   0.45225   0.88644   0.00000  Uiso   1.00
C819   C     0.16631   0.57991   0.75128   0.00000  Uiso   1.00
C820   C     0.12633   0.64636   0.78480   0.00000  Uiso   1.00
C821   C     0.16694   0.37596   0.74759   0.00000  Uiso   1.00
C822   C     0.16637   0.62405   0.75245   0.00000  Uiso   1.00
C823   C     0.32127   0.47461   0.71975   0.00000  Uiso   1.00
C824   C     0.01199   0.52521   0.78043   0.00000  Uiso   1.00
C825   C     0.03622   0.47377   0.72064   0.00000  Uiso   1.00
C826   C     0.29706   0.52611   0.77949   0.00000  Uiso   1.00
C827   C     0.13561   0.49908   0.83816   0.00000  Uiso   1.00
C828   C     0.19775   0.50008   0.66171   0.00000  Uiso   1.00
C829   C     0.11568   0.49346   0.88890   0.00000  Uiso   1.00
C830   C     0.16701   0.42010   0.74875   0.00000  Uiso   1.00
C831   C     0.21803   0.49941   0.61036   0.00000  Uiso   1.00
C832   C     0.06037   0.46106   0.96056   0.00000  Uiso   1.00
C833   C     0.27975   0.51529   0.53366   0.00000  Uiso   1.00
C834   C     0.07156   0.47170   0.91400   0.00000  Uiso   1.00
C835   C     0.26618   0.51247   0.58191   0.00000  Uiso   1.00
C836   C     0.14673   0.50472   0.91109   0.00000  Uiso   1.00
C837   C     0.18582   0.48725   0.58960   0.00000  Uiso   1.00
C838   C     0.13933   0.48932   0.95524   0.00000  Uiso   1.00
C839   C     0.19849   0.49055   0.54151   0.00000  Uiso   1.00
C840   C     0.09430   0.46887   0.98098   0.00000  Uiso   1.00
C841   C     0.11833   0.46173   0.54616   0.00000  Uiso   1.00
C842   C     0.24591   0.50592   0.51360   0.00000  Uiso   1.00
C843   C     0.17581   0.49336   0.97401   0.00000  Uiso   1.00
C844   C     0.16404   0.48173   0.52113   0.00000  Uiso   1.00
C845   C     0.22420   0.50714   0.94666   0.00000  Uiso   1.00
C846   C     0.08435   0.45526   0.52618   0.00000  Uiso   1.00
C847   C     0.25862   0.51294   0.96619   0.00000  Uiso   1.00
C848   C     0.20651   0.64411   0.71868   0.00000  Uiso   1.00
C849   C     0.12680   0.35591   0.78137   0.00000  Uiso   1.00
C850   C     0.20697   0.35365   0.71523   0.00000  Uiso   1.00
H851   H     0.05016   0.43926   0.54619   0.00000  Uiso   1.00
H852   H     0.09666   0.37379   0.80633   0.00000  Uiso   1.00
H853   H     0.23668   0.40048   0.67363   0.00000  Uiso   1.00
H854   H     0.09655   0.59951   0.82634   0.00000  Uiso   1.00
H855   H     0.00605   0.44650   0.65978   0.00000  Uiso   1.00
H856   H     0.32703   0.55247   0.84085   0.00000  Uiso   1.00
H857   H     0.05577   0.42102   0.68712   0.00000  Uiso   1.00
H858   H     0.27738   0.57856   0.81364   0.00000  Uiso   1.00
H859   H     0.29500   0.52421   0.94429   0.00000  Uiso   1.00
H860   H     0.14945   0.47763   0.61232   0.00000  Uiso   1.00
H861   H     0.17778   0.52448   0.89221   0.00000  Uiso   1.00
H862   H     0.02634   0.44462   0.97998   0.00000  Uiso   1.00
H863   H     0.31623   0.52654   0.51201   0.00000  Uiso   1.00
H864   H     0.10827   0.44904   0.58071   0.00000  Uiso   1.00
H865   H     0.23719   0.51269   0.90957   0.00000  Uiso   1.00
H866   H     0.23666   0.62623   0.69372   0.00000  Uiso   1.00
N867   N     0.04759   0.50001   0.75001   0.00000  Uiso   1.00
N868   N     0.28574   0.49999   0.74999   0.00000  Uiso   1.00
O869   O     0.12846   0.56108   0.75000   0.00000  Uiso   1.00
O870   O     0.08720   0.62794   0.82048   0.00000  Uiso   1.00
O871   O     0.30929   0.45112   0.68832   0.00000  Uiso   1.00
O872   O     0.02381   0.54834   0.81220   0.00000  Uiso   1.00
O873   O     0.07189   0.44619   0.69348   0.00000  Uiso   1.00
O874   O     0.26132   0.55355   0.80684   0.00000  Uiso   1.00
O875   O     0.20488   0.43892   0.75000   0.00000  Uiso   1.00
O876   O     0.20490   0.56107   0.75000   0.00000  Uiso   1.00
O877   O     0.12843   0.43893   0.75000   0.00000  Uiso   1.00
O878   O     0.10661   0.50001   0.81612   0.00000  Uiso   1.00
O879   O     0.22672   0.49999   0.68388   0.00000  Uiso   1.00
O880   O     0.18305   0.50000   0.81612   0.00000  Uiso   1.00
O881   O     0.15028   0.50000   0.68388   0.00000  Uiso   1.00
O882   O     0.24607   0.37207   0.67952   0.00000  Uiso   1.00
Zn883  Zn    0.11562   0.50001   0.75000   0.00000  Uiso   1.00
Zn884  Zn    0.21771   0.49999   0.75000   0.00000  Uiso   1.00
Br885  Br    0.64739   0.53002   0.60593   0.00000  Uiso   1.00
Br886  Br    0.36066   0.45225   0.88644   0.00000  Uiso   1.00
C887   C     0.49964   0.57991   0.75128   0.00000  Uiso   1.00
C888   C     0.45966   0.64636   0.78480   0.00000  Uiso   1.00
C889   C     0.50027   0.37596   0.74759   0.00000  Uiso   1.00
C890   C     0.49971   0.62405   0.75245   0.00000  Uiso   1.00
C891   C     0.65460   0.47461   0.71975   0.00000  Uiso   1.00
C892   C     0.34532   0.52521   0.78043   0.00000  Uiso   1.00
C893   C     0.36955   0.47377   0.72064   0.00000  Uiso   1.00
C894   C     0.63040   0.52611   0.77949   0.00000  Uiso   1.00
C895   C     0.46895   0.49908   0.83816   0.00000  Uiso   1.00
C896   C     0.53109   0.50008   0.66171   0.00000  Uiso   1.00
C897   C     0.44901   0.49346   0.88890   0.00000  Uiso   1.00
C898   C     0.50034   0.42010   0.74875   0.00000  Uiso   1.00
C899   C     0.55136   0.49941   0.61036   0.00000  Uiso   1.00
C900   C     0.39371   0.46106   0.96056   0.00000  Uiso   1.00
C901   C     0.61309   0.51529   0.53366   0.00000  Uiso   1.00
C902   C     0.40489   0.47170   0.91400   0.00000  Uiso   1.00
C903   C     0.59951   0.51247   0.58191   0.00000  Uiso   1.00
C904   C     0.48006   0.50472   0.91109   0.00000  Uiso   1.00
C905   C     0.51915   0.48725   0.58960   0.00000  Uiso   1.00
C906   C     0.47267   0.48932   0.95524   0.00000  Uiso   1.00
C907   C     0.53183   0.49055   0.54151   0.00000  Uiso   1.00
C908   C     0.42764   0.46887   0.98098   0.00000  Uiso   1.00
C909   C     0.45166   0.46173   0.54616   0.00000  Uiso   1.00
C910   C     0.57924   0.50592   0.51360   0.00000  Uiso   1.00
C911   C     0.50914   0.49336   0.97401   0.00000  Uiso   1.00
C912   C     0.49737   0.48173   0.52113   0.00000  Uiso   1.00
C913   C     0.55754   0.50714   0.94666   0.00000  Uiso   1.00
C914   C     0.41768   0.45526   0.52618   0.00000  Uiso   1.00
C915   C     0.59196   0.51294   0.96619   0.00000  Uiso   1.00
C916   C     0.53985   0.64411   0.71868   0.00000  Uiso   1.00
C917   C     0.46014   0.35591   0.78137   0.00000  Uiso   1.00
C918   C     0.54031   0.35365   0.71523   0.00000  Uiso   1.00
H919   H     0.38350   0.43926   0.54619   0.00000  Uiso   1.00
H920   H     0.42999   0.37379   0.80633   0.00000  Uiso   1.00
H921   H     0.57001   0.40048   0.67363   0.00000  Uiso   1.00
H922   H     0.42989   0.59951   0.82634   0.00000  Uiso   1.00
H923   H     0.33939   0.44650   0.65978   0.00000  Uiso   1.00
H924   H     0.66036   0.55247   0.84085   0.00000  Uiso   1.00
H925   H     0.38911   0.42102   0.68712   0.00000  Uiso   1.00
H926   H     0.61071   0.57856   0.81364   0.00000  Uiso   1.00
H927   H     0.62833   0.52421   0.94429   0.00000  Uiso   1.00
H928   H     0.48278   0.47763   0.61232   0.00000  Uiso   1.00
H929   H     0.51111   0.52448   0.89221   0.00000  Uiso   1.00
H930   H     0.35967   0.44462   0.97998   0.00000  Uiso   1.00
H931   H     0.64956   0.52654   0.51201   0.00000  Uiso   1.00
H932   H     0.44160   0.44904   0.58071   0.00000  Uiso   1.00
H933   H     0.57052   0.51269   0.90957   0.00000  Uiso   1.00
H934   H     0.57000   0.62623   0.69372   0.00000  Uiso   1.00
N935   N     0.38093   0.50001   0.75001   0.00000  Uiso   1.00
N936   N     0.61907   0.49999   0.74999   0.00000  Uiso   1.00
O937   O     0.46179   0.56108   0.75000   0.00000  Uiso   1.00
O938   O     0.42054   0.62794   0.82048   0.00000  Uiso   1.00
O939   O     0.64262   0.45112   0.68832   0.00000  Uiso   1.00
O940   O     0.35715   0.54834   0.81220   0.00000  Uiso   1.00
O941   O     0.40522   0.44619   0.69348   0.00000  Uiso   1.00
O942   O     0.59466   0.55355   0.80684   0.00000  Uiso   1.00
O943   O     0.53821   0.43892   0.75000   0.00000  Uiso   1.00
O944   O     0.53823   0.56107   0.75000   0.00000  Uiso   1.00
O945   O     0.46177   0.43893   0.75000   0.00000  Uiso   1.00
O946   O     0.43994   0.50001   0.81612   0.00000  Uiso   1.00
O947   O     0.56006   0.49999   0.68388   0.00000  Uiso   1.00
O948   O     0.51639   0.50000   0.81612   0.00000  Uiso   1.00
O949   O     0.48361   0.50000   0.68388   0.00000  Uiso   1.00
O950   O     0.57940   0.37207   0.67952   0.00000  Uiso   1.00
Zn951  Zn    0.44896   0.50001   0.75000   0.00000  Uiso   1.00
Zn952  Zn    0.55104   0.49999   0.75000   0.00000  Uiso   1.00
Br953  Br    0.98072   0.53002   0.60593   0.00000  Uiso   1.00
Br954  Br    0.69399   0.45225   0.88644   0.00000  Uiso   1.00
C955   C     0.83298   0.57991   0.75128   0.00000  Uiso   1.00
C956   C     0.79299   0.64636   0.78480   0.00000  Uiso   1.00
C957   C     0.83361   0.37596   0.74759   0.00000  Uiso   1.00
C958   C     0.83304   0.62405   0.75245   0.00000  Uiso   1.00
C959   C     0.98793   0.47461   0.71975   0.00000  Uiso   1.00
C960   C     0.67866   0.52521   0.78043   0.00000  Uiso   1.00
C961   C     0.70289   0.47377   0.72064   0.00000  Uiso   1.00
C962   C     0.96373   0.52611   0.77949   0.00000  Uiso   1.00
C963   C     0.80228   0.49908   0.83816   0.00000  Uiso   1.00
C964   C     0.86442   0.50008   0.66171   0.00000  Uiso   1.00
C965   C     0.78235   0.49346   0.88890   0.00000  Uiso   1.00
C966   C     0.83368   0.42010   0.74875   0.00000  Uiso   1.00
C967   C     0.88470   0.49941   0.61036   0.00000  Uiso   1.00
C968   C     0.72704   0.46106   0.96056   0.00000  Uiso   1.00
C969   C     0.94642   0.51529   0.53366   0.00000  Uiso   1.00
C970   C     0.73822   0.47170   0.91400   0.00000  Uiso   1.00
C971   C     0.93284   0.51247   0.58191   0.00000  Uiso   1.00
C972   C     0.81339   0.50472   0.91109   0.00000  Uiso   1.00
C973   C     0.85248   0.48725   0.58960   0.00000  Uiso   1.00
C974   C     0.80600   0.48932   0.95524   0.00000  Uiso   1.00
C975   C     0.86516   0.49055   0.54151   0.00000  Uiso   1.00
C976   C     0.76097   0.46887   0.98098   0.00000  Uiso   1.00
C977   C     0.78499   0.46173   0.54616   0.00000  Uiso   1.00
C978   C     0.91258   0.50592   0.51360   0.00000  Uiso   1.00
C979   C     0.84247   0.49336   0.97401   0.00000  Uiso   1.00
C980   C     0.83071   0.48173   0.52113   0.00000  Uiso   1.00
C981   C     0.89087   0.50714   0.94666   0.00000  Uiso   1.00
C982   C     0.75102   0.45526   0.52618   0.00000  Uiso   1.00
C983   C     0.92529   0.51294   0.96619   0.00000  Uiso   1.00
C984   C     0.87318   0.64411   0.71868   0.00000  Uiso   1.00
C985   C     0.79347   0.35591   0.78137   0.00000  Uiso   1.00
C986   C     0.87364   0.35365   0.71523   0.00000  Uiso   1.00
H987   H     0.71683   0.43926   0.54619   0.00000  Uiso   1.00
H988   H     0.76332   0.37379   0.80633   0.00000  Uiso   1.00
H989   H     0.90335   0.40048   0.67363   0.00000  Uiso   1.00
H990   H     0.76322   0.59951   0.82634   0.00000  Uiso   1.00
H991   H     0.67272   0.44650   0.65978   0.00000  Uiso   1.00
H992   H     0.99370   0.55247   0.84085   0.00000  Uiso   1.00
H993   H     0.72244   0.42102   0.68712   0.00000  Uiso   1.00
H994   H     0.94405   0.57856   0.81364   0.00000  Uiso   1.00
H995   H     0.96167   0.52421   0.94429   0.00000  Uiso   1.00
H996   H     0.81611   0.47763   0.61232   0.00000  Uiso   1.00
H997   H     0.84444   0.52448   0.89221   0.00000  Uiso   1.00
H998   H     0.69301   0.44462   0.97998   0.00000  Uiso   1.00
H999   H     0.98289   0.52654   0.51201   0.00000  Uiso   1.00
H1000  H     0.77493   0.44904   0.58071   0.00000  Uiso   1.00
H1001  H     0.90386   0.51269   0.90957   0.00000  Uiso   1.00
H1002  H     0.90333   0.62623   0.69372   0.00000  Uiso   1.00
N1003  N     0.71426   0.50001   0.75001   0.00000  Uiso   1.00
N1004  N     0.95241   0.49999   0.74999   0.00000  Uiso   1.00
O1005  O     0.79512   0.56108   0.75000   0.00000  Uiso   1.00
O1006  O     0.75387   0.62794   0.82048   0.00000  Uiso   1.00
O1007  O     0.97596   0.45112   0.68832   0.00000  Uiso   1.00
O1008  O     0.69048   0.54834   0.81220   0.00000  Uiso   1.00
O1009  O     0.73856   0.44619   0.69348   0.00000  Uiso   1.00
O1010  O     0.92799   0.55355   0.80684   0.00000  Uiso   1.00
O1011  O     0.87154   0.43892   0.75000   0.00000  Uiso   1.00
O1012  O     0.87157   0.56107   0.75000   0.00000  Uiso   1.00
O1013  O     0.79510   0.43893   0.75000   0.00000  Uiso   1.00
O1014  O     0.77328   0.50001   0.81612   0.00000  Uiso   1.00
O1015  O     0.89339   0.49999   0.68388   0.00000  Uiso   1.00
O1016  O     0.84972   0.50000   0.81612   0.00000  Uiso   1.00
O1017  O     0.81695   0.50000   0.68388   0.00000  Uiso   1.00
O1018  O     0.91274   0.37207   0.67952   0.00000  Uiso   1.00
Zn1019 Zn    0.78229   0.50001   0.75000   0.00000  Uiso   1.00
Zn1020 Zn    0.88438   0.49999   0.75000   0.00000  Uiso   1.00
Br1021 Br    0.31406   0.86336   0.60593   0.00000  Uiso   1.00
Br1022 Br    0.02733   0.78558   0.88644   0.00000  Uiso   1.00
C1023  C     0.16631   0.91324   0.75128   0.00000  Uiso   1.00
C1024  C     0.12633   0.97969   0.78480   0.00000  Uiso   1.00
C1025  C     0.16694   0.70929   0.74759   0.00000  Uiso   1.00
C1026  C     0.16637   0.95739   0.75245   0.00000  Uiso   1.00
C1027  C     0.32127   0.80794   0.71975   0.00000  Uiso   1.00
C1028  C     0.01199   0.85854   0.78043   0.00000  Uiso   1.00
C1029  C     0.03622   0.80710   0.72064   0.00000  Uiso   1.00
C1030  C     0.29706   0.85945   0.77949   0.00000  Uiso   1.00
C1031  C     0.13561   0.83241   0.83816   0.00000  Uiso   1.00
C1032  C     0.19775   0.83342   0.66171   0.00000  Uiso   1.00
C1033  C     0.11568   0.82679   0.88890   0.00000  Uiso   1.00
C1034  C     0.16701   0.75343   0.74875   0.00000  Uiso   1.00
C1035  C     0.21803   0.83275   0.61036   0.00000  Uiso   1.00
C1036  C     0.06037   0.79439   0.96056   0.00000  Uiso   1.00
C1037  C     0.27975   0.84863   0.53366   0.00000  Uiso   1.00
C1038  C     0.07156   0.80504   0.91400   0.00000  Uiso   1.00
C1039  C     0.26618   0.84581   0.58191   0.00000  Uiso   1.00
C1040  C     0.14673   0.83805   0.91109   0.00000  Uiso   1.00
C1041  C     0.18582   0.82058   0.58960   0.00000  Uiso   1.00
C1042  C     0.13933   0.82265   0.95524   0.00000  Uiso   1.00
C1043  C     0.19849   0.82388   0.54151   0.00000  Uiso   1.00
C1044  C     0.09430   0.80221   0.98098   0.00000  Uiso   1.00
C1045  C     0.11833   0.79507   0.54616   0.00000  Uiso   1.00
C1046  C     0.24591   0.83925   0.51360   0.00000  Uiso   1.00
C1047  C     0.17581   0.82669   0.97401   0.00000  Uiso   1.00
C1048  C     0.16404   0.81507   0.52113   0.00000  Uiso   1.00
C1049  C     0.22420   0.84048   0.94666   0.00000  Uiso   1.00
C1050  C     0.08435   0.78859   0.52618   0.00000  Uiso   1.00
C1051  C     0.25862   0.84627   0.96619   0.00000  Uiso   1.00
C1052  C     0.20651   0.97744   0.71868   0.00000  Uiso   1.00
C1053  C     0.12680   0.68924   0.78137   0.00000  Uiso   1.00
C1054  C     0.20697   0.68699   0.71523   0.00000  Uiso   1.00
H1055  H     0.05016   0.77259   0.54619   0.00000  Uiso   1.00
H1056  H     0.09666   0.70712   0.80633   0.00000  Uiso   1.00
H1057  H     0.23668   0.73382   0.67363   0.00000  Uiso   1.00
H1058  H     0.09655   0.93284   0.82634   0.00000  Uiso   1.00
H1059  H     0.00605   0.77983   0.65978   0.00000  Uiso   1.00
H1060  H     0.32703   0.88580   0.84085   0.00000  Uiso   1.00
H1061  H     0.05577   0.75435   0.68712   0.00000  Uiso   1.00
H1062  H     0.27738   0.91189   0.81364   0.00000  Uiso   1.00
H1063  H     0.29500   0.85754   0.94429   0.00000  Uiso   1.00
H1064  H     0.14945   0.81096   0.61232   0.00000  Uiso   1.00
H1065  H     0.17778   0.85781   0.89221   0.00000  Uiso   1.00
H1066  H     0.02634   0.77796   0.97998   0.00000  Uiso   1.00
H1067  H     0.31623   0.85988   0.51201   0.00000  Uiso   1.00
H1068  H     0.10827   0.78238   0.58071   0.00000  Uiso   1.00
H1069  H     0.23719   0.84602   0.90957   0.00000  Uiso   1.00
H1070  H     0.23666   0.95956   0.69372   0.00000  Uiso   1.00
N1071  N     0.04759   0.83334   0.75001   0.00000  Uiso   1.00
N1072  N     0.28574   0.83332   0.74999   0.00000  Uiso   1.00
O1073  O     0.12846   0.89442   0.75000   0.00000  Uiso   1.00
O1074  O     0.08720   0.96128   0.82048   0.00000  Uiso   1.00
O1075  O     0.30929   0.78446   0.68832   0.00000  Uiso   1.00
O1076  O     0.02381   0.88167   0.81220   0.00000  Uiso   1.00
O1077  O     0.07189   0.77952   0.69348   0.00000  Uiso   1.00
O1078  O     0.26132   0.88688   0.80684   0.00000  Uiso   1.00
O1079  O     0.20488   0.77225   0.75000   0.00000  Uiso   1.00
O1080  O     0.20490   0.89441   0.75000   0.00000  Uiso   1.00
O1081  O     0.12843   0.77226   0.75000   0.00000  Uiso   1.00
O1082  O     0.10661   0.83334   0.81612   0.00000  Uiso   1.00
O1083  O     0.22672   0.83333   0.68388   0.00000  Uiso   1.00
O1084  O     0.18305   0.83333   0.81612   0.00000  Uiso   1.00
O1085  O     0.15028   0.83334   0.68388   0.00000  Uiso   1.00
O1086  O     0.24607   0.70540   0.67952   0.00000  Uiso   1.00
Zn1087 Zn    0.11562   0.83334   0.75000   0.00000  Uiso   1.00
Zn1088 Zn    0.21771   0.83333   0.75000   0.00000  Uiso   1.00
Br1089 Br    0.64739   0.86336   0.60593   0.00000  Uiso   1.00
Br1090 Br    0.36066   0.78558   0.88644   0.00000  Uiso   1.00
C1091  C     0.49964   0.91324   0.75128   0.00000  Uiso   1.00
C1092  C     0.45966   0.97969   0.78480   0.00000  Uiso   1.00
C1093  C     0.50027   0.70929   0.74759   0.00000  Uiso   1.00
C1094  C     0.49971   0.95739   0.75245   0.00000  Uiso   1.00
C1095  C     0.65460   0.80794   0.71975   0.00000  Uiso   1.00
C1096  C     0.34532   0.85854   0.78043   0.00000  Uiso   1.00
C1097  C     0.36955   0.80710   0.72064   0.00000  Uiso   1.00
C1098  C     0.63040   0.85945   0.77949   0.00000  Uiso   1.00
C1099  C     0.46895   0.83241   0.83816   0.00000  Uiso   1.00
C1100  C     0.53109   0.83342   0.66171   0.00000  Uiso   1.00
C1101  C     0.44901   0.82679   0.88890   0.00000  Uiso   1.00
C1102  C     0.50034   0.75343   0.74875   0.00000  Uiso   1.00
C1103  C     0.55136   0.83275   0.61036   0.00000  Uiso   1.00
C1104  C     0.39371   0.79439   0.96056   0.00000  Uiso   1.00
C1105  C     0.61309   0.84863   0.53366   0.00000  Uiso   1.00
C1106  C     0.40489   0.80504   0.91400   0.00000  Uiso   1.00
C1107  C     0.59951   0.84581   0.58191   0.00000  Uiso   1.00
C1108  C     0.48006   0.83805   0.91109   0.00000  Uiso   1.00
C1109  C     0.51915   0.82058   0.58960   0.00000  Uiso   1.00
C1110  C     0.47267   0.82265   0.95524   0.00000  Uiso   1.00
C1111  C     0.53183   0.82388   0.54151   0.00000  Uiso   1.00
C1112  C     0.42764   0.80221   0.98098   0.00000  Uiso   1.00
C1113  C     0.45166   0.79507   0.54616   0.00000  Uiso   1.00
C1114  C     0.57924   0.83925   0.51360   0.00000  Uiso   1.00
C1115  C     0.50914   0.82669   0.97401   0.00000  Uiso   1.00
C1116  C     0.49737   0.81507   0.52113   0.00000  Uiso   1.00
C1117  C     0.55754   0.84048   0.94666   0.00000  Uiso   1.00
C1118  C     0.41768   0.78859   0.52618   0.00000  Uiso   1.00
C1119  C     0.59196   0.84627   0.96619   0.00000  Uiso   1.00
C1120  C     0.53985   0.97744   0.71868   0.00000  Uiso   1.00
C1121  C     0.46014   0.68924   0.78137   0.00000  Uiso   1.00
C1122  C     0.54031   0.68699   0.71523   0.00000  Uiso   1.00
H1123  H     0.38350   0.77259   0.54619   0.00000  Uiso   1.00
H1124  H     0.42999   0.70712   0.80633   0.00000  Uiso   1.00
H1125  H     0.57001   0.73382   0.67363   0.00000  Uiso   1.00
H1126  H     0.42989   0.93284   0.82634   0.00000  Uiso   1.00
H1127  H     0.33939   0.77983   0.65978   0.00000  Uiso   1.00
H1128  H     0.66036   0.88580   0.84085   0.00000  Uiso   1.00
H1129  H     0.38911   0.75435   0.68712   0.00000  Uiso   1.00
H1130  H     0.61071   0.91189   0.81364   0.00000  Uiso   1.00
H1131  H     0.62833   0.85754   0.94429   0.00000  Uiso   1.00
H1132  H     0.48278   0.81096   0.61232   0.00000  Uiso   1.00
H1133  H     0.51111   0.85781   0.89221   0.00000  Uiso   1.00
H1134  H     0.35967   0.77796   0.97998   0.00000  Uiso   1.00
H1135  H     0.64956   0.85988   0.51201   0.00000  Uiso   1.00
H1136  H     0.44160   0.78238   0.58071   0.00000  Uiso   1.00
H1137  H     0.57052   0.84602   0.90957   0.00000  Uiso   1.00
H1138  H     0.57000   0.95956   0.69372   0.00000  Uiso   1.00
N1139  N     0.38093   0.83334   0.75001   0.00000  Uiso   1.00
N1140  N     0.61907   0.83332   0.74999   0.00000  Uiso   1.00
O1141  O     0.46179   0.89442   0.75000   0.00000  Uiso   1.00
O1142  O     0.42054   0.96128   0.82048   0.00000  Uiso   1.00
O1143  O     0.64262   0.78446   0.68832   0.00000  Uiso   1.00
O1144  O     0.35715   0.88167   0.81220   0.00000  Uiso   1.00
O1145  O     0.40522   0.77952   0.69348   0.00000  Uiso   1.00
O1146  O     0.59466   0.88688   0.80684   0.00000  Uiso   1.00
O1147  O     0.53821   0.77225   0.75000   0.00000  Uiso   1.00
O1148  O     0.53823   0.89441   0.75000   0.00000  Uiso   1.00
O1149  O     0.46177   0.77226   0.75000   0.00000  Uiso   1.00
O1150  O     0.43994   0.83334   0.81612   0.00000  Uiso   1.00
O1151  O     0.56006   0.83333   0.68388   0.00000  Uiso   1.00
O1152  O     0.51639   0.83333   0.81612   0.00000  Uiso   1.00
O1153  O     0.48361   0.83334   0.68388   0.00000  Uiso   1.00
O1154  O     0.57940   0.70540   0.67952   0.00000  Uiso   1.00
Zn1155 Zn    0.44896   0.83334   0.75000   0.00000  Uiso   1.00
Zn1156 Zn    0.55104   0.83333   0.75000   0.00000  Uiso   1.00
Br1157 Br    0.98072   0.86336   0.60593   0.00000  Uiso   1.00
Br1158 Br    0.69399   0.78558   0.88644   0.00000  Uiso   1.00
C1159  C     0.83298   0.91324   0.75128   0.00000  Uiso   1.00
C1160  C     0.79299   0.97969   0.78480   0.00000  Uiso   1.00
C1161  C     0.83361   0.70929   0.74759   0.00000  Uiso   1.00
C1162  C     0.83304   0.95739   0.75245   0.00000  Uiso   1.00
C1163  C     0.98793   0.80794   0.71975   0.00000  Uiso   1.00
C1164  C     0.67866   0.85854   0.78043   0.00000  Uiso   1.00
C1165  C     0.70289   0.80710   0.72064   0.00000  Uiso   1.00
C1166  C     0.96373   0.85945   0.77949   0.00000  Uiso   1.00
C1167  C     0.80228   0.83241   0.83816   0.00000  Uiso   1.00
C1168  C     0.86442   0.83342   0.66171   0.00000  Uiso   1.00
C1169  C     0.78235   0.82679   0.88890   0.00000  Uiso   1.00
C1170  C     0.83368   0.75343   0.74875   0.00000  Uiso   1.00
C1171  C     0.88470   0.83275   0.61036   0.00000  Uiso   1.00
C1172  C     0.72704   0.79439   0.96056   0.00000  Uiso   1.00
C1173  C     0.94642   0.84863   0.53366   0.00000  Uiso   1.00
C1174  C     0.73822   0.80504   0.91400   0.00000  Uiso   1.00
C1175  C     0.93284   0.84581   0.58191   0.00000  Uiso   1.00
C1176  C     0.81339   0.83805   0.91109   0.00000  Uiso   1.00
C1177  C     0.85248   0.82058   0.58960   0.00000  Uiso   1.00
C1178  C     0.80600   0.82265   0.95524   0.00000  Uiso   1.00
C1179  C     0.86516   0.82388   0.54151   0.00000  Uiso   1.00
C1180  C     0.76097   0.80221   0.98098   0.00000  Uiso   1.00
C1181  C     0.78499   0.79507   0.54616   0.00000  Uiso   1.00
C1182  C     0.91258   0.83925   0.51360   0.00000  Uiso   1.00
C1183  C     0.84247   0.82669   0.97401   0.00000  Uiso   1.00
C1184  C     0.83071   0.81507   0.52113   0.00000  Uiso   1.00
C1185  C     0.89087   0.84048   0.94666   0.00000  Uiso   1.00
C1186  C     0.75102   0.78859   0.52618   0.00000  Uiso   1.00
C1187  C     0.92529   0.84627   0.96619   0.00000  Uiso   1.00
C1188  C     0.87318   0.97744   0.71868   0.00000  Uiso   1.00
C1189  C     0.79347   0.68924   0.78137   0.00000  Uiso   1.00
C1190  C     0.87364   0.68699   0.71523   0.00000  Uiso   1.00
H1191  H     0.71683   0.77259   0.54619   0.00000  Uiso   1.00
H1192  H     0.76332   0.70712   0.80633   0.00000  Uiso   1.00
H1193  H     0.90335   0.73382   0.67363   0.00000  Uiso   1.00
H1194  H     0.76322   0.93284   0.82634   0.00000  Uiso   1.00
H1195  H     0.67272   0.77983   0.65978   0.00000  Uiso   1.00
H1196  H     0.99370   0.88580   0.84085   0.00000  Uiso   1.00
H1197  H     0.72244   0.75435   0.68712   0.00000  Uiso   1.00
H1198  H     0.94405   0.91189   0.81364   0.00000  Uiso   1.00
H1199  H     0.96167   0.85754   0.94429   0.00000  Uiso   1.00
H1200  H     0.81611   0.81096   0.61232   0.00000  Uiso   1.00
H1201  H     0.84444   0.85781   0.89221   0.00000  Uiso   1.00
H1202  H     0.69301   0.77796   0.97998   0.00000  Uiso   1.00
H1203  H     0.98289   0.85988   0.51201   0.00000  Uiso   1.00
H1204  H     0.77493   0.78238   0.58071   0.00000  Uiso   1.00
H1205  H     0.90386   0.84602   0.90957   0.00000  Uiso   1.00
H1206  H     0.90333   0.95956   0.69372   0.00000  Uiso   1.00
N1207  N     0.71426   0.83334   0.75001   0.00000  Uiso   1.00
N1208  N     0.95241   0.83332   0.74999   0.00000  Uiso   1.00
O1209  O     0.79512   0.89442   0.75000   0.00000  Uiso   1.00
O1210  O     0.75387   0.96128   0.82048   0.00000  Uiso   1.00
O1211  O     0.97596   0.78446   0.68832   0.00000  Uiso   1.00
O1212  O     0.69048   0.88167   0.81220   0.00000  Uiso   1.00
O1213  O     0.73856   0.77952   0.69348   0.00000  Uiso   1.00
O1214  O     0.92799   0.88688   0.80684   0.00000  Uiso   1.00
O1215  O     0.87154   0.77225   0.75000   0.00000  Uiso   1.00
O1216  O     0.87157   0.89441   0.75000   0.00000  Uiso   1.00
O1217  O     0.79510   0.77226   0.75000   0.00000  Uiso   1.00
O1218  O     0.77328   0.83334   0.81612   0.00000  Uiso   1.00
O1219  O     0.89339   0.83333   0.68388   0.00000  Uiso   1.00
O1220  O     0.84972   0.83333   0.81612   0.00000  Uiso   1.00
O1221  O     0.81695   0.83334   0.68388   0.00000  Uiso   1.00
O1222  O     0.91274   0.70540   0.67952   0.00000  Uiso   1.00
Zn1223 Zn    0.78229   0.83334   0.75000   0.00000  Uiso   1.00
Zn1224 Zn    0.88438   0.83333   0.75000   0.00000  Uiso   1.00
loop_
_geom_bond_atom_site_label_1
_geom_bond_atom_site_label_2
_geom_bond_distance
_geom_bond_site_symmetry_2
_ccdc_geom_bond_type
Br1    C19     1.922   .     S
Br2    C18     1.922   .     S
C3     O60     1.280   .     A
C3     O53     1.282   .     A
C3     C6      1.410   .     S
C4     C6      1.408   .     A
C4     O54     1.382   .     S
C4     C237    1.373   .     S
C5     C34     1.408   .     A
C5     C14     1.409   .     S
C5     C33     1.395   .     A
C6     C32     1.395   .     A
C7     O55     1.378   .     S
C7     N52     1.366   .     A
C7     C77     1.440   .     S
C8     O56     1.378   .     S
C8     N51     1.366   .     A
C8     C146    1.440   1_455 S
C9     N51     1.369   .     A
C9     O57     1.378   .     S
C9     C143    1.440   1_455 S
C10    N52     1.369   .     A
C10    O58     1.378   .     S
C10    C76     1.440   .     S
C11    C13     1.462   .     S
C11    O62     1.291   .     A
C11    O64     1.298   .     A
C12    O65     1.299   .     A
C12    C15     1.468   .     S
C12    O63     1.293   .     A
C13    C20     1.392   .     A
C13    C18     1.412   .     A
C14    O59     1.282   .     A
C14    O61     1.280   .     A
C15    C19     1.412   .     A
C15    C21     1.396   .     A
C16    C24     1.402   .     A
C16    C18     1.396   .     A
C16    H46     1.084   .     S
C17    C26     1.402   .     A
C17    C19     1.395   .     A
C17    H47     1.084   .     S
C20    H45     1.078   .     S
C20    C22     1.395   .     A
C21    H44     1.074   .     S
C21    C23     1.395   .     A
C22    C27     1.419   .     A
C22    C24     1.415   .     A
C23    C28     1.421   .     A
C23    C26     1.416   .     A
C24    C642    1.390   .     S
C25    C28     1.419   .     A
C25    C30     1.387   .     A
C25    H48     1.077   .     S
C26    C643    1.389   1_554 S
C27    C29     1.418   .     A
C27    C640    1.418   .     S
C28    C639    1.418   1_554 S
C29    C31     1.386   .     A
C29    H49     1.078   .     S
C30    H35     1.084   .     S
C30    C636    1.390   1_554 S
C31    H43     1.084   .     S
C31    C638    1.389   .     S
C32    H50     1.085   .     S
C32    C238    1.373   .     S
C33    H36     1.085   .     S
C33    C412    1.373   1_545 S
C34    O66     1.382   .     S
C34    C440    1.373   1_545 S
H37    O66     0.989   .     S
H38    O54     0.989   .     S
H39    O191    0.990   1_455 S
H40    O124    0.990   .     S
H41    O57     0.990   .     S
H42    O58     0.990   .     S
N51    Zn67    2.013   .     S
N52    Zn68    2.013   .     S
O53    Zn67    1.984   .     S
O55    H107    0.990   .     S
O56    H176    0.990   1_455 S
O59    Zn68    1.984   .     S
O60    Zn68    1.988   .     S
O61    Zn67    1.988   .     S
O62    Zn67    1.965   .     S
O63    Zn68    1.965   .     S
O64    Zn68    1.902   .     S
O65    Zn67    1.902   .     S
Br69   C87     1.922   .     S
Br70   C86     1.922   .     S
C71    O128    1.280   .     A
C71    O121    1.282   .     A
C71    C74     1.410   .     S
C72    C74     1.408   .     A
C72    O122    1.382   .     S
C72    C305    1.373   .     S
C73    C102    1.408   .     A
C73    C82     1.409   .     S
C73    C101    1.395   .     A
C74    C100    1.395   .     A
C75    O123    1.378   .     S
C75    N120    1.366   .     A
C75    C145    1.440   .     S
C76    O124    1.378   .     S
C76    N119    1.366   .     A
C77    N119    1.369   .     A
C77    O125    1.378   .     S
C78    N120    1.369   .     A
C78    O126    1.378   .     S
C78    C144    1.440   .     S
C79    C81     1.462   .     S
C79    O130    1.291   .     A
C79    O132    1.298   .     A
C80    O133    1.299   .     A
C80    C83     1.468   .     S
C80    O131    1.293   .     A
C81    C88     1.392   .     A
C81    C86     1.412   .     A
C82    O127    1.282   .     A
C82    O129    1.280   .     A
C83    C87     1.412   .     A
C83    C89     1.396   .     A
C84    C92     1.402   .     A
C84    C86     1.396   .     A
C84    H114    1.084   .     S
C85    C94     1.402   .     A
C85    C87     1.395   .     A
C85    H115    1.084   .     S
C88    H113    1.078   .     S
C88    C90     1.395   .     A
C89    H112    1.074   .     S
C89    C91     1.395   .     A
C90    C95     1.419   .     A
C90    C92     1.415   .     A
C91    C96     1.421   .     A
C91    C94     1.416   .     A
C92    C710    1.390   .     S
C93    C96     1.419   .     A
C93    C98     1.387   .     A
C93    H116    1.077   .     S
C94    C711    1.389   1_554 S
C95    C97     1.418   .     A
C95    C708    1.418   .     S
C96    C707    1.418   1_554 S
C97    C99     1.386   .     A
C97    H117    1.078   .     S
C98    H103    1.084   .     S
C98    C704    1.390   1_554 S
C99    H111    1.084   .     S
C99    C706    1.389   .     S
C100   H118    1.085   .     S
C100   C306    1.373   .     S
C101   H104    1.085   .     S
C101   C480    1.373   1_545 S
C102   O134    1.382   .     S
C102   C508    1.373   1_545 S
H105   O134    0.989   .     S
H106   O122    0.989   .     S
H108   O192    0.990   .     S
H109   O125    0.990   .     S
H110   O126    0.990   .     S
N119   Zn135   2.013   .     S
N120   Zn136   2.013   .     S
O121   Zn135   1.984   .     S
O123   H175    0.990   .     S
O127   Zn136   1.984   .     S
O128   Zn136   1.988   .     S
O129   Zn135   1.988   .     S
O130   Zn135   1.965   .     S
O131   Zn136   1.965   .     S
O132   Zn136   1.902   .     S
O133   Zn135   1.902   .     S
Br137  C155    1.922   .     S
Br138  C154    1.922   .     S
C139   O196    1.280   .     A
C139   O189    1.282   .     A
C139   C142    1.410   .     S
C140   C142    1.408   .     A
C140   O190    1.382   .     S
C140   C373    1.373   .     S
C141   C170    1.408   .     A
C141   C150    1.409   .     S
C141   C169    1.395   .     A
C142   C168    1.395   .     A
C143   O191    1.378   .     S
C143   N188    1.366   .     A
C143   C9      1.440   1_655 S
C144   O192    1.378   .     S
C144   N187    1.366   .     A
C145   N187    1.369   .     A
C145   O193    1.378   .     S
C146   N188    1.369   .     A
C146   O194    1.378   .     S
C146   C8      1.440   1_655 S
C147   C149    1.462   .     S
C147   O198    1.291   .     A
C147   O200    1.298   .     A
C148   O201    1.299   .     A
C148   C151    1.468   .     S
C148   O199    1.293   .     A
C149   C156    1.392   .     A
C149   C154    1.412   .     A
C150   O195    1.282   .     A
C150   O197    1.280   .     A
C151   C155    1.412   .     A
C151   C157    1.396   .     A
C152   C160    1.402   .     A
C152   C154    1.396   .     A
C152   H182    1.084   .     S
C153   C162    1.402   .     A
C153   C155    1.395   .     A
C153   H183    1.084   .     S
C156   H181    1.078   .     S
C156   C158    1.395   .     A
C157   H180    1.074   .     S
C157   C159    1.395   .     A
C158   C163    1.419   .     A
C158   C160    1.415   .     A
C159   C164    1.421   .     A
C159   C162    1.416   .     A
C160   C778    1.390   .     S
C161   C164    1.419   .     A
C161   C166    1.387   .     A
C161   H184    1.077   .     S
C162   C779    1.389   1_554 S
C163   C165    1.418   .     A
C163   C776    1.418   .     S
C164   C775    1.418   1_554 S
C165   C167    1.386   .     A
C165   H185    1.078   .     S
C166   H171    1.084   .     S
C166   C772    1.390   1_554 S
C167   H179    1.084   .     S
C167   C774    1.389   .     S
C168   H186    1.085   .     S
C168   C374    1.373   .     S
C169   H172    1.085   .     S
C169   C548    1.373   1_545 S
C170   O202    1.382   .     S
C170   C576    1.373   1_545 S
H173   O202    0.989   .     S
H174   O190    0.989   .     S
H176   O56     0.990   1_655 S
H177   O193    0.990   .     S
H178   O194    0.990   .     S
N187   Zn203   2.013   .     S
N188   Zn204   2.013   .     S
O189   Zn203   1.984   .     S
O191   H39     0.990   1_655 S
O195   Zn204   1.984   .     S
O196   Zn204   1.988   .     S
O197   Zn203   1.988   .     S
O198   Zn203   1.965   .     S
O199   Zn204   1.965   .     S
O200   Zn204   1.902   .     S
O201   Zn203   1.902   .     S
Br205  C223    1.922   .     S
Br206  C222    1.922   .     S
C207   O264    1.280   .     A
C207   O257    1.282   .     A
C207   C210    1.410   .     S
C208   C210    1.408   .     A
C208   O258    1.382   .     S
C208   C441    1.373   .     S
C209   C238    1.408   .     A
C209   C218    1.409   .     S
C209   C237    1.395   .     A
C210   C236    1.395   .     A
C211   O259    1.378   .     S
C211   N256    1.366   .     A
C211   C281    1.440   .     S
C212   O260    1.378   .     S
C212   N255    1.366   .     A
C212   C350    1.440   1_455 S
C213   N255    1.369   .     A
C213   O261    1.378   .     S
C213   C347    1.440   1_455 S
C214   N256    1.369   .     A
C214   O262    1.378   .     S
C214   C280    1.440   .     S
C215   C217    1.462   .     S
C215   O266    1.291   .     A
C215   O268    1.298   .     A
C216   O269    1.299   .     A
C216   C219    1.468   .     S
C216   O267    1.293   .     A
C217   C224    1.392   .     A
C217   C222    1.412   .     A
C218   O263    1.282   .     A
C218   O265    1.280   .     A
C219   C223    1.412   .     A
C219   C225    1.396   .     A
C220   C228    1.402   .     A
C220   C222    1.396   .     A
C220   H250    1.084   .     S
C221   C230    1.402   .     A
C221   C223    1.395   .     A
C221   H251    1.084   .     S
C224   H249    1.078   .     S
C224   C226    1.395   .     A
C225   H248    1.074   .     S
C225   C227    1.395   .     A
C226   C231    1.419   .     A
C226   C228    1.415   .     A
C227   C232    1.421   .     A
C227   C230    1.416   .     A
C228   C846    1.390   .     S
C229   C232    1.419   .     A
C229   C234    1.387   .     A
C229   H252    1.077   .     S
C230   C847    1.389   1_554 S
C231   C233    1.418   .     A
C231   C844    1.418   .     S
C232   C843    1.418   1_554 S
C233   C235    1.386   .     A
C233   H253    1.078   .     S
C234   H239    1.084   .     S
C234   C840    1.390   1_554 S
C235   H247    1.084   .     S
C235   C842    1.389   .     S
C236   H254    1.085   .     S
C236   C442    1.373   .     S
C237   H240    1.085   .     S
C238   O270    1.382   .     S
H241   O270    0.989   .     S
H242   O258    0.989   .     S
H243   O395    0.990   1_455 S
H244   O328    0.990   .     S
H245   O261    0.990   .     S
H246   O262    0.990   .     S
N255   Zn271   2.013   .     S
N256   Zn272   2.013   .     S
O257   Zn271   1.984   .     S
O259   H311    0.990   .     S
O260   H380    0.990   1_455 S
O263   Zn272   1.984   .     S
O264   Zn272   1.988   .     S
O265   Zn271   1.988   .     S
O266   Zn271   1.965   .     S
O267   Zn272   1.965   .     S
O268   Zn272   1.902   .     S
O269   Zn271   1.902   .     S
Br273  C291    1.922   .     S
Br274  C290    1.922   .     S
C275   O332    1.280   .     A
C275   O325    1.282   .     A
C275   C278    1.410   .     S
C276   C278    1.408   .     A
C276   O326    1.382   .     S
C276   C509    1.373   .     S
C277   C306    1.408   .     A
C277   C286    1.409   .     S
C277   C305    1.395   .     A
C278   C304    1.395   .     A
C279   O327    1.378   .     S
C279   N324    1.366   .     A
C279   C349    1.440   .     S
C280   O328    1.378   .     S
C280   N323    1.366   .     A
C281   N323    1.369   .     A
C281   O329    1.378   .     S
C282   N324    1.369   .     A
C282   O330    1.378   .     S
C282   C348    1.440   .     S
C283   C285    1.462   .     S
C283   O334    1.291   .     A
C283   O336    1.298   .     A
C284   O337    1.299   .     A
C284   C287    1.468   .     S
C284   O335    1.293   .     A
C285   C292    1.392   .     A
C285   C290    1.412   .     A
C286   O331    1.282   .     A
C286   O333    1.280   .     A
C287   C291    1.412   .     A
C287   C293    1.396   .     A
C288   C296    1.402   .     A
C288   C290    1.396   .     A
C288   H318    1.084   .     S
C289   C298    1.402   .     A
C289   C291    1.395   .     A
C289   H319    1.084   .     S
C292   H317    1.078   .     S
C292   C294    1.395   .     A
C293   H316    1.074   .     S
C293   C295    1.395   .     A
C294   C299    1.419   .     A
C294   C296    1.415   .     A
C295   C300    1.421   .     A
C295   C298    1.416   .     A
C296   C914    1.390   .     S
C297   C300    1.419   .     A
C297   C302    1.387   .     A
C297   H320    1.077   .     S
C298   C915    1.389   1_554 S
C299   C301    1.418   .     A
C299   C912    1.418   .     S
C300   C911    1.418   1_554 S
C301   C303    1.386   .     A
C301   H321    1.078   .     S
C302   H307    1.084   .     S
C302   C908    1.390   1_554 S
C303   H315    1.084   .     S
C303   C910    1.389   .     S
C304   H322    1.085   .     S
C304   C510    1.373   .     S
C305   H308    1.085   .     S
C306   O338    1.382   .     S
H309   O338    0.989   .     S
H310   O326    0.989   .     S
H312   O396    0.990   .     S
H313   O329    0.990   .     S
H314   O330    0.990   .     S
N323   Zn339   2.013   .     S
N324   Zn340   2.013   .     S
O325   Zn339   1.984   .     S
O327   H379    0.990   .     S
O331   Zn340   1.984   .     S
O332   Zn340   1.988   .     S
O333   Zn339   1.988   .     S
O334   Zn339   1.965   .     S
O335   Zn340   1.965   .     S
O336   Zn340   1.902   .     S
O337   Zn339   1.902   .     S
Br341  C359    1.922   .     S
Br342  C358    1.922   .     S
C343   O400    1.280   .     A
C343   O393    1.282   .     A
C343   C346    1.410   .     S
C344   C346    1.408   .     A
C344   O394    1.382   .     S
C344   C577    1.373   .     S
C345   C374    1.408   .     A
C345   C354    1.409   .     S
C345   C373    1.395   .     A
C346   C372    1.395   .     A
C347   O395    1.378   .     S
C347   N392    1.366   .     A
C347   C213    1.440   1_655 S
C348   O396    1.378   .     S
C348   N391    1.366   .     A
C349   N391    1.369   .     A
C349   O397    1.378   .     S
C350   N392    1.369   .     A
C350   O398    1.378   .     S
C350   C212    1.440   1_655 S
C351   C353    1.462   .     S
C351   O402    1.291   .     A
C351   O404    1.298   .     A
C352   O405    1.299   .     A
C352   C355    1.468   .     S
C352   O403    1.293   .     A
C353   C360    1.392   .     A
C353   C358    1.412   .     A
C354   O399    1.282   .     A
C354   O401    1.280   .     A
C355   C359    1.412   .     A
C355   C361    1.396   .     A
C356   C364    1.402   .     A
C356   C358    1.396   .     A
C356   H386    1.084   .     S
C357   C366    1.402   .     A
C357   C359    1.395   .     A
C357   H387    1.084   .     S
C360   H385    1.078   .     S
C360   C362    1.395   .     A
C361   H384    1.074   .     S
C361   C363    1.395   .     A
C362   C367    1.419   .     A
C362   C364    1.415   .     A
C363   C368    1.421   .     A
C363   C366    1.416   .     A
C364   C982    1.390   .     S
C365   C368    1.419   .     A
C365   C370    1.387   .     A
C365   H388    1.077   .     S
C366   C983    1.389   1_554 S
C367   C369    1.418   .     A
C367   C980    1.418   .     S
C368   C979    1.418   1_554 S
C369   C371    1.386   .     A
C369   H389    1.078   .     S
C370   H375    1.084   .     S
C370   C976    1.390   1_554 S
C371   H383    1.084   .     S
C371   C978    1.389   .     S
C372   H390    1.085   .     S
C372   C578    1.373   .     S
C373   H376    1.085   .     S
C374   O406    1.382   .     S
H377   O406    0.989   .     S
H378   O394    0.989   .     S
H380   O260    0.990   1_655 S
H381   O397    0.990   .     S
H382   O398    0.990   .     S
N391   Zn407   2.013   .     S
N392   Zn408   2.013   .     S
O393   Zn407   1.984   .     S
O395   H243    0.990   1_655 S
O399   Zn408   1.984   .     S
O400   Zn408   1.988   .     S
O401   Zn407   1.988   .     S
O402   Zn407   1.965   .     S
O403   Zn408   1.965   .     S
O404   Zn408   1.902   .     S
O405   Zn407   1.902   .     S
Br409  C427    1.922   .     S
Br410  C426    1.922   .     S
C411   O468    1.280   .     A
C411   O461    1.282   .     A
C411   C414    1.410   .     S
C412   C414    1.408   .     A
C412   O462    1.382   .     S
C412   C33     1.373   1_565 S
C413   C442    1.408   .     A
C413   C422    1.409   .     S
C413   C441    1.395   .     A
C414   C440    1.395   .     A
C415   O463    1.378   .     S
C415   N460    1.366   .     A
C415   C485    1.440   .     S
C416   O464    1.378   .     S
C416   N459    1.366   .     A
C416   C554    1.440   1_455 S
C417   N459    1.369   .     A
C417   O465    1.378   .     S
C417   C551    1.440   1_455 S
C418   N460    1.369   .     A
C418   O466    1.378   .     S
C418   C484    1.440   .     S
C419   C421    1.462   .     S
C419   O470    1.291   .     A
C419   O472    1.298   .     A
C420   O473    1.299   .     A
C420   C423    1.468   .     S
C420   O471    1.293   .     A
C421   C428    1.392   .     A
C421   C426    1.412   .     A
C422   O467    1.282   .     A
C422   O469    1.280   .     A
C423   C427    1.412   .     A
C423   C429    1.396   .     A
C424   C432    1.402   .     A
C424   C426    1.396   .     A
C424   H454    1.084   .     S
C425   C434    1.402   .     A
C425   C427    1.395   .     A
C425   H455    1.084   .     S
C428   H453    1.078   .     S
C428   C430    1.395   .     A
C429   H452    1.074   .     S
C429   C431    1.395   .     A
C430   C435    1.419   .     A
C430   C432    1.415   .     A
C431   C436    1.421   .     A
C431   C434    1.416   .     A
C432   C1050   1.390   .     S
C433   C436    1.419   .     A
C433   C438    1.387   .     A
C433   H456    1.077   .     S
C434   C1051   1.389   1_554 S
C435   C437    1.418   .     A
C435   C1048   1.418   .     S
C436   C1047   1.418   1_554 S
C437   C439    1.386   .     A
C437   H457    1.078   .     S
C438   H443    1.084   .     S
C438   C1044   1.390   1_554 S
C439   H451    1.084   .     S
C439   C1046   1.389   .     S
C440   H458    1.085   .     S
C440   C34     1.373   1_565 S
C441   H444    1.085   .     S
C442   O474    1.382   .     S
H445   O474    0.989   .     S
H446   O462    0.989   .     S
H447   O599    0.990   1_455 S
H448   O532    0.990   .     S
H449   O465    0.990   .     S
H450   O466    0.990   .     S
N459   Zn475   2.013   .     S
N460   Zn476   2.013   .     S
O461   Zn475   1.984   .     S
O463   H515    0.990   .     S
O464   H584    0.990   1_455 S
O467   Zn476   1.984   .     S
O468   Zn476   1.988   .     S
O469   Zn475   1.988   .     S
O470   Zn475   1.965   .     S
O471   Zn476   1.965   .     S
O472   Zn476   1.902   .     S
O473   Zn475   1.902   .     S
Br477  C495    1.922   .     S
Br478  C494    1.922   .     S
C479   O536    1.280   .     A
C479   O529    1.282   .     A
C479   C482    1.410   .     S
C480   C482    1.408   .     A
C480   O530    1.382   .     S
C480   C101    1.373   1_565 S
C481   C510    1.408   .     A
C481   C490    1.409   .     S
C481   C509    1.395   .     A
C482   C508    1.395   .     A
C483   O531    1.378   .     S
C483   N528    1.366   .     A
C483   C553    1.440   .     S
C484   O532    1.378   .     S
C484   N527    1.366   .     A
C485   N527    1.369   .     A
C485   O533    1.378   .     S
C486   N528    1.369   .     A
C486   O534    1.378   .     S
C486   C552    1.440   .     S
C487   C489    1.462   .     S
C487   O538    1.291   .     A
C487   O540    1.298   .     A
C488   O541    1.299   .     A
C488   C491    1.468   .     S
C488   O539    1.293   .     A
C489   C496    1.392   .     A
C489   C494    1.412   .     A
C490   O535    1.282   .     A
C490   O537    1.280   .     A
C491   C495    1.412   .     A
C491   C497    1.396   .     A
C492   C500    1.402   .     A
C492   C494    1.396   .     A
C492   H522    1.084   .     S
C493   C502    1.402   .     A
C493   C495    1.395   .     A
C493   H523    1.084   .     S
C496   H521    1.078   .     S
C496   C498    1.395   .     A
C497   H520    1.074   .     S
C497   C499    1.395   .     A
C498   C503    1.419   .     A
C498   C500    1.415   .     A
C499   C504    1.421   .     A
C499   C502    1.416   .     A
C500   C1118   1.390   .     S
C501   C504    1.419   .     A
C501   C506    1.387   .     A
C501   H524    1.077   .     S
C502   C1119   1.389   1_554 S
C503   C505    1.418   .     A
C503   C1116   1.418   .     S
C504   C1115   1.418   1_554 S
C505   C507    1.386   .     A
C505   H525    1.078   .     S
C506   H511    1.084   .     S
C506   C1112   1.390   1_554 S
C507   H519    1.084   .     S
C507   C1114   1.389   .     S
C508   H526    1.085   .     S
C508   C102    1.373   1_565 S
C509   H512    1.085   .     S
C510   O542    1.382   .     S
H513   O542    0.989   .     S
H514   O530    0.989   .     S
H516   O600    0.990   .     S
H517   O533    0.990   .     S
H518   O534    0.990   .     S
N527   Zn543   2.013   .     S
N528   Zn544   2.013   .     S
O529   Zn543   1.984   .     S
O531   H583    0.990   .     S
O535   Zn544   1.984   .     S
O536   Zn544   1.988   .     S
O537   Zn543   1.988   .     S
O538   Zn543   1.965   .     S
O539   Zn544   1.965   .     S
O540   Zn544   1.902   .     S
O541   Zn543   1.902   .     S
Br545  C563    1.922   .     S
Br546  C562    1.922   .     S
C547   O604    1.280   .     A
C547   O597    1.282   .     A
C547   C550    1.410   .     S
C548   C550    1.408   .     A
C548   O598    1.382   .     S
C548   C169    1.373   1_565 S
C549   C578    1.408   .     A
C549   C558    1.409   .     S
C549   C577    1.395   .     A
C550   C576    1.395   .     A
C551   O599    1.378   .     S
C551   N596    1.366   .     A
C551   C417    1.440   1_655 S
C552   O600    1.378   .     S
C552   N595    1.366   .     A
C553   N595    1.369   .     A
C553   O601    1.378   .     S
C554   N596    1.369   .     A
C554   O602    1.378   .     S
C554   C416    1.440   1_655 S
C555   C557    1.462   .     S
C555   O606    1.291   .     A
C555   O608    1.298   .     A
C556   O609    1.299   .     A
C556   C559    1.468   .     S
C556   O607    1.293   .     A
C557   C564    1.392   .     A
C557   C562    1.412   .     A
C558   O603    1.282   .     A
C558   O605    1.280   .     A
C559   C563    1.412   .     A
C559   C565    1.396   .     A
C560   C568    1.402   .     A
C560   C562    1.396   .     A
C560   H590    1.084   .     S
C561   C570    1.402   .     A
C561   C563    1.395   .     A
C561   H591    1.084   .     S
C564   H589    1.078   .     S
C564   C566    1.395   .     A
C565   H588    1.074   .     S
C565   C567    1.395   .     A
C566   C571    1.419   .     A
C566   C568    1.415   .     A
C567   C572    1.421   .     A
C567   C570    1.416   .     A
C568   C1186   1.390   .     S
C569   C572    1.419   .     A
C569   C574    1.387   .     A
C569   H592    1.077   .     S
C570   C1187   1.389   1_554 S
C571   C573    1.418   .     A
C571   C1184   1.418   .     S
C572   C1183   1.418   1_554 S
C573   C575    1.386   .     A
C573   H593    1.078   .     S
C574   H579    1.084   .     S
C574   C1180   1.390   1_554 S
C575   H587    1.084   .     S
C575   C1182   1.389   .     S
C576   H594    1.085   .     S
C576   C170    1.373   1_565 S
C577   H580    1.085   .     S
C578   O610    1.382   .     S
H581   O610    0.989   .     S
H582   O598    0.989   .     S
H584   O464    0.990   1_655 S
H585   O601    0.990   .     S
H586   O602    0.990   .     S
N595   Zn611   2.013   .     S
N596   Zn612   2.013   .     S
O597   Zn611   1.984   .     S
O599   H447    0.990   1_655 S
O603   Zn612   1.984   .     S
O604   Zn612   1.988   .     S
O605   Zn611   1.988   .     S
O606   Zn611   1.965   .     S
O607   Zn612   1.965   .     S
O608   Zn612   1.902   .     S
O609   Zn611   1.902   .     S
Br613  C631    1.922   .     S
Br614  C630    1.922   .     S
C615   O672    1.280   .     A
C615   O665    1.282   .     A
C615   C618    1.410   .     S
C616   C618    1.408   .     A
C616   O666    1.382   .     S
C616   C849    1.373   .     S
C617   C646    1.408   .     A
C617   C626    1.409   .     S
C617   C645    1.395   .     A
C618   C644    1.395   .     A
C619   O667    1.378   .     S
C619   N664    1.366   .     A
C619   C689    1.440   .     S
C620   O668    1.378   .     S
C620   N663    1.366   .     A
C620   C758    1.440   1_455 S
C621   N663    1.369   .     A
C621   O669    1.378   .     S
C621   C755    1.440   1_455 S
C622   N664    1.369   .     A
C622   O670    1.378   .     S
C622   C688    1.440   .     S
C623   C625    1.462   .     S
C623   O674    1.291   .     A
C623   O676    1.298   .     A
C624   O677    1.299   .     A
C624   C627    1.468   .     S
C624   O675    1.293   .     A
C625   C632    1.392   .     A
C625   C630    1.412   .     A
C626   O671    1.282   .     A
C626   O673    1.280   .     A
C627   C631    1.412   .     A
C627   C633    1.396   .     A
C628   C636    1.402   .     A
C628   C630    1.396   .     A
C628   H658    1.084   .     S
C629   C638    1.402   .     A
C629   C631    1.395   .     A
C629   H659    1.084   .     S
C632   H657    1.078   .     S
C632   C634    1.395   .     A
C633   H656    1.074   .     S
C633   C635    1.395   .     A
C634   C639    1.419   .     A
C634   C636    1.415   .     A
C635   C640    1.421   .     A
C635   C638    1.416   .     A
C636   C30     1.390   1_556 S
C637   C640    1.419   .     A
C637   C642    1.387   .     A
C637   H660    1.077   .     S
C639   C641    1.418   .     A
C639   C28     1.418   1_556 S
C641   C643    1.386   .     A
C641   H661    1.078   .     S
C642   H647    1.084   .     S
C643   H655    1.084   .     S
C643   C26     1.389   1_556 S
C644   H662    1.085   .     S
C644   C850    1.373   .     S
C645   H648    1.085   .     S
C645   C1024   1.373   1_545 S
C646   O678    1.382   .     S
C646   C1052   1.373   1_545 S
H649   O678    0.989   .     S
H650   O666    0.989   .     S
H651   O803    0.990   1_455 S
H652   O736    0.990   .     S
H653   O669    0.990   .     S
H654   O670    0.990   .     S
N663   Zn679   2.013   .     S
N664   Zn680   2.013   .     S
O665   Zn679   1.984   .     S
O667   H719    0.990   .     S
O668   H788    0.990   1_455 S
O671   Zn680   1.984   .     S
O672   Zn680   1.988   .     S
O673   Zn679   1.988   .     S
O674   Zn679   1.965   .     S
O675   Zn680   1.965   .     S
O676   Zn680   1.902   .     S
O677   Zn679   1.902   .     S
Br681  C699    1.922   .     S
Br682  C698    1.922   .     S
C683   O740    1.280   .     A
C683   O733    1.282   .     A
C683   C686    1.410   .     S
C684   C686    1.408   .     A
C684   O734    1.382   .     S
C684   C917    1.373   .     S
C685   C714    1.408   .     A
C685   C694    1.409   .     S
C685   C713    1.395   .     A
C686   C712    1.395   .     A
C687   O735    1.378   .     S
C687   N732    1.366   .     A
C687   C757    1.440   .     S
C688   O736    1.378   .     S
C688   N731    1.366   .     A
C689   N731    1.369   .     A
C689   O737    1.378   .     S
C690   N732    1.369   .     A
C690   O738    1.378   .     S
C690   C756    1.440   .     S
C691   C693    1.462   .     S
C691   O742    1.291   .     A
C691   O744    1.298   .     A
C692   O745    1.299   .     A
C692   C695    1.468   .     S
C692   O743    1.293   .     A
C693   C700    1.392   .     A
C693   C698    1.412   .     A
C694   O739    1.282   .     A
C694   O741    1.280   .     A
C695   C699    1.412   .     A
C695   C701    1.396   .     A
C696   C704    1.402   .     A
C696   C698    1.396   .     A
C696   H726    1.084   .     S
C697   C706    1.402   .     A
C697   C699    1.395   .     A
C697   H727    1.084   .     S
C700   H725    1.078   .     S
C700   C702    1.395   .     A
C701   H724    1.074   .     S
C701   C703    1.395   .     A
C702   C707    1.419   .     A
C702   C704    1.415   .     A
C703   C708    1.421   .     A
C703   C706    1.416   .     A
C704   C98     1.390   1_556 S
C705   C708    1.419   .     A
C705   C710    1.387   .     A
C705   H728    1.077   .     S
C707   C709    1.418   .     A
C707   C96     1.418   1_556 S
C709   C711    1.386   .     A
C709   H729    1.078   .     S
C710   H715    1.084   .     S
C711   H723    1.084   .     S
C711   C94     1.389   1_556 S
C712   H730    1.085   .     S
C712   C918    1.373   .     S
C713   H716    1.085   .     S
C713   C1092   1.373   1_545 S
C714   O746    1.382   .     S
C714   C1120   1.373   1_545 S
H717   O746    0.989   .     S
H718   O734    0.989   .     S
H720   O804    0.990   .     S
H721   O737    0.990   .     S
H722   O738    0.990   .     S
N731   Zn747   2.013   .     S
N732   Zn748   2.013   .     S
O733   Zn747   1.984   .     S
O735   H787    0.990   .     S
O739   Zn748   1.984   .     S
O740   Zn748   1.988   .     S
O741   Zn747   1.988   .     S
O742   Zn747   1.965   .     S
O743   Zn748   1.965   .     S
O744   Zn748   1.902   .     S
O745   Zn747   1.902   .     S
Br749  C767    1.922   .     S
Br750  C766    1.922   .     S
C751   O808    1.280   .     A
C751   O801    1.282   .     A
C751   C754    1.410   .     S
C752   C754    1.408   .     A
C752   O802    1.382   .     S
C752   C985    1.373   .     S
C753   C782    1.408   .     A
C753   C762    1.409   .     S
C753   C781    1.395   .     A
C754   C780    1.395   .     A
C755   O803    1.378   .     S
C755   N800    1.366   .     A
C755   C621    1.440   1_655 S
C756   O804    1.378   .     S
C756   N799    1.366   .     A
C757   N799    1.369   .     A
C757   O805    1.378   .     S
C758   N800    1.369   .     A
C758   O806    1.378   .     S
C758   C620    1.440   1_655 S
C759   C761    1.462   .     S
C759   O810    1.291   .     A
C759   O812    1.298   .     A
C760   O813    1.299   .     A
C760   C763    1.468   .     S
C760   O811    1.293   .     A
C761   C768    1.392   .     A
C761   C766    1.412   .     A
C762   O807    1.282   .     A
C762   O809    1.280   .     A
C763   C767    1.412   .     A
C763   C769    1.396   .     A
C764   C772    1.402   .     A
C764   C766    1.396   .     A
C764   H794    1.084   .     S
C765   C774    1.402   .     A
C765   C767    1.395   .     A
C765   H795    1.084   .     S
C768   H793    1.078   .     S
C768   C770    1.395   .     A
C769   H792    1.074   .     S
C769   C771    1.395   .     A
C770   C775    1.419   .     A
C770   C772    1.415   .     A
C771   C776    1.421   .     A
C771   C774    1.416   .     A
C772   C166    1.390   1_556 S
C773   C776    1.419   .     A
C773   C778    1.387   .     A
C773   H796    1.077   .     S
C775   C777    1.418   .     A
C775   C164    1.418   1_556 S
C777   C779    1.386   .     A
C777   H797    1.078   .     S
C778   H783    1.084   .     S
C779   H791    1.084   .     S
C779   C162    1.389   1_556 S
C780   H798    1.085   .     S
C780   C986    1.373   .     S
C781   H784    1.085   .     S
C781   C1160   1.373   1_545 S
C782   O814    1.382   .     S
C782   C1188   1.373   1_545 S
H785   O814    0.989   .     S
H786   O802    0.989   .     S
H788   O668    0.990   1_655 S
H789   O805    0.990   .     S
H790   O806    0.990   .     S
N799   Zn815   2.013   .     S
N800   Zn816   2.013   .     S
O801   Zn815   1.984   .     S
O803   H651    0.990   1_655 S
O807   Zn816   1.984   .     S
O808   Zn816   1.988   .     S
O809   Zn815   1.988   .     S
O810   Zn815   1.965   .     S
O811   Zn816   1.965   .     S
O812   Zn816   1.902   .     S
O813   Zn815   1.902   .     S
Br817  C835    1.922   .     S
Br818  C834    1.922   .     S
C819   O876    1.280   .     A
C819   O869    1.282   .     A
C819   C822    1.410   .     S
C820   C822    1.408   .     A
C820   O870    1.382   .     S
C820   C1053   1.373   .     S
C821   C850    1.408   .     A
C821   C830    1.409   .     S
C821   C849    1.395   .     A
C822   C848    1.395   .     A
C823   O871    1.378   .     S
C823   N868    1.366   .     A
C823   C893    1.440   .     S
C824   O872    1.378   .     S
C824   N867    1.366   .     A
C824   C962    1.440   1_455 S
C825   N867    1.369   .     A
C825   O873    1.378   .     S
C825   C959    1.440   1_455 S
C826   N868    1.369   .     A
C826   O874    1.378   .     S
C826   C892    1.440   .     S
C827   C829    1.462   .     S
C827   O878    1.291   .     A
C827   O880    1.298   .     A
C828   O881    1.299   .     A
C828   C831    1.468   .     S
C828   O879    1.293   .     A
C829   C836    1.392   .     A
C829   C834    1.412   .     A
C830   O875    1.282   .     A
C830   O877    1.280   .     A
C831   C835    1.412   .     A
C831   C837    1.396   .     A
C832   C840    1.402   .     A
C832   C834    1.396   .     A
C832   H862    1.084   .     S
C833   C842    1.402   .     A
C833   C835    1.395   .     A
C833   H863    1.084   .     S
C836   H861    1.078   .     S
C836   C838    1.395   .     A
C837   H860    1.074   .     S
C837   C839    1.395   .     A
C838   C843    1.419   .     A
C838   C840    1.415   .     A
C839   C844    1.421   .     A
C839   C842    1.416   .     A
C840   C234    1.390   1_556 S
C841   C844    1.419   .     A
C841   C846    1.387   .     A
C841   H864    1.077   .     S
C843   C845    1.418   .     A
C843   C232    1.418   1_556 S
C845   C847    1.386   .     A
C845   H865    1.078   .     S
C846   H851    1.084   .     S
C847   H859    1.084   .     S
C847   C230    1.389   1_556 S
C848   H866    1.085   .     S
C848   C1054   1.373   .     S
C849   H852    1.085   .     S
C850   O882    1.382   .     S
H853   O882    0.989   .     S
H854   O870    0.989   .     S
H855   O1007   0.990   1_455 S
H856   O940    0.990   .     S
H857   O873    0.990   .     S
H858   O874    0.990   .     S
N867   Zn883   2.013   .     S
N868   Zn884   2.013   .     S
O869   Zn883   1.984   .     S
O871   H923    0.990   .     S
O872   H992    0.990   1_455 S
O875   Zn884   1.984   .     S
O876   Zn884   1.988   .     S
O877   Zn883   1.988   .     S
O878   Zn883   1.965   .     S
O879   Zn884   1.965   .     S
O880   Zn884   1.902   .     S
O881   Zn883   1.902   .     S
Br885  C903    1.922   .     S
Br886  C902    1.922   .     S
C887   O944    1.280   .     A
C887   O937    1.282   .     A
C887   C890    1.410   .     S
C888   C890    1.408   .     A
C888   O938    1.382   .     S
C888   C1121   1.373   .     S
C889   C918    1.408   .     A
C889   C898    1.409   .     S
C889   C917    1.395   .     A
C890   C916    1.395   .     A
C891   O939    1.378   .     S
C891   N936    1.366   .     A
C891   C961    1.440   .     S
C892   O940    1.378   .     S
C892   N935    1.366   .     A
C893   N935    1.369   .     A
C893   O941    1.378   .     S
C894   N936    1.369   .     A
C894   O942    1.378   .     S
C894   C960    1.440   .     S
C895   C897    1.462   .     S
C895   O946    1.291   .     A
C895   O948    1.298   .     A
C896   O949    1.299   .     A
C896   C899    1.468   .     S
C896   O947    1.293   .     A
C897   C904    1.392   .     A
C897   C902    1.412   .     A
C898   O943    1.282   .     A
C898   O945    1.280   .     A
C899   C903    1.412   .     A
C899   C905    1.396   .     A
C900   C908    1.402   .     A
C900   C902    1.396   .     A
C900   H930    1.084   .     S
C901   C910    1.402   .     A
C901   C903    1.395   .     A
C901   H931    1.084   .     S
C904   H929    1.078   .     S
C904   C906    1.395   .     A
C905   H928    1.074   .     S
C905   C907    1.395   .     A
C906   C911    1.419   .     A
C906   C908    1.415   .     A
C907   C912    1.421   .     A
C907   C910    1.416   .     A
C908   C302    1.390   1_556 S
C909   C912    1.419   .     A
C909   C914    1.387   .     A
C909   H932    1.077   .     S
C911   C913    1.418   .     A
C911   C300    1.418   1_556 S
C913   C915    1.386   .     A
C913   H933    1.078   .     S
C914   H919    1.084   .     S
C915   H927    1.084   .     S
C915   C298    1.389   1_556 S
C916   H934    1.085   .     S
C916   C1122   1.373   .     S
C917   H920    1.085   .     S
C918   O950    1.382   .     S
H921   O950    0.989   .     S
H922   O938    0.989   .     S
H924   O1008   0.990   .     S
H925   O941    0.990   .     S
H926   O942    0.990   .     S
N935   Zn951   2.013   .     S
N936   Zn952   2.013   .     S
O937   Zn951   1.984   .     S
O939   H991    0.990   .     S
O943   Zn952   1.984   .     S
O944   Zn952   1.988   .     S
O945   Zn951   1.988   .     S
O946   Zn951   1.965   .     S
O947   Zn952   1.965   .     S
O948   Zn952   1.902   .     S
O949   Zn951   1.902   .     S
Br953  C971    1.922   .     S
Br954  C970    1.922   .     S
C955   O1012   1.280   .     A
C955   O1005   1.282   .     A
C955   C958    1.410   .     S
C956   C958    1.408   .     A
C956   O1006   1.382   .     S
C956   C1189   1.373   .     S
C957   C986    1.408   .     A
C957   C966    1.409   .     S
C957   C985    1.395   .     A
C958   C984    1.395   .     A
C959   O1007   1.378   .     S
C959   N1004   1.366   .     A
C959   C825    1.440   1_655 S
C960   O1008   1.378   .     S
C960   N1003   1.366   .     A
C961   N1003   1.369   .     A
C961   O1009   1.378   .     S
C962   N1004   1.369   .     A
C962   O1010   1.378   .     S
C962   C824    1.440   1_655 S
C963   C965    1.462   .     S
C963   O1014   1.291   .     A
C963   O1016   1.298   .     A
C964   O1017   1.299   .     A
C964   C967    1.468   .     S
C964   O1015   1.293   .     A
C965   C972    1.392   .     A
C965   C970    1.412   .     A
C966   O1011   1.282   .     A
C966   O1013   1.280   .     A
C967   C971    1.412   .     A
C967   C973    1.396   .     A
C968   C976    1.402   .     A
C968   C970    1.396   .     A
C968   H998    1.084   .     S
C969   C978    1.402   .     A
C969   C971    1.395   .     A
C969   H999    1.084   .     S
C972   H997    1.078   .     S
C972   C974    1.395   .     A
C973   H996    1.074   .     S
C973   C975    1.395   .     A
C974   C979    1.419   .     A
C974   C976    1.415   .     A
C975   C980    1.421   .     A
C975   C978    1.416   .     A
C976   C370    1.390   1_556 S
C977   C980    1.419   .     A
C977   C982    1.387   .     A
C977   H1000   1.077   .     S
C979   C981    1.418   .     A
C979   C368    1.418   1_556 S
C981   C983    1.386   .     A
C981   H1001   1.078   .     S
C982   H987    1.084   .     S
C983   H995    1.084   .     S
C983   C366    1.389   1_556 S
C984   H1002   1.085   .     S
C984   C1190   1.373   .     S
C985   H988    1.085   .     S
C986   O1018   1.382   .     S
H989   O1018   0.989   .     S
H990   O1006   0.989   .     S
H992   O872    0.990   1_655 S
H993   O1009   0.990   .     S
H994   O1010   0.990   .     S
N1003  Zn1019  2.013   .     S
N1004  Zn1020  2.013   .     S
O1005  Zn1019  1.984   .     S
O1007  H855    0.990   1_655 S
O1011  Zn1020  1.984   .     S
O1012  Zn1020  1.988   .     S
O1013  Zn1019  1.988   .     S
O1014  Zn1019  1.965   .     S
O1015  Zn1020  1.965   .     S
O1016  Zn1020  1.902   .     S
O1017  Zn1019  1.902   .     S
Br1021 C1039   1.922   .     S
Br1022 C1038   1.922   .     S
C1023  O1080   1.280   .     A
C1023  O1073   1.282   .     A
C1023  C1026   1.410   .     S
C1024  C1026   1.408   .     A
C1024  O1074   1.382   .     S
C1024  C645    1.373   1_565 S
C1025  C1054   1.408   .     A
C1025  C1034   1.409   .     S
C1025  C1053   1.395   .     A
C1026  C1052   1.395   .     A
C1027  O1075   1.378   .     S
C1027  N1072   1.366   .     A
C1027  C1097   1.440   .     S
C1028  O1076   1.378   .     S
C1028  N1071   1.366   .     A
C1028  C1166   1.440   1_455 S
C1029  N1071   1.369   .     A
C1029  O1077   1.378   .     S
C1029  C1163   1.440   1_455 S
C1030  N1072   1.369   .     A
C1030  O1078   1.378   .     S
C1030  C1096   1.440   .     S
C1031  C1033   1.462   .     S
C1031  O1082   1.291   .     A
C1031  O1084   1.298   .     A
C1032  O1085   1.299   .     A
C1032  C1035   1.468   .     S
C1032  O1083   1.293   .     A
C1033  C1040   1.392   .     A
C1033  C1038   1.412   .     A
C1034  O1079   1.282   .     A
C1034  O1081   1.280   .     A
C1035  C1039   1.412   .     A
C1035  C1041   1.396   .     A
C1036  C1044   1.402   .     A
C1036  C1038   1.396   .     A
C1036  H1066   1.084   .     S
C1037  C1046   1.402   .     A
C1037  C1039   1.395   .     A
C1037  H1067   1.084   .     S
C1040  H1065   1.078   .     S
C1040  C1042   1.395   .     A
C1041  H1064   1.074   .     S
C1041  C1043   1.395   .     A
C1042  C1047   1.419   .     A
C1042  C1044   1.415   .     A
C1043  C1048   1.421   .     A
C1043  C1046   1.416   .     A
C1044  C438    1.390   1_556 S
C1045  C1048   1.419   .     A
C1045  C1050   1.387   .     A
C1045  H1068   1.077   .     S
C1047  C1049   1.418   .     A
C1047  C436    1.418   1_556 S
C1049  C1051   1.386   .     A
C1049  H1069   1.078   .     S
C1050  H1055   1.084   .     S
C1051  H1063   1.084   .     S
C1051  C434    1.389   1_556 S
C1052  H1070   1.085   .     S
C1052  C646    1.373   1_565 S
C1053  H1056   1.085   .     S
C1054  O1086   1.382   .     S
H1057  O1086   0.989   .     S
H1058  O1074   0.989   .     S
H1059  O1211   0.990   1_455 S
H1060  O1144   0.990   .     S
H1061  O1077   0.990   .     S
H1062  O1078   0.990   .     S
N1071  Zn1087  2.013   .     S
N1072  Zn1088  2.013   .     S
O1073  Zn1087  1.984   .     S
O1075  H1127   0.990   .     S
O1076  H1196   0.990   1_455 S
O1079  Zn1088  1.984   .     S
O1080  Zn1088  1.988   .     S
O1081  Zn1087  1.988   .     S
O1082  Zn1087  1.965   .     S
O1083  Zn1088  1.965   .     S
O1084  Zn1088  1.902   .     S
O1085  Zn1087  1.902   .     S
Br1089 C1107   1.922   .     S
Br1090 C1106   1.922   .     S
C1091  O1148   1.280   .     A
C1091  O1141   1.282   .     A
C1091  C1094   1.410   .     S
C1092  C1094   1.408   .     A
C1092  O1142   1.382   .     S
C1092  C713    1.373   1_565 S
C1093  C1122   1.408   .     A
C1093  C1102   1.409   .     S
C1093  C1121   1.395   .     A
C1094  C1120   1.395   .     A
C1095  O1143   1.378   .     S
C1095  N1140   1.366   .     A
C1095  C1165   1.440   .     S
C1096  O1144   1.378   .     S
C1096  N1139   1.366   .     A
C1097  N1139   1.369   .     A
C1097  O1145   1.378   .     S
C1098  N1140   1.369   .     A
C1098  O1146   1.378   .     S
C1098  C1164   1.440   .     S
C1099  C1101   1.462   .     S
C1099  O1150   1.291   .     A
C1099  O1152   1.298   .     A
C1100  O1153   1.299   .     A
C1100  C1103   1.468   .     S
C1100  O1151   1.293   .     A
C1101  C1108   1.392   .     A
C1101  C1106   1.412   .     A
C1102  O1147   1.282   .     A
C1102  O1149   1.280   .     A
C1103  C1107   1.412   .     A
C1103  C1109   1.396   .     A
C1104  C1112   1.402   .     A
C1104  C1106   1.396   .     A
C1104  H1134   1.084   .     S
C1105  C1114   1.402   .     A
C1105  C1107   1.395   .     A
C1105  H1135   1.084   .     S
C1108  H1133   1.078   .     S
C1108  C1110   1.395   .     A
C1109  H1132   1.074   .     S
C1109  C1111   1.395   .     A
C1110  C1115   1.419   .     A
C1110  C1112   1.415   .     A
C1111  C1116   1.421   .     A
C1111  C1114   1.416   .     A
C1112  C506    1.390   1_556 S
C1113  C1116   1.419   .     A
C1113  C1118   1.387   .     A
C1113  H1136   1.077   .     S
C1115  C1117   1.418   .     A
C1115  C504    1.418   1_556 S
C1117  C1119   1.386   .     A
C1117  H1137   1.078   .     S
C1118  H1123   1.084   .     S
C1119  H1131   1.084   .     S
C1119  C502    1.389   1_556 S
C1120  H1138   1.085   .     S
C1120  C714    1.373   1_565 S
C1121  H1124   1.085   .     S
C1122  O1154   1.382   .     S
H1125  O1154   0.989   .     S
H1126  O1142   0.989   .     S
H1128  O1212   0.990   .     S
H1129  O1145   0.990   .     S
H1130  O1146   0.990   .     S
N1139  Zn1155  2.013   .     S
N1140  Zn1156  2.013   .     S
O1141  Zn1155  1.984   .     S
O1143  H1195   0.990   .     S
O1147  Zn1156  1.984   .     S
O1148  Zn1156  1.988   .     S
O1149  Zn1155  1.988   .     S
O1150  Zn1155  1.965   .     S
O1151  Zn1156  1.965   .     S
O1152  Zn1156  1.902   .     S
O1153  Zn1155  1.902   .     S
Br1157 C1175   1.922   .     S
Br1158 C1174   1.922   .     S
C1159  O1216   1.280   .     A
C1159  O1209   1.282   .     A
C1159  C1162   1.410   .     S
C1160  C1162   1.408   .     A
C1160  O1210   1.382   .     S
C1160  C781    1.373   1_565 S
C1161  C1190   1.408   .     A
C1161  C1170   1.409   .     S
C1161  C1189   1.395   .     A
C1162  C1188   1.395   .     A
C1163  O1211   1.378   .     S
C1163  N1208   1.366   .     A
C1163  C1029   1.440   1_655 S
C1164  O1212   1.378   .     S
C1164  N1207   1.366   .     A
C1165  N1207   1.369   .     A
C1165  O1213   1.378   .     S
C1166  N1208   1.369   .     A
C1166  O1214   1.378   .     S
C1166  C1028   1.440   1_655 S
C1167  C1169   1.462   .     S
C1167  O1218   1.291   .     A
C1167  O1220   1.298   .     A
C1168  O1221   1.299   .     A
C1168  C1171   1.468   .     S
C1168  O1219   1.293   .     A
C1169  C1176   1.392   .     A
C1169  C1174   1.412   .     A
C1170  O1215   1.282   .     A
C1170  O1217   1.280   .     A
C1171  C1175   1.412   .     A
C1171  C1177   1.396   .     A
C1172  C1180   1.402   .     A
C1172  C1174   1.396   .     A
C1172  H1202   1.084   .     S
C1173  C1182   1.402   .     A
C1173  C1175   1.395   .     A
C1173  H1203   1.084   .     S
C1176  H1201   1.078   .     S
C1176  C1178   1.395   .     A
C1177  H1200   1.074   .     S
C1177  C1179   1.395   .     A
C1178  C1183   1.419   .     A
C1178  C1180   1.415   .     A
C1179  C1184   1.421   .     A
C1179  C1182   1.416   .     A
C1180  C574    1.390   1_556 S
C1181  C1184   1.419   .     A
C1181  C1186   1.387   .     A
C1181  H1204   1.077   .     S
C1183  C1185   1.418   .     A
C1183  C572    1.418   1_556 S
C1185  C1187   1.386   .     A
C1185  H1205   1.078   .     S
C1186  H1191   1.084   .     S
C1187  H1199   1.084   .     S
C1187  C570    1.389   1_556 S
C1188  H1206   1.085   .     S
C1188  C782    1.373   1_565 S
C1189  H1192   1.085   .     S
C1190  O1222   1.382   .     S
H1193  O1222   0.989   .     S
H1194  O1210   0.989   .     S
H1196  O1076   0.990   1_655 S
H1197  O1213   0.990   .     S
H1198  O1214   0.990   .     S
N1207  Zn1223  2.013   .     S
N1208  Zn1224  2.013   .     S
O1209  Zn1223  1.984   .     S
O1211  H1059   0.990   1_655 S
O1215  Zn1224  1.984   .     S
O1216  Zn1224  1.988   .     S
O1217  Zn1223  1.988   .     S
O1218  Zn1223  1.965   .     S
O1219  Zn1224  1.965   .     S
O1220  Zn1224  1.902   .     S
O1221  Zn1223  1.902   .     S
