data_str_m3_o2_o10_pcu_sym.36
_audit_creation_date              2020-01-03
_audit_creation_method            'Materials Studio'
_symmetry_space_group_name_H-M    'P1'
_symmetry_Int_Tables_number       1
_symmetry_cell_setting            triclinic
loop_
_symmetry_equiv_pos_as_xyz
  x,y,z
_cell_length_a                    25.7382
_cell_length_b                    29.9052
_cell_length_c                    28.2981
_cell_angle_alpha                 89.6622
_cell_angle_beta                  98.6010
_cell_angle_gamma                 89.5436
loop_
_atom_site_label
_atom_site_type_symbol
_atom_site_fract_x
_atom_site_fract_y
_atom_site_fract_z
_atom_site_U_iso_or_equiv
_atom_site_adp_type
_atom_site_occupancy
C1     C     0.16554   0.16413   0.25000   0.00000  Uiso   1.00
C2     C     0.13510   0.28134   0.44275   0.00000  Uiso   1.00
C3     C     0.16706   0.25070   0.02656   0.00000  Uiso   1.00
C4     C     0.16631   0.25082   0.47329   0.00000  Uiso   1.00
C5     C     0.06698   0.25028   0.23753   0.00000  Uiso   1.00
C6     C     0.26635   0.25032   0.26247   0.00000  Uiso   1.00
C7     C     0.01199   0.25078   0.23077   0.00000  Uiso   1.00
C8     C     0.32134   0.25105   0.26922   0.00000  Uiso   1.00
C9     C     0.11654   0.04771   0.24845   0.00000  Uiso   1.00
C10    C     0.18394   0.45328   0.20800   0.00000  Uiso   1.00
C11    C     0.11741   0.09409   0.25309   0.00000  Uiso   1.00
C12    C     0.16827   0.33623   0.25003   0.00000  Uiso   1.00
C13    C     0.19057   0.40711   0.21183   0.00000  Uiso   1.00
C14    C     0.16443   0.11662   0.25015   0.00000  Uiso   1.00
C15    C     0.17196   0.38438   0.24988   0.00000  Uiso   1.00
C16    C     0.21068   0.09381   0.24573   0.00000  Uiso   1.00
C17    C     0.15522   0.40808   0.28733   0.00000  Uiso   1.00
C18    C     0.21089   0.04780   0.24519   0.00000  Uiso   1.00
C19    C     0.15378   0.45410   0.28576   0.00000  Uiso   1.00
C20    C     0.16390   0.02476   0.24547   0.00000  Uiso   1.00
C21    C     0.16613   0.47659   0.24557   0.00000  Uiso   1.00
C22    C     0.06638   0.12323   0.30490   0.00000  Uiso   1.00
C23    C     0.12218   0.23808   0.04612   0.00000  Uiso   1.00
C24    C     0.00843   0.13004   0.30915   0.00000  Uiso   1.00
C25    C     0.00104   0.14484   0.35923   0.00000  Uiso   1.00
C26    C     0.26313   0.36814   0.19525   0.00000  Uiso   1.00
C27    C     0.30526   0.40208   0.18738   0.00000  Uiso   1.00
C28    C     0.02710   0.38326   0.20362   0.00000  Uiso   1.00
C29    C     0.19720   0.21988   0.45223   0.00000  Uiso   1.00
C30    C     0.12276   0.23795   0.09595   0.00000  Uiso   1.00
C31    C     0.19688   0.22007   0.40246   0.00000  Uiso   1.00
C32    C     0.21083   0.26214   0.10821   0.00000  Uiso   1.00
C33    C     0.13601   0.28019   0.39308   0.00000  Uiso   1.00
C34    C     0.21214   0.26278   0.05861   0.00000  Uiso   1.00
H35    H     0.32473   0.25059   0.19429   0.00000  Uiso   1.00
H36    H     0.22089   0.19619   0.38673   0.00000  Uiso   1.00
H37    H     0.24546   0.27152   0.13233   0.00000  Uiso   1.00
H38    H     0.11228   0.30372   0.36979   0.00000  Uiso   1.00
H39    H     0.08835   0.15334   0.31880   0.00000  Uiso   1.00
H40    H     0.08121   0.09384   0.32771   0.00000  Uiso   1.00
H41    H     0.32425   0.15574   0.28289   0.00000  Uiso   1.00
H42    H     0.32088   0.09800   0.30102   0.00000  Uiso   1.00
H43    H     0.01829   0.11965   0.38620   0.00000  Uiso   1.00
H44    H     0.29178   0.14831   0.36112   0.00000  Uiso   1.00
H45    H     0.02003   0.17767   0.36759   0.00000  Uiso   1.00
H46    H     0.00863   0.25125   0.30571   0.00000  Uiso   1.00
H47    H     0.27006   0.33725   0.17553   0.00000  Uiso   1.00
H48    H     0.26772   0.35842   0.23379   0.00000  Uiso   1.00
H49    H     0.30113   0.41102   0.14881   0.00000  Uiso   1.00
H50    H     0.29981   0.43285   0.20792   0.00000  Uiso   1.00
H51    H     0.03253   0.37494   0.24237   0.00000  Uiso   1.00
H52    H     0.05671   0.40856   0.19735   0.00000  Uiso   1.00
H53    H     0.03380   0.35268   0.18316   0.00000  Uiso   1.00
H54    H     0.24643   0.11173   0.24283   0.00000  Uiso   1.00
H55    H     0.14235   0.39109   0.31740   0.00000  Uiso   1.00
H56    H     0.24744   0.03004   0.24362   0.00000  Uiso   1.00
H57    H     0.14155   0.47230   0.31530   0.00000  Uiso   1.00
H58    H     0.08681   0.22831   0.02290   0.00000  Uiso   1.00
H59    H     0.22151   0.19571   0.47424   0.00000  Uiso   1.00
H60    H     0.08789   0.22813   0.11032   0.00000  Uiso   1.00
I61    I     0.04301   0.01432   0.24334   0.00000  Uiso   1.00
I62    I     0.19840   0.48592   0.14400   0.00000  Uiso   1.00
I63    I     0.28244   0.28402   0.03499   0.00000  Uiso   1.00
I64    I     0.08794   0.33104   0.46912   0.00000  Uiso   1.00
N65    N     0.16667   0.24999   0.12623   0.00000  Uiso   1.00
N66    N     0.16667   0.25001   0.37376   0.00000  Uiso   1.00
O67    O     0.16667   0.18453   0.28974   0.00000  Uiso   1.00
O68    O     0.21221   0.38455   0.17664   0.00000  Uiso   1.00
O69    O     0.16666   0.31546   0.21026   0.00000  Uiso   1.00
O70    O     0.16667   0.18453   0.21026   0.00000  Uiso   1.00
O71    O     0.16666   0.31547   0.28974   0.00000  Uiso   1.00
O72    O     0.09058   0.25000   0.28044   0.00000  Uiso   1.00
O73    O     0.24275   0.25000   0.21955   0.00000  Uiso   1.00
O74    O     0.09058   0.24999   0.20096   0.00000  Uiso   1.00
O75    O     0.24275   0.25000   0.29903   0.00000  Uiso   1.00
O76    O     0.07141   0.11743   0.25617   0.00000  Uiso   1.00
Zn77   Zn    0.16667   0.25000   0.30307   0.00000  Uiso   1.00
Zn78   Zn    0.16667   0.24999   0.19693   0.00000  Uiso   1.00
C79    C     0.49887   0.16413   0.25000   0.00000  Uiso   1.00
C80    C     0.46843   0.28134   0.44275   0.00000  Uiso   1.00
C81    C     0.50040   0.25070   0.02656   0.00000  Uiso   1.00
C82    C     0.49964   0.25082   0.47329   0.00000  Uiso   1.00
C83    C     0.40032   0.25028   0.23753   0.00000  Uiso   1.00
C84    C     0.59968   0.25032   0.26247   0.00000  Uiso   1.00
C85    C     0.34532   0.25078   0.23077   0.00000  Uiso   1.00
C86    C     0.65468   0.25105   0.26922   0.00000  Uiso   1.00
C87    C     0.44987   0.04771   0.24845   0.00000  Uiso   1.00
C88    C     0.51727   0.45328   0.20800   0.00000  Uiso   1.00
C89    C     0.45074   0.09409   0.25309   0.00000  Uiso   1.00
C90    C     0.50161   0.33623   0.25003   0.00000  Uiso   1.00
C91    C     0.52390   0.40711   0.21183   0.00000  Uiso   1.00
C92    C     0.49777   0.11662   0.25015   0.00000  Uiso   1.00
C93    C     0.50530   0.38438   0.24988   0.00000  Uiso   1.00
C94    C     0.54402   0.09381   0.24573   0.00000  Uiso   1.00
C95    C     0.48855   0.40808   0.28733   0.00000  Uiso   1.00
C96    C     0.54422   0.04780   0.24519   0.00000  Uiso   1.00
C97    C     0.48711   0.45410   0.28576   0.00000  Uiso   1.00
C98    C     0.49723   0.02476   0.24547   0.00000  Uiso   1.00
C99    C     0.49946   0.47659   0.24557   0.00000  Uiso   1.00
C100   C     0.39971   0.12323   0.30490   0.00000  Uiso   1.00
C101   C     0.45551   0.23808   0.04612   0.00000  Uiso   1.00
C102   C     0.34176   0.13004   0.30915   0.00000  Uiso   1.00
C103   C     0.33438   0.14484   0.35923   0.00000  Uiso   1.00
C104   C     0.59647   0.36814   0.19525   0.00000  Uiso   1.00
C105   C     0.63859   0.40208   0.18738   0.00000  Uiso   1.00
C106   C     0.36043   0.38326   0.20362   0.00000  Uiso   1.00
C107   C     0.53053   0.21988   0.45223   0.00000  Uiso   1.00
C108   C     0.45609   0.23795   0.09595   0.00000  Uiso   1.00
C109   C     0.53022   0.22007   0.40246   0.00000  Uiso   1.00
C110   C     0.54416   0.26214   0.10821   0.00000  Uiso   1.00
C111   C     0.46934   0.28019   0.39308   0.00000  Uiso   1.00
C112   C     0.54547   0.26278   0.05861   0.00000  Uiso   1.00
H113   H     0.65807   0.25059   0.19429   0.00000  Uiso   1.00
H114   H     0.55422   0.19619   0.38673   0.00000  Uiso   1.00
H115   H     0.57879   0.27152   0.13233   0.00000  Uiso   1.00
H116   H     0.44562   0.30372   0.36979   0.00000  Uiso   1.00
H117   H     0.42169   0.15334   0.31880   0.00000  Uiso   1.00
H118   H     0.41455   0.09384   0.32771   0.00000  Uiso   1.00
H119   H     0.65758   0.15574   0.28289   0.00000  Uiso   1.00
H120   H     0.65421   0.09800   0.30102   0.00000  Uiso   1.00
H121   H     0.35163   0.11965   0.38620   0.00000  Uiso   1.00
H122   H     0.62511   0.14831   0.36112   0.00000  Uiso   1.00
H123   H     0.35336   0.17767   0.36759   0.00000  Uiso   1.00
H124   H     0.34196   0.25125   0.30571   0.00000  Uiso   1.00
H125   H     0.60339   0.33725   0.17553   0.00000  Uiso   1.00
H126   H     0.60106   0.35842   0.23379   0.00000  Uiso   1.00
H127   H     0.63447   0.41102   0.14881   0.00000  Uiso   1.00
H128   H     0.63314   0.43285   0.20792   0.00000  Uiso   1.00
H129   H     0.36586   0.37494   0.24237   0.00000  Uiso   1.00
H130   H     0.39005   0.40856   0.19735   0.00000  Uiso   1.00
H131   H     0.36713   0.35268   0.18316   0.00000  Uiso   1.00
H132   H     0.57976   0.11173   0.24283   0.00000  Uiso   1.00
H133   H     0.47568   0.39109   0.31740   0.00000  Uiso   1.00
H134   H     0.58078   0.03004   0.24362   0.00000  Uiso   1.00
H135   H     0.47488   0.47230   0.31530   0.00000  Uiso   1.00
H136   H     0.42014   0.22831   0.02290   0.00000  Uiso   1.00
H137   H     0.55484   0.19571   0.47424   0.00000  Uiso   1.00
H138   H     0.42123   0.22813   0.11032   0.00000  Uiso   1.00
I139   I     0.37634   0.01432   0.24334   0.00000  Uiso   1.00
I140   I     0.53174   0.48592   0.14400   0.00000  Uiso   1.00
I141   I     0.61577   0.28402   0.03499   0.00000  Uiso   1.00
I142   I     0.42127   0.33104   0.46912   0.00000  Uiso   1.00
N143   N     0.50000   0.24999   0.12623   0.00000  Uiso   1.00
N144   N     0.50000   0.25001   0.37376   0.00000  Uiso   1.00
O145   O     0.50000   0.18453   0.28974   0.00000  Uiso   1.00
O146   O     0.54554   0.38455   0.17664   0.00000  Uiso   1.00
O147   O     0.50000   0.31546   0.21026   0.00000  Uiso   1.00
O148   O     0.50000   0.18453   0.21026   0.00000  Uiso   1.00
O149   O     0.50000   0.31547   0.28974   0.00000  Uiso   1.00
O150   O     0.42392   0.25000   0.28044   0.00000  Uiso   1.00
O151   O     0.57608   0.25000   0.21955   0.00000  Uiso   1.00
O152   O     0.42392   0.24999   0.20096   0.00000  Uiso   1.00
O153   O     0.57608   0.25000   0.29903   0.00000  Uiso   1.00
O154   O     0.40474   0.11743   0.25617   0.00000  Uiso   1.00
Zn155  Zn    0.50000   0.25000   0.30307   0.00000  Uiso   1.00
Zn156  Zn    0.50000   0.24999   0.19693   0.00000  Uiso   1.00
C157   C     0.83221   0.16413   0.25000   0.00000  Uiso   1.00
C158   C     0.80177   0.28134   0.44275   0.00000  Uiso   1.00
C159   C     0.83373   0.25070   0.02656   0.00000  Uiso   1.00
C160   C     0.83297   0.25082   0.47329   0.00000  Uiso   1.00
C161   C     0.73365   0.25028   0.23753   0.00000  Uiso   1.00
C162   C     0.93301   0.25032   0.26247   0.00000  Uiso   1.00
C163   C     0.67865   0.25078   0.23077   0.00000  Uiso   1.00
C164   C     0.98801   0.25105   0.26922   0.00000  Uiso   1.00
C165   C     0.78320   0.04771   0.24845   0.00000  Uiso   1.00
C166   C     0.85060   0.45328   0.20800   0.00000  Uiso   1.00
C167   C     0.78407   0.09409   0.25309   0.00000  Uiso   1.00
C168   C     0.83494   0.33623   0.25003   0.00000  Uiso   1.00
C169   C     0.85723   0.40711   0.21183   0.00000  Uiso   1.00
C170   C     0.83110   0.11662   0.25015   0.00000  Uiso   1.00
C171   C     0.83863   0.38438   0.24988   0.00000  Uiso   1.00
C172   C     0.87735   0.09381   0.24573   0.00000  Uiso   1.00
C173   C     0.82188   0.40808   0.28733   0.00000  Uiso   1.00
C174   C     0.87755   0.04780   0.24519   0.00000  Uiso   1.00
C175   C     0.82045   0.45410   0.28576   0.00000  Uiso   1.00
C176   C     0.83056   0.02476   0.24547   0.00000  Uiso   1.00
C177   C     0.83279   0.47659   0.24557   0.00000  Uiso   1.00
C178   C     0.73305   0.12323   0.30490   0.00000  Uiso   1.00
C179   C     0.78884   0.23808   0.04612   0.00000  Uiso   1.00
C180   C     0.67509   0.13004   0.30915   0.00000  Uiso   1.00
C181   C     0.66771   0.14484   0.35923   0.00000  Uiso   1.00
C182   C     0.92980   0.36814   0.19525   0.00000  Uiso   1.00
C183   C     0.97192   0.40208   0.18738   0.00000  Uiso   1.00
C184   C     0.69377   0.38326   0.20362   0.00000  Uiso   1.00
C185   C     0.86387   0.21988   0.45223   0.00000  Uiso   1.00
C186   C     0.78943   0.23795   0.09595   0.00000  Uiso   1.00
C187   C     0.86355   0.22007   0.40246   0.00000  Uiso   1.00
C188   C     0.87750   0.26214   0.10821   0.00000  Uiso   1.00
C189   C     0.80268   0.28019   0.39308   0.00000  Uiso   1.00
C190   C     0.87880   0.26278   0.05861   0.00000  Uiso   1.00
H191   H     0.99140   0.25059   0.19429   0.00000  Uiso   1.00
H192   H     0.88755   0.19619   0.38673   0.00000  Uiso   1.00
H193   H     0.91212   0.27152   0.13233   0.00000  Uiso   1.00
H194   H     0.77895   0.30372   0.36979   0.00000  Uiso   1.00
H195   H     0.75502   0.15334   0.31880   0.00000  Uiso   1.00
H196   H     0.74788   0.09384   0.32771   0.00000  Uiso   1.00
H197   H     0.99092   0.15574   0.28289   0.00000  Uiso   1.00
H198   H     0.98755   0.09800   0.30102   0.00000  Uiso   1.00
H199   H     0.68496   0.11965   0.38620   0.00000  Uiso   1.00
H200   H     0.95844   0.14831   0.36112   0.00000  Uiso   1.00
H201   H     0.68670   0.17767   0.36759   0.00000  Uiso   1.00
H202   H     0.67530   0.25125   0.30571   0.00000  Uiso   1.00
H203   H     0.93672   0.33725   0.17553   0.00000  Uiso   1.00
H204   H     0.93439   0.35842   0.23379   0.00000  Uiso   1.00
H205   H     0.96780   0.41102   0.14881   0.00000  Uiso   1.00
H206   H     0.96648   0.43285   0.20792   0.00000  Uiso   1.00
H207   H     0.69920   0.37494   0.24237   0.00000  Uiso   1.00
H208   H     0.72338   0.40856   0.19735   0.00000  Uiso   1.00
H209   H     0.70047   0.35268   0.18316   0.00000  Uiso   1.00
H210   H     0.91310   0.11173   0.24283   0.00000  Uiso   1.00
H211   H     0.80901   0.39109   0.31740   0.00000  Uiso   1.00
H212   H     0.91411   0.03004   0.24362   0.00000  Uiso   1.00
H213   H     0.80821   0.47230   0.31530   0.00000  Uiso   1.00
H214   H     0.75348   0.22831   0.02290   0.00000  Uiso   1.00
H215   H     0.88817   0.19571   0.47424   0.00000  Uiso   1.00
H216   H     0.75456   0.22813   0.11032   0.00000  Uiso   1.00
I217   I     0.70967   0.01432   0.24334   0.00000  Uiso   1.00
I218   I     0.86507   0.48592   0.14400   0.00000  Uiso   1.00
I219   I     0.94911   0.28402   0.03499   0.00000  Uiso   1.00
I220   I     0.75461   0.33104   0.46912   0.00000  Uiso   1.00
N221   N     0.83333   0.24999   0.12623   0.00000  Uiso   1.00
N222   N     0.83333   0.25001   0.37376   0.00000  Uiso   1.00
O223   O     0.83334   0.18453   0.28974   0.00000  Uiso   1.00
O224   O     0.87887   0.38455   0.17664   0.00000  Uiso   1.00
O225   O     0.83333   0.31546   0.21026   0.00000  Uiso   1.00
O226   O     0.83334   0.18453   0.21026   0.00000  Uiso   1.00
O227   O     0.83333   0.31547   0.28974   0.00000  Uiso   1.00
O228   O     0.75725   0.25000   0.28044   0.00000  Uiso   1.00
O229   O     0.90942   0.25000   0.21955   0.00000  Uiso   1.00
O230   O     0.75725   0.24999   0.20096   0.00000  Uiso   1.00
O231   O     0.90942   0.25000   0.29903   0.00000  Uiso   1.00
O232   O     0.73808   0.11743   0.25617   0.00000  Uiso   1.00
Zn233  Zn    0.83333   0.25000   0.30307   0.00000  Uiso   1.00
Zn234  Zn    0.83333   0.24999   0.19693   0.00000  Uiso   1.00
C235   C     0.16554   0.66413   0.25000   0.00000  Uiso   1.00
C236   C     0.13510   0.78134   0.44275   0.00000  Uiso   1.00
C237   C     0.16706   0.75070   0.02656   0.00000  Uiso   1.00
C238   C     0.16631   0.75082   0.47329   0.00000  Uiso   1.00
C239   C     0.06698   0.75028   0.23753   0.00000  Uiso   1.00
C240   C     0.26635   0.75032   0.26247   0.00000  Uiso   1.00
C241   C     0.01199   0.75078   0.23077   0.00000  Uiso   1.00
C242   C     0.32134   0.75105   0.26922   0.00000  Uiso   1.00
C243   C     0.11654   0.54771   0.24845   0.00000  Uiso   1.00
C244   C     0.18394   0.95328   0.20800   0.00000  Uiso   1.00
C245   C     0.11741   0.59409   0.25309   0.00000  Uiso   1.00
C246   C     0.16827   0.83623   0.25003   0.00000  Uiso   1.00
C247   C     0.19057   0.90711   0.21183   0.00000  Uiso   1.00
C248   C     0.16443   0.61662   0.25015   0.00000  Uiso   1.00
C249   C     0.17196   0.88438   0.24988   0.00000  Uiso   1.00
C250   C     0.21068   0.59381   0.24573   0.00000  Uiso   1.00
C251   C     0.15522   0.90808   0.28733   0.00000  Uiso   1.00
C252   C     0.21089   0.54780   0.24519   0.00000  Uiso   1.00
C253   C     0.15378   0.95410   0.28576   0.00000  Uiso   1.00
C254   C     0.16390   0.52476   0.24547   0.00000  Uiso   1.00
C255   C     0.16613   0.97659   0.24557   0.00000  Uiso   1.00
C256   C     0.06638   0.62323   0.30490   0.00000  Uiso   1.00
C257   C     0.12218   0.73808   0.04612   0.00000  Uiso   1.00
C258   C     0.00843   0.63004   0.30915   0.00000  Uiso   1.00
C259   C     0.00104   0.64484   0.35923   0.00000  Uiso   1.00
C260   C     0.26313   0.86814   0.19525   0.00000  Uiso   1.00
C261   C     0.30526   0.90208   0.18738   0.00000  Uiso   1.00
C262   C     0.02710   0.88326   0.20362   0.00000  Uiso   1.00
C263   C     0.19720   0.71988   0.45223   0.00000  Uiso   1.00
C264   C     0.12276   0.73795   0.09595   0.00000  Uiso   1.00
C265   C     0.19688   0.72007   0.40246   0.00000  Uiso   1.00
C266   C     0.21083   0.76214   0.10821   0.00000  Uiso   1.00
C267   C     0.13601   0.78019   0.39308   0.00000  Uiso   1.00
C268   C     0.21214   0.76278   0.05861   0.00000  Uiso   1.00
H269   H     0.32473   0.75059   0.19429   0.00000  Uiso   1.00
H270   H     0.22089   0.69619   0.38673   0.00000  Uiso   1.00
H271   H     0.24546   0.77152   0.13233   0.00000  Uiso   1.00
H272   H     0.11228   0.80372   0.36979   0.00000  Uiso   1.00
H273   H     0.08835   0.65334   0.31880   0.00000  Uiso   1.00
H274   H     0.08121   0.59384   0.32771   0.00000  Uiso   1.00
H275   H     0.32425   0.65574   0.28289   0.00000  Uiso   1.00
H276   H     0.32088   0.59800   0.30102   0.00000  Uiso   1.00
H277   H     0.01829   0.61965   0.38620   0.00000  Uiso   1.00
H278   H     0.29178   0.64831   0.36112   0.00000  Uiso   1.00
H279   H     0.02003   0.67767   0.36759   0.00000  Uiso   1.00
H280   H     0.00863   0.75125   0.30571   0.00000  Uiso   1.00
H281   H     0.27006   0.83725   0.17553   0.00000  Uiso   1.00
H282   H     0.26772   0.85842   0.23379   0.00000  Uiso   1.00
H283   H     0.30113   0.91102   0.14881   0.00000  Uiso   1.00
H284   H     0.29981   0.93285   0.20792   0.00000  Uiso   1.00
H285   H     0.03253   0.87494   0.24237   0.00000  Uiso   1.00
H286   H     0.05671   0.90856   0.19735   0.00000  Uiso   1.00
H287   H     0.03380   0.85268   0.18316   0.00000  Uiso   1.00
H288   H     0.24643   0.61173   0.24283   0.00000  Uiso   1.00
H289   H     0.14235   0.89109   0.31740   0.00000  Uiso   1.00
H290   H     0.24744   0.53004   0.24362   0.00000  Uiso   1.00
H291   H     0.14155   0.97230   0.31530   0.00000  Uiso   1.00
H292   H     0.08681   0.72831   0.02290   0.00000  Uiso   1.00
H293   H     0.22151   0.69571   0.47424   0.00000  Uiso   1.00
H294   H     0.08789   0.72813   0.11032   0.00000  Uiso   1.00
I295   I     0.04301   0.51432   0.24334   0.00000  Uiso   1.00
I296   I     0.19840   0.98592   0.14400   0.00000  Uiso   1.00
I297   I     0.28244   0.78402   0.03499   0.00000  Uiso   1.00
I298   I     0.08794   0.83104   0.46912   0.00000  Uiso   1.00
N299   N     0.16667   0.74999   0.12623   0.00000  Uiso   1.00
N300   N     0.16667   0.75001   0.37376   0.00000  Uiso   1.00
O301   O     0.16667   0.68453   0.28974   0.00000  Uiso   1.00
O302   O     0.21221   0.88455   0.17664   0.00000  Uiso   1.00
O303   O     0.16666   0.81546   0.21026   0.00000  Uiso   1.00
O304   O     0.16667   0.68453   0.21026   0.00000  Uiso   1.00
O305   O     0.16666   0.81547   0.28974   0.00000  Uiso   1.00
O306   O     0.09058   0.75000   0.28044   0.00000  Uiso   1.00
O307   O     0.24275   0.75000   0.21955   0.00000  Uiso   1.00
O308   O     0.09058   0.74999   0.20096   0.00000  Uiso   1.00
O309   O     0.24275   0.75000   0.29903   0.00000  Uiso   1.00
O310   O     0.07141   0.61743   0.25617   0.00000  Uiso   1.00
Zn311  Zn    0.16667   0.75000   0.30307   0.00000  Uiso   1.00
Zn312  Zn    0.16667   0.74999   0.19693   0.00000  Uiso   1.00
C313   C     0.49887   0.66413   0.25000   0.00000  Uiso   1.00
C314   C     0.46843   0.78134   0.44275   0.00000  Uiso   1.00
C315   C     0.50040   0.75070   0.02656   0.00000  Uiso   1.00
C316   C     0.49964   0.75082   0.47329   0.00000  Uiso   1.00
C317   C     0.40032   0.75028   0.23753   0.00000  Uiso   1.00
C318   C     0.59968   0.75032   0.26247   0.00000  Uiso   1.00
C319   C     0.34532   0.75078   0.23077   0.00000  Uiso   1.00
C320   C     0.65468   0.75105   0.26922   0.00000  Uiso   1.00
C321   C     0.44987   0.54771   0.24845   0.00000  Uiso   1.00
C322   C     0.51727   0.95328   0.20800   0.00000  Uiso   1.00
C323   C     0.45074   0.59409   0.25309   0.00000  Uiso   1.00
C324   C     0.50161   0.83623   0.25003   0.00000  Uiso   1.00
C325   C     0.52390   0.90711   0.21183   0.00000  Uiso   1.00
C326   C     0.49777   0.61662   0.25015   0.00000  Uiso   1.00
C327   C     0.50530   0.88438   0.24988   0.00000  Uiso   1.00
C328   C     0.54402   0.59381   0.24573   0.00000  Uiso   1.00
C329   C     0.48855   0.90808   0.28733   0.00000  Uiso   1.00
C330   C     0.54422   0.54780   0.24519   0.00000  Uiso   1.00
C331   C     0.48711   0.95410   0.28576   0.00000  Uiso   1.00
C332   C     0.49723   0.52476   0.24547   0.00000  Uiso   1.00
C333   C     0.49946   0.97659   0.24557   0.00000  Uiso   1.00
C334   C     0.39971   0.62323   0.30490   0.00000  Uiso   1.00
C335   C     0.45551   0.73808   0.04612   0.00000  Uiso   1.00
C336   C     0.34176   0.63004   0.30915   0.00000  Uiso   1.00
C337   C     0.33438   0.64484   0.35923   0.00000  Uiso   1.00
C338   C     0.59647   0.86814   0.19525   0.00000  Uiso   1.00
C339   C     0.63859   0.90208   0.18738   0.00000  Uiso   1.00
C340   C     0.36043   0.88326   0.20362   0.00000  Uiso   1.00
C341   C     0.53053   0.71988   0.45223   0.00000  Uiso   1.00
C342   C     0.45609   0.73795   0.09595   0.00000  Uiso   1.00
C343   C     0.53022   0.72007   0.40246   0.00000  Uiso   1.00
C344   C     0.54416   0.76214   0.10821   0.00000  Uiso   1.00
C345   C     0.46934   0.78019   0.39308   0.00000  Uiso   1.00
C346   C     0.54547   0.76278   0.05861   0.00000  Uiso   1.00
H347   H     0.65807   0.75059   0.19429   0.00000  Uiso   1.00
H348   H     0.55422   0.69619   0.38673   0.00000  Uiso   1.00
H349   H     0.57879   0.77152   0.13233   0.00000  Uiso   1.00
H350   H     0.44562   0.80372   0.36979   0.00000  Uiso   1.00
H351   H     0.42169   0.65334   0.31880   0.00000  Uiso   1.00
H352   H     0.41455   0.59384   0.32771   0.00000  Uiso   1.00
H353   H     0.65758   0.65574   0.28289   0.00000  Uiso   1.00
H354   H     0.65421   0.59800   0.30102   0.00000  Uiso   1.00
H355   H     0.35163   0.61965   0.38620   0.00000  Uiso   1.00
H356   H     0.62511   0.64831   0.36112   0.00000  Uiso   1.00
H357   H     0.35336   0.67767   0.36759   0.00000  Uiso   1.00
H358   H     0.34196   0.75125   0.30571   0.00000  Uiso   1.00
H359   H     0.60339   0.83725   0.17553   0.00000  Uiso   1.00
H360   H     0.60106   0.85842   0.23379   0.00000  Uiso   1.00
H361   H     0.63447   0.91102   0.14881   0.00000  Uiso   1.00
H362   H     0.63314   0.93285   0.20792   0.00000  Uiso   1.00
H363   H     0.36586   0.87494   0.24237   0.00000  Uiso   1.00
H364   H     0.39005   0.90856   0.19735   0.00000  Uiso   1.00
H365   H     0.36713   0.85268   0.18316   0.00000  Uiso   1.00
H366   H     0.57976   0.61173   0.24283   0.00000  Uiso   1.00
H367   H     0.47568   0.89109   0.31740   0.00000  Uiso   1.00
H368   H     0.58078   0.53004   0.24362   0.00000  Uiso   1.00
H369   H     0.47488   0.97230   0.31530   0.00000  Uiso   1.00
H370   H     0.42014   0.72831   0.02290   0.00000  Uiso   1.00
H371   H     0.55484   0.69571   0.47424   0.00000  Uiso   1.00
H372   H     0.42123   0.72813   0.11032   0.00000  Uiso   1.00
I373   I     0.37634   0.51432   0.24334   0.00000  Uiso   1.00
I374   I     0.53174   0.98592   0.14400   0.00000  Uiso   1.00
I375   I     0.61577   0.78402   0.03499   0.00000  Uiso   1.00
I376   I     0.42127   0.83104   0.46912   0.00000  Uiso   1.00
N377   N     0.50000   0.74999   0.12623   0.00000  Uiso   1.00
N378   N     0.50000   0.75001   0.37376   0.00000  Uiso   1.00
O379   O     0.50000   0.68453   0.28974   0.00000  Uiso   1.00
O380   O     0.54554   0.88455   0.17664   0.00000  Uiso   1.00
O381   O     0.50000   0.81546   0.21026   0.00000  Uiso   1.00
O382   O     0.50000   0.68453   0.21026   0.00000  Uiso   1.00
O383   O     0.50000   0.81547   0.28974   0.00000  Uiso   1.00
O384   O     0.42392   0.75000   0.28044   0.00000  Uiso   1.00
O385   O     0.57608   0.75000   0.21955   0.00000  Uiso   1.00
O386   O     0.42392   0.74999   0.20096   0.00000  Uiso   1.00
O387   O     0.57608   0.75000   0.29903   0.00000  Uiso   1.00
O388   O     0.40474   0.61743   0.25617   0.00000  Uiso   1.00
Zn389  Zn    0.50000   0.75000   0.30307   0.00000  Uiso   1.00
Zn390  Zn    0.50000   0.74999   0.19693   0.00000  Uiso   1.00
C391   C     0.83221   0.66413   0.25000   0.00000  Uiso   1.00
C392   C     0.80177   0.78134   0.44275   0.00000  Uiso   1.00
C393   C     0.83373   0.75070   0.02656   0.00000  Uiso   1.00
C394   C     0.83297   0.75082   0.47329   0.00000  Uiso   1.00
C395   C     0.73365   0.75028   0.23753   0.00000  Uiso   1.00
C396   C     0.93301   0.75032   0.26247   0.00000  Uiso   1.00
C397   C     0.67865   0.75078   0.23077   0.00000  Uiso   1.00
C398   C     0.98801   0.75105   0.26922   0.00000  Uiso   1.00
C399   C     0.78320   0.54771   0.24845   0.00000  Uiso   1.00
C400   C     0.85060   0.95328   0.20800   0.00000  Uiso   1.00
C401   C     0.78407   0.59409   0.25309   0.00000  Uiso   1.00
C402   C     0.83494   0.83623   0.25003   0.00000  Uiso   1.00
C403   C     0.85723   0.90711   0.21183   0.00000  Uiso   1.00
C404   C     0.83110   0.61662   0.25015   0.00000  Uiso   1.00
C405   C     0.83863   0.88438   0.24988   0.00000  Uiso   1.00
C406   C     0.87735   0.59381   0.24573   0.00000  Uiso   1.00
C407   C     0.82188   0.90808   0.28733   0.00000  Uiso   1.00
C408   C     0.87755   0.54780   0.24519   0.00000  Uiso   1.00
C409   C     0.82045   0.95410   0.28576   0.00000  Uiso   1.00
C410   C     0.83056   0.52476   0.24547   0.00000  Uiso   1.00
C411   C     0.83279   0.97659   0.24557   0.00000  Uiso   1.00
C412   C     0.73305   0.62323   0.30490   0.00000  Uiso   1.00
C413   C     0.78884   0.73808   0.04612   0.00000  Uiso   1.00
C414   C     0.67509   0.63004   0.30915   0.00000  Uiso   1.00
C415   C     0.66771   0.64484   0.35923   0.00000  Uiso   1.00
C416   C     0.92980   0.86814   0.19525   0.00000  Uiso   1.00
C417   C     0.97192   0.90208   0.18738   0.00000  Uiso   1.00
C418   C     0.69377   0.88326   0.20362   0.00000  Uiso   1.00
C419   C     0.86387   0.71988   0.45223   0.00000  Uiso   1.00
C420   C     0.78943   0.73795   0.09595   0.00000  Uiso   1.00
C421   C     0.86355   0.72007   0.40246   0.00000  Uiso   1.00
C422   C     0.87750   0.76214   0.10821   0.00000  Uiso   1.00
C423   C     0.80268   0.78019   0.39308   0.00000  Uiso   1.00
C424   C     0.87880   0.76278   0.05861   0.00000  Uiso   1.00
H425   H     0.99140   0.75059   0.19429   0.00000  Uiso   1.00
H426   H     0.88755   0.69619   0.38673   0.00000  Uiso   1.00
H427   H     0.91212   0.77152   0.13233   0.00000  Uiso   1.00
H428   H     0.77895   0.80372   0.36979   0.00000  Uiso   1.00
H429   H     0.75502   0.65334   0.31880   0.00000  Uiso   1.00
H430   H     0.74788   0.59384   0.32771   0.00000  Uiso   1.00
H431   H     0.99092   0.65574   0.28289   0.00000  Uiso   1.00
H432   H     0.98755   0.59800   0.30102   0.00000  Uiso   1.00
H433   H     0.68496   0.61965   0.38620   0.00000  Uiso   1.00
H434   H     0.95844   0.64831   0.36112   0.00000  Uiso   1.00
H435   H     0.68670   0.67767   0.36759   0.00000  Uiso   1.00
H436   H     0.67530   0.75125   0.30571   0.00000  Uiso   1.00
H437   H     0.93672   0.83725   0.17553   0.00000  Uiso   1.00
H438   H     0.93439   0.85842   0.23379   0.00000  Uiso   1.00
H439   H     0.96780   0.91102   0.14881   0.00000  Uiso   1.00
H440   H     0.96648   0.93285   0.20792   0.00000  Uiso   1.00
H441   H     0.69920   0.87494   0.24237   0.00000  Uiso   1.00
H442   H     0.72338   0.90856   0.19735   0.00000  Uiso   1.00
H443   H     0.70047   0.85268   0.18316   0.00000  Uiso   1.00
H444   H     0.91310   0.61173   0.24283   0.00000  Uiso   1.00
H445   H     0.80901   0.89109   0.31740   0.00000  Uiso   1.00
H446   H     0.91411   0.53004   0.24362   0.00000  Uiso   1.00
H447   H     0.80821   0.97230   0.31530   0.00000  Uiso   1.00
H448   H     0.75348   0.72831   0.02290   0.00000  Uiso   1.00
H449   H     0.88817   0.69571   0.47424   0.00000  Uiso   1.00
H450   H     0.75456   0.72813   0.11032   0.00000  Uiso   1.00
I451   I     0.70967   0.51432   0.24334   0.00000  Uiso   1.00
I452   I     0.86507   0.98592   0.14400   0.00000  Uiso   1.00
I453   I     0.94911   0.78402   0.03499   0.00000  Uiso   1.00
I454   I     0.75461   0.83104   0.46912   0.00000  Uiso   1.00
N455   N     0.83333   0.74999   0.12623   0.00000  Uiso   1.00
N456   N     0.83333   0.75001   0.37376   0.00000  Uiso   1.00
O457   O     0.83334   0.68453   0.28974   0.00000  Uiso   1.00
O458   O     0.87887   0.88455   0.17664   0.00000  Uiso   1.00
O459   O     0.83333   0.81546   0.21026   0.00000  Uiso   1.00
O460   O     0.83334   0.68453   0.21026   0.00000  Uiso   1.00
O461   O     0.83333   0.81547   0.28974   0.00000  Uiso   1.00
O462   O     0.75725   0.75000   0.28044   0.00000  Uiso   1.00
O463   O     0.90942   0.75000   0.21955   0.00000  Uiso   1.00
O464   O     0.75725   0.74999   0.20096   0.00000  Uiso   1.00
O465   O     0.90942   0.75000   0.29903   0.00000  Uiso   1.00
O466   O     0.73808   0.61743   0.25617   0.00000  Uiso   1.00
Zn467  Zn    0.83333   0.75000   0.30307   0.00000  Uiso   1.00
Zn468  Zn    0.83333   0.74999   0.19693   0.00000  Uiso   1.00
C469   C     0.16554   0.16413   0.75000   0.00000  Uiso   1.00
C470   C     0.13510   0.28134   0.94275   0.00000  Uiso   1.00
C471   C     0.16706   0.25070   0.52656   0.00000  Uiso   1.00
C472   C     0.16631   0.25082   0.97329   0.00000  Uiso   1.00
C473   C     0.06698   0.25028   0.73753   0.00000  Uiso   1.00
C474   C     0.26635   0.25032   0.76247   0.00000  Uiso   1.00
C475   C     0.01199   0.25078   0.73077   0.00000  Uiso   1.00
C476   C     0.32134   0.25105   0.76922   0.00000  Uiso   1.00
C477   C     0.11654   0.04771   0.74845   0.00000  Uiso   1.00
C478   C     0.18394   0.45328   0.70800   0.00000  Uiso   1.00
C479   C     0.11741   0.09409   0.75309   0.00000  Uiso   1.00
C480   C     0.16827   0.33623   0.75003   0.00000  Uiso   1.00
C481   C     0.19057   0.40711   0.71183   0.00000  Uiso   1.00
C482   C     0.16443   0.11662   0.75015   0.00000  Uiso   1.00
C483   C     0.17196   0.38438   0.74988   0.00000  Uiso   1.00
C484   C     0.21068   0.09381   0.74573   0.00000  Uiso   1.00
C485   C     0.15522   0.40808   0.78733   0.00000  Uiso   1.00
C486   C     0.21089   0.04780   0.74519   0.00000  Uiso   1.00
C487   C     0.15378   0.45410   0.78576   0.00000  Uiso   1.00
C488   C     0.16390   0.02476   0.74547   0.00000  Uiso   1.00
C489   C     0.16613   0.47659   0.74557   0.00000  Uiso   1.00
C490   C     0.06638   0.12323   0.80490   0.00000  Uiso   1.00
C491   C     0.12218   0.23808   0.54612   0.00000  Uiso   1.00
C492   C     0.00843   0.13004   0.80915   0.00000  Uiso   1.00
C493   C     0.00104   0.14484   0.85923   0.00000  Uiso   1.00
C494   C     0.26313   0.36814   0.69525   0.00000  Uiso   1.00
C495   C     0.30526   0.40208   0.68738   0.00000  Uiso   1.00
C496   C     0.02710   0.38326   0.70362   0.00000  Uiso   1.00
C497   C     0.19720   0.21988   0.95223   0.00000  Uiso   1.00
C498   C     0.12276   0.23795   0.59595   0.00000  Uiso   1.00
C499   C     0.19688   0.22007   0.90246   0.00000  Uiso   1.00
C500   C     0.21083   0.26214   0.60821   0.00000  Uiso   1.00
C501   C     0.13601   0.28019   0.89308   0.00000  Uiso   1.00
C502   C     0.21214   0.26278   0.55861   0.00000  Uiso   1.00
H503   H     0.32473   0.25059   0.69429   0.00000  Uiso   1.00
H504   H     0.22089   0.19619   0.88673   0.00000  Uiso   1.00
H505   H     0.24546   0.27152   0.63233   0.00000  Uiso   1.00
H506   H     0.11228   0.30372   0.86979   0.00000  Uiso   1.00
H507   H     0.08835   0.15334   0.81880   0.00000  Uiso   1.00
H508   H     0.08121   0.09384   0.82771   0.00000  Uiso   1.00
H509   H     0.32425   0.15574   0.78289   0.00000  Uiso   1.00
H510   H     0.32088   0.09800   0.80102   0.00000  Uiso   1.00
H511   H     0.01829   0.11965   0.88620   0.00000  Uiso   1.00
H512   H     0.29178   0.14831   0.86112   0.00000  Uiso   1.00
H513   H     0.02003   0.17767   0.86759   0.00000  Uiso   1.00
H514   H     0.00863   0.25125   0.80571   0.00000  Uiso   1.00
H515   H     0.27006   0.33725   0.67553   0.00000  Uiso   1.00
H516   H     0.26772   0.35842   0.73379   0.00000  Uiso   1.00
H517   H     0.30113   0.41102   0.64881   0.00000  Uiso   1.00
H518   H     0.29981   0.43285   0.70792   0.00000  Uiso   1.00
H519   H     0.03253   0.37494   0.74237   0.00000  Uiso   1.00
H520   H     0.05671   0.40856   0.69735   0.00000  Uiso   1.00
H521   H     0.03380   0.35268   0.68316   0.00000  Uiso   1.00
H522   H     0.24643   0.11173   0.74283   0.00000  Uiso   1.00
H523   H     0.14235   0.39109   0.81740   0.00000  Uiso   1.00
H524   H     0.24744   0.03004   0.74362   0.00000  Uiso   1.00
H525   H     0.14155   0.47230   0.81530   0.00000  Uiso   1.00
H526   H     0.08681   0.22831   0.52290   0.00000  Uiso   1.00
H527   H     0.22151   0.19571   0.97424   0.00000  Uiso   1.00
H528   H     0.08789   0.22813   0.61032   0.00000  Uiso   1.00
I529   I     0.04301   0.01432   0.74334   0.00000  Uiso   1.00
I530   I     0.19840   0.48592   0.64400   0.00000  Uiso   1.00
I531   I     0.28244   0.28402   0.53499   0.00000  Uiso   1.00
I532   I     0.08794   0.33104   0.96912   0.00000  Uiso   1.00
N533   N     0.16667   0.24999   0.62623   0.00000  Uiso   1.00
N534   N     0.16667   0.25001   0.87376   0.00000  Uiso   1.00
O535   O     0.16667   0.18453   0.78974   0.00000  Uiso   1.00
O536   O     0.21221   0.38455   0.67664   0.00000  Uiso   1.00
O537   O     0.16666   0.31546   0.71026   0.00000  Uiso   1.00
O538   O     0.16667   0.18453   0.71026   0.00000  Uiso   1.00
O539   O     0.16666   0.31547   0.78974   0.00000  Uiso   1.00
O540   O     0.09058   0.25000   0.78044   0.00000  Uiso   1.00
O541   O     0.24275   0.25000   0.71955   0.00000  Uiso   1.00
O542   O     0.09058   0.24999   0.70096   0.00000  Uiso   1.00
O543   O     0.24275   0.25000   0.79903   0.00000  Uiso   1.00
O544   O     0.07141   0.11743   0.75617   0.00000  Uiso   1.00
Zn545  Zn    0.16667   0.25000   0.80307   0.00000  Uiso   1.00
Zn546  Zn    0.16667   0.24999   0.69693   0.00000  Uiso   1.00
C547   C     0.49887   0.16413   0.75000   0.00000  Uiso   1.00
C548   C     0.46843   0.28134   0.94275   0.00000  Uiso   1.00
C549   C     0.50040   0.25070   0.52656   0.00000  Uiso   1.00
C550   C     0.49964   0.25082   0.97329   0.00000  Uiso   1.00
C551   C     0.40032   0.25028   0.73753   0.00000  Uiso   1.00
C552   C     0.59968   0.25032   0.76247   0.00000  Uiso   1.00
C553   C     0.34532   0.25078   0.73077   0.00000  Uiso   1.00
C554   C     0.65468   0.25105   0.76922   0.00000  Uiso   1.00
C555   C     0.44987   0.04771   0.74845   0.00000  Uiso   1.00
C556   C     0.51727   0.45328   0.70800   0.00000  Uiso   1.00
C557   C     0.45074   0.09409   0.75309   0.00000  Uiso   1.00
C558   C     0.50161   0.33623   0.75003   0.00000  Uiso   1.00
C559   C     0.52390   0.40711   0.71183   0.00000  Uiso   1.00
C560   C     0.49777   0.11662   0.75015   0.00000  Uiso   1.00
C561   C     0.50530   0.38438   0.74988   0.00000  Uiso   1.00
C562   C     0.54402   0.09381   0.74573   0.00000  Uiso   1.00
C563   C     0.48855   0.40808   0.78733   0.00000  Uiso   1.00
C564   C     0.54422   0.04780   0.74519   0.00000  Uiso   1.00
C565   C     0.48711   0.45410   0.78576   0.00000  Uiso   1.00
C566   C     0.49723   0.02476   0.74547   0.00000  Uiso   1.00
C567   C     0.49946   0.47659   0.74557   0.00000  Uiso   1.00
C568   C     0.39971   0.12323   0.80490   0.00000  Uiso   1.00
C569   C     0.45551   0.23808   0.54612   0.00000  Uiso   1.00
C570   C     0.34176   0.13004   0.80915   0.00000  Uiso   1.00
C571   C     0.33438   0.14484   0.85923   0.00000  Uiso   1.00
C572   C     0.59647   0.36814   0.69525   0.00000  Uiso   1.00
C573   C     0.63859   0.40208   0.68738   0.00000  Uiso   1.00
C574   C     0.36043   0.38326   0.70362   0.00000  Uiso   1.00
C575   C     0.53053   0.21988   0.95223   0.00000  Uiso   1.00
C576   C     0.45609   0.23795   0.59595   0.00000  Uiso   1.00
C577   C     0.53022   0.22007   0.90246   0.00000  Uiso   1.00
C578   C     0.54416   0.26214   0.60821   0.00000  Uiso   1.00
C579   C     0.46934   0.28019   0.89308   0.00000  Uiso   1.00
C580   C     0.54547   0.26278   0.55861   0.00000  Uiso   1.00
H581   H     0.65807   0.25059   0.69429   0.00000  Uiso   1.00
H582   H     0.55422   0.19619   0.88673   0.00000  Uiso   1.00
H583   H     0.57879   0.27152   0.63233   0.00000  Uiso   1.00
H584   H     0.44562   0.30372   0.86979   0.00000  Uiso   1.00
H585   H     0.42169   0.15334   0.81880   0.00000  Uiso   1.00
H586   H     0.41455   0.09384   0.82771   0.00000  Uiso   1.00
H587   H     0.65758   0.15574   0.78289   0.00000  Uiso   1.00
H588   H     0.65421   0.09800   0.80102   0.00000  Uiso   1.00
H589   H     0.35163   0.11965   0.88620   0.00000  Uiso   1.00
H590   H     0.62511   0.14831   0.86112   0.00000  Uiso   1.00
H591   H     0.35336   0.17767   0.86759   0.00000  Uiso   1.00
H592   H     0.34196   0.25125   0.80571   0.00000  Uiso   1.00
H593   H     0.60339   0.33725   0.67553   0.00000  Uiso   1.00
H594   H     0.60106   0.35842   0.73379   0.00000  Uiso   1.00
H595   H     0.63447   0.41102   0.64881   0.00000  Uiso   1.00
H596   H     0.63314   0.43285   0.70792   0.00000  Uiso   1.00
H597   H     0.36586   0.37494   0.74237   0.00000  Uiso   1.00
H598   H     0.39005   0.40856   0.69735   0.00000  Uiso   1.00
H599   H     0.36713   0.35268   0.68316   0.00000  Uiso   1.00
H600   H     0.57976   0.11173   0.74283   0.00000  Uiso   1.00
H601   H     0.47568   0.39109   0.81740   0.00000  Uiso   1.00
H602   H     0.58078   0.03004   0.74362   0.00000  Uiso   1.00
H603   H     0.47488   0.47230   0.81530   0.00000  Uiso   1.00
H604   H     0.42014   0.22831   0.52290   0.00000  Uiso   1.00
H605   H     0.55484   0.19571   0.97424   0.00000  Uiso   1.00
H606   H     0.42123   0.22813   0.61032   0.00000  Uiso   1.00
I607   I     0.37634   0.01432   0.74334   0.00000  Uiso   1.00
I608   I     0.53174   0.48592   0.64400   0.00000  Uiso   1.00
I609   I     0.61577   0.28402   0.53499   0.00000  Uiso   1.00
I610   I     0.42127   0.33104   0.96912   0.00000  Uiso   1.00
N611   N     0.50000   0.24999   0.62623   0.00000  Uiso   1.00
N612   N     0.50000   0.25001   0.87376   0.00000  Uiso   1.00
O613   O     0.50000   0.18453   0.78974   0.00000  Uiso   1.00
O614   O     0.54554   0.38455   0.67664   0.00000  Uiso   1.00
O615   O     0.50000   0.31546   0.71026   0.00000  Uiso   1.00
O616   O     0.50000   0.18453   0.71026   0.00000  Uiso   1.00
O617   O     0.50000   0.31547   0.78974   0.00000  Uiso   1.00
O618   O     0.42392   0.25000   0.78044   0.00000  Uiso   1.00
O619   O     0.57608   0.25000   0.71955   0.00000  Uiso   1.00
O620   O     0.42392   0.24999   0.70096   0.00000  Uiso   1.00
O621   O     0.57608   0.25000   0.79903   0.00000  Uiso   1.00
O622   O     0.40474   0.11743   0.75617   0.00000  Uiso   1.00
Zn623  Zn    0.50000   0.25000   0.80307   0.00000  Uiso   1.00
Zn624  Zn    0.50000   0.24999   0.69693   0.00000  Uiso   1.00
C625   C     0.83221   0.16413   0.75000   0.00000  Uiso   1.00
C626   C     0.80177   0.28134   0.94275   0.00000  Uiso   1.00
C627   C     0.83373   0.25070   0.52656   0.00000  Uiso   1.00
C628   C     0.83297   0.25082   0.97329   0.00000  Uiso   1.00
C629   C     0.73365   0.25028   0.73753   0.00000  Uiso   1.00
C630   C     0.93301   0.25032   0.76247   0.00000  Uiso   1.00
C631   C     0.67865   0.25078   0.73077   0.00000  Uiso   1.00
C632   C     0.98801   0.25105   0.76922   0.00000  Uiso   1.00
C633   C     0.78320   0.04771   0.74845   0.00000  Uiso   1.00
C634   C     0.85060   0.45328   0.70800   0.00000  Uiso   1.00
C635   C     0.78407   0.09409   0.75309   0.00000  Uiso   1.00
C636   C     0.83494   0.33623   0.75003   0.00000  Uiso   1.00
C637   C     0.85723   0.40711   0.71183   0.00000  Uiso   1.00
C638   C     0.83110   0.11662   0.75015   0.00000  Uiso   1.00
C639   C     0.83863   0.38438   0.74988   0.00000  Uiso   1.00
C640   C     0.87735   0.09381   0.74573   0.00000  Uiso   1.00
C641   C     0.82188   0.40808   0.78733   0.00000  Uiso   1.00
C642   C     0.87755   0.04780   0.74519   0.00000  Uiso   1.00
C643   C     0.82045   0.45410   0.78576   0.00000  Uiso   1.00
C644   C     0.83056   0.02476   0.74547   0.00000  Uiso   1.00
C645   C     0.83279   0.47659   0.74557   0.00000  Uiso   1.00
C646   C     0.73305   0.12323   0.80490   0.00000  Uiso   1.00
C647   C     0.78884   0.23808   0.54612   0.00000  Uiso   1.00
C648   C     0.67509   0.13004   0.80915   0.00000  Uiso   1.00
C649   C     0.66771   0.14484   0.85923   0.00000  Uiso   1.00
C650   C     0.92980   0.36814   0.69525   0.00000  Uiso   1.00
C651   C     0.97192   0.40208   0.68738   0.00000  Uiso   1.00
C652   C     0.69377   0.38326   0.70362   0.00000  Uiso   1.00
C653   C     0.86387   0.21988   0.95223   0.00000  Uiso   1.00
C654   C     0.78943   0.23795   0.59595   0.00000  Uiso   1.00
C655   C     0.86355   0.22007   0.90246   0.00000  Uiso   1.00
C656   C     0.87750   0.26214   0.60821   0.00000  Uiso   1.00
C657   C     0.80268   0.28019   0.89308   0.00000  Uiso   1.00
C658   C     0.87880   0.26278   0.55861   0.00000  Uiso   1.00
H659   H     0.99140   0.25059   0.69429   0.00000  Uiso   1.00
H660   H     0.88755   0.19619   0.88673   0.00000  Uiso   1.00
H661   H     0.91212   0.27152   0.63233   0.00000  Uiso   1.00
H662   H     0.77895   0.30372   0.86979   0.00000  Uiso   1.00
H663   H     0.75502   0.15334   0.81880   0.00000  Uiso   1.00
H664   H     0.74788   0.09384   0.82771   0.00000  Uiso   1.00
H665   H     0.99092   0.15574   0.78289   0.00000  Uiso   1.00
H666   H     0.98755   0.09800   0.80102   0.00000  Uiso   1.00
H667   H     0.68496   0.11965   0.88620   0.00000  Uiso   1.00
H668   H     0.95844   0.14831   0.86112   0.00000  Uiso   1.00
H669   H     0.68670   0.17767   0.86759   0.00000  Uiso   1.00
H670   H     0.67530   0.25125   0.80571   0.00000  Uiso   1.00
H671   H     0.93672   0.33725   0.67553   0.00000  Uiso   1.00
H672   H     0.93439   0.35842   0.73379   0.00000  Uiso   1.00
H673   H     0.96780   0.41102   0.64881   0.00000  Uiso   1.00
H674   H     0.96648   0.43285   0.70792   0.00000  Uiso   1.00
H675   H     0.69920   0.37494   0.74237   0.00000  Uiso   1.00
H676   H     0.72338   0.40856   0.69735   0.00000  Uiso   1.00
H677   H     0.70047   0.35268   0.68316   0.00000  Uiso   1.00
H678   H     0.91310   0.11173   0.74283   0.00000  Uiso   1.00
H679   H     0.80901   0.39109   0.81740   0.00000  Uiso   1.00
H680   H     0.91411   0.03004   0.74362   0.00000  Uiso   1.00
H681   H     0.80821   0.47230   0.81530   0.00000  Uiso   1.00
H682   H     0.75348   0.22831   0.52290   0.00000  Uiso   1.00
H683   H     0.88817   0.19571   0.97424   0.00000  Uiso   1.00
H684   H     0.75456   0.22813   0.61032   0.00000  Uiso   1.00
I685   I     0.70967   0.01432   0.74334   0.00000  Uiso   1.00
I686   I     0.86507   0.48592   0.64400   0.00000  Uiso   1.00
I687   I     0.94911   0.28402   0.53499   0.00000  Uiso   1.00
I688   I     0.75461   0.33104   0.96912   0.00000  Uiso   1.00
N689   N     0.83333   0.24999   0.62623   0.00000  Uiso   1.00
N690   N     0.83333   0.25001   0.87376   0.00000  Uiso   1.00
O691   O     0.83334   0.18453   0.78974   0.00000  Uiso   1.00
O692   O     0.87887   0.38455   0.67664   0.00000  Uiso   1.00
O693   O     0.83333   0.31546   0.71026   0.00000  Uiso   1.00
O694   O     0.83334   0.18453   0.71026   0.00000  Uiso   1.00
O695   O     0.83333   0.31547   0.78974   0.00000  Uiso   1.00
O696   O     0.75725   0.25000   0.78044   0.00000  Uiso   1.00
O697   O     0.90942   0.25000   0.71955   0.00000  Uiso   1.00
O698   O     0.75725   0.24999   0.70096   0.00000  Uiso   1.00
O699   O     0.90942   0.25000   0.79903   0.00000  Uiso   1.00
O700   O     0.73808   0.11743   0.75617   0.00000  Uiso   1.00
Zn701  Zn    0.83333   0.25000   0.80307   0.00000  Uiso   1.00
Zn702  Zn    0.83333   0.24999   0.69693   0.00000  Uiso   1.00
C703   C     0.16554   0.66413   0.75000   0.00000  Uiso   1.00
C704   C     0.13510   0.78134   0.94275   0.00000  Uiso   1.00
C705   C     0.16706   0.75070   0.52656   0.00000  Uiso   1.00
C706   C     0.16631   0.75082   0.97329   0.00000  Uiso   1.00
C707   C     0.06698   0.75028   0.73753   0.00000  Uiso   1.00
C708   C     0.26635   0.75032   0.76247   0.00000  Uiso   1.00
C709   C     0.01199   0.75078   0.73077   0.00000  Uiso   1.00
C710   C     0.32134   0.75105   0.76922   0.00000  Uiso   1.00
C711   C     0.11654   0.54771   0.74845   0.00000  Uiso   1.00
C712   C     0.18394   0.95328   0.70800   0.00000  Uiso   1.00
C713   C     0.11741   0.59409   0.75309   0.00000  Uiso   1.00
C714   C     0.16827   0.83623   0.75003   0.00000  Uiso   1.00
C715   C     0.19057   0.90711   0.71183   0.00000  Uiso   1.00
C716   C     0.16443   0.61662   0.75015   0.00000  Uiso   1.00
C717   C     0.17196   0.88438   0.74988   0.00000  Uiso   1.00
C718   C     0.21068   0.59381   0.74573   0.00000  Uiso   1.00
C719   C     0.15522   0.90808   0.78733   0.00000  Uiso   1.00
C720   C     0.21089   0.54780   0.74519   0.00000  Uiso   1.00
C721   C     0.15378   0.95410   0.78576   0.00000  Uiso   1.00
C722   C     0.16390   0.52476   0.74547   0.00000  Uiso   1.00
C723   C     0.16613   0.97659   0.74557   0.00000  Uiso   1.00
C724   C     0.06638   0.62323   0.80490   0.00000  Uiso   1.00
C725   C     0.12218   0.73808   0.54612   0.00000  Uiso   1.00
C726   C     0.00843   0.63004   0.80915   0.00000  Uiso   1.00
C727   C     0.00104   0.64484   0.85923   0.00000  Uiso   1.00
C728   C     0.26313   0.86814   0.69525   0.00000  Uiso   1.00
C729   C     0.30526   0.90208   0.68738   0.00000  Uiso   1.00
C730   C     0.02710   0.88326   0.70362   0.00000  Uiso   1.00
C731   C     0.19720   0.71988   0.95223   0.00000  Uiso   1.00
C732   C     0.12276   0.73795   0.59595   0.00000  Uiso   1.00
C733   C     0.19688   0.72007   0.90246   0.00000  Uiso   1.00
C734   C     0.21083   0.76214   0.60821   0.00000  Uiso   1.00
C735   C     0.13601   0.78019   0.89308   0.00000  Uiso   1.00
C736   C     0.21214   0.76278   0.55861   0.00000  Uiso   1.00
H737   H     0.32473   0.75059   0.69429   0.00000  Uiso   1.00
H738   H     0.22089   0.69619   0.88673   0.00000  Uiso   1.00
H739   H     0.24546   0.77152   0.63233   0.00000  Uiso   1.00
H740   H     0.11228   0.80372   0.86979   0.00000  Uiso   1.00
H741   H     0.08835   0.65334   0.81880   0.00000  Uiso   1.00
H742   H     0.08121   0.59384   0.82771   0.00000  Uiso   1.00
H743   H     0.32425   0.65574   0.78289   0.00000  Uiso   1.00
H744   H     0.32088   0.59800   0.80102   0.00000  Uiso   1.00
H745   H     0.01829   0.61965   0.88620   0.00000  Uiso   1.00
H746   H     0.29178   0.64831   0.86112   0.00000  Uiso   1.00
H747   H     0.02003   0.67767   0.86759   0.00000  Uiso   1.00
H748   H     0.00863   0.75125   0.80571   0.00000  Uiso   1.00
H749   H     0.27006   0.83725   0.67553   0.00000  Uiso   1.00
H750   H     0.26772   0.85842   0.73379   0.00000  Uiso   1.00
H751   H     0.30113   0.91102   0.64881   0.00000  Uiso   1.00
H752   H     0.29981   0.93285   0.70792   0.00000  Uiso   1.00
H753   H     0.03253   0.87494   0.74237   0.00000  Uiso   1.00
H754   H     0.05671   0.90856   0.69735   0.00000  Uiso   1.00
H755   H     0.03380   0.85268   0.68316   0.00000  Uiso   1.00
H756   H     0.24643   0.61173   0.74283   0.00000  Uiso   1.00
H757   H     0.14235   0.89109   0.81740   0.00000  Uiso   1.00
H758   H     0.24744   0.53004   0.74362   0.00000  Uiso   1.00
H759   H     0.14155   0.97230   0.81530   0.00000  Uiso   1.00
H760   H     0.08681   0.72831   0.52290   0.00000  Uiso   1.00
H761   H     0.22151   0.69571   0.97424   0.00000  Uiso   1.00
H762   H     0.08789   0.72813   0.61032   0.00000  Uiso   1.00
I763   I     0.04301   0.51432   0.74334   0.00000  Uiso   1.00
I764   I     0.19840   0.98592   0.64400   0.00000  Uiso   1.00
I765   I     0.28244   0.78402   0.53499   0.00000  Uiso   1.00
I766   I     0.08794   0.83104   0.96912   0.00000  Uiso   1.00
N767   N     0.16667   0.74999   0.62623   0.00000  Uiso   1.00
N768   N     0.16667   0.75001   0.87376   0.00000  Uiso   1.00
O769   O     0.16667   0.68453   0.78974   0.00000  Uiso   1.00
O770   O     0.21221   0.88455   0.67664   0.00000  Uiso   1.00
O771   O     0.16666   0.81546   0.71026   0.00000  Uiso   1.00
O772   O     0.16667   0.68453   0.71026   0.00000  Uiso   1.00
O773   O     0.16666   0.81547   0.78974   0.00000  Uiso   1.00
O774   O     0.09058   0.75000   0.78044   0.00000  Uiso   1.00
O775   O     0.24275   0.75000   0.71955   0.00000  Uiso   1.00
O776   O     0.09058   0.74999   0.70096   0.00000  Uiso   1.00
O777   O     0.24275   0.75000   0.79903   0.00000  Uiso   1.00
O778   O     0.07141   0.61743   0.75617   0.00000  Uiso   1.00
Zn779  Zn    0.16667   0.75000   0.80307   0.00000  Uiso   1.00
Zn780  Zn    0.16667   0.74999   0.69693   0.00000  Uiso   1.00
C781   C     0.49887   0.66413   0.75000   0.00000  Uiso   1.00
C782   C     0.46843   0.78134   0.94275   0.00000  Uiso   1.00
C783   C     0.50040   0.75070   0.52656   0.00000  Uiso   1.00
C784   C     0.49964   0.75082   0.97329   0.00000  Uiso   1.00
C785   C     0.40032   0.75028   0.73753   0.00000  Uiso   1.00
C786   C     0.59968   0.75032   0.76247   0.00000  Uiso   1.00
C787   C     0.34532   0.75078   0.73077   0.00000  Uiso   1.00
C788   C     0.65468   0.75105   0.76922   0.00000  Uiso   1.00
C789   C     0.44987   0.54771   0.74845   0.00000  Uiso   1.00
C790   C     0.51727   0.95328   0.70800   0.00000  Uiso   1.00
C791   C     0.45074   0.59409   0.75309   0.00000  Uiso   1.00
C792   C     0.50161   0.83623   0.75003   0.00000  Uiso   1.00
C793   C     0.52390   0.90711   0.71183   0.00000  Uiso   1.00
C794   C     0.49777   0.61662   0.75015   0.00000  Uiso   1.00
C795   C     0.50530   0.88438   0.74988   0.00000  Uiso   1.00
C796   C     0.54402   0.59381   0.74573   0.00000  Uiso   1.00
C797   C     0.48855   0.90808   0.78733   0.00000  Uiso   1.00
C798   C     0.54422   0.54780   0.74519   0.00000  Uiso   1.00
C799   C     0.48711   0.95410   0.78576   0.00000  Uiso   1.00
C800   C     0.49723   0.52476   0.74547   0.00000  Uiso   1.00
C801   C     0.49946   0.97659   0.74557   0.00000  Uiso   1.00
C802   C     0.39971   0.62323   0.80490   0.00000  Uiso   1.00
C803   C     0.45551   0.73808   0.54612   0.00000  Uiso   1.00
C804   C     0.34176   0.63004   0.80915   0.00000  Uiso   1.00
C805   C     0.33438   0.64484   0.85923   0.00000  Uiso   1.00
C806   C     0.59647   0.86814   0.69525   0.00000  Uiso   1.00
C807   C     0.63859   0.90208   0.68738   0.00000  Uiso   1.00
C808   C     0.36043   0.88326   0.70362   0.00000  Uiso   1.00
C809   C     0.53053   0.71988   0.95223   0.00000  Uiso   1.00
C810   C     0.45609   0.73795   0.59595   0.00000  Uiso   1.00
C811   C     0.53022   0.72007   0.90246   0.00000  Uiso   1.00
C812   C     0.54416   0.76214   0.60821   0.00000  Uiso   1.00
C813   C     0.46934   0.78019   0.89308   0.00000  Uiso   1.00
C814   C     0.54547   0.76278   0.55861   0.00000  Uiso   1.00
H815   H     0.65807   0.75059   0.69429   0.00000  Uiso   1.00
H816   H     0.55422   0.69619   0.88673   0.00000  Uiso   1.00
H817   H     0.57879   0.77152   0.63233   0.00000  Uiso   1.00
H818   H     0.44562   0.80372   0.86979   0.00000  Uiso   1.00
H819   H     0.42169   0.65334   0.81880   0.00000  Uiso   1.00
H820   H     0.41455   0.59384   0.82771   0.00000  Uiso   1.00
H821   H     0.65758   0.65574   0.78289   0.00000  Uiso   1.00
H822   H     0.65421   0.59800   0.80102   0.00000  Uiso   1.00
H823   H     0.35163   0.61965   0.88620   0.00000  Uiso   1.00
H824   H     0.62511   0.64831   0.86112   0.00000  Uiso   1.00
H825   H     0.35336   0.67767   0.86759   0.00000  Uiso   1.00
H826   H     0.34196   0.75125   0.80571   0.00000  Uiso   1.00
H827   H     0.60339   0.83725   0.67553   0.00000  Uiso   1.00
H828   H     0.60106   0.85842   0.73379   0.00000  Uiso   1.00
H829   H     0.63447   0.91102   0.64881   0.00000  Uiso   1.00
H830   H     0.63314   0.93285   0.70792   0.00000  Uiso   1.00
H831   H     0.36586   0.87494   0.74237   0.00000  Uiso   1.00
H832   H     0.39005   0.90856   0.69735   0.00000  Uiso   1.00
H833   H     0.36713   0.85268   0.68316   0.00000  Uiso   1.00
H834   H     0.57976   0.61173   0.74283   0.00000  Uiso   1.00
H835   H     0.47568   0.89109   0.81740   0.00000  Uiso   1.00
H836   H     0.58078   0.53004   0.74362   0.00000  Uiso   1.00
H837   H     0.47488   0.97230   0.81530   0.00000  Uiso   1.00
H838   H     0.42014   0.72831   0.52290   0.00000  Uiso   1.00
H839   H     0.55484   0.69571   0.97424   0.00000  Uiso   1.00
H840   H     0.42123   0.72813   0.61032   0.00000  Uiso   1.00
I841   I     0.37634   0.51432   0.74334   0.00000  Uiso   1.00
I842   I     0.53174   0.98592   0.64400   0.00000  Uiso   1.00
I843   I     0.61577   0.78402   0.53499   0.00000  Uiso   1.00
I844   I     0.42127   0.83104   0.96912   0.00000  Uiso   1.00
N845   N     0.50000   0.74999   0.62623   0.00000  Uiso   1.00
N846   N     0.50000   0.75001   0.87376   0.00000  Uiso   1.00
O847   O     0.50000   0.68453   0.78974   0.00000  Uiso   1.00
O848   O     0.54554   0.88455   0.67664   0.00000  Uiso   1.00
O849   O     0.50000   0.81546   0.71026   0.00000  Uiso   1.00
O850   O     0.50000   0.68453   0.71026   0.00000  Uiso   1.00
O851   O     0.50000   0.81547   0.78974   0.00000  Uiso   1.00
O852   O     0.42392   0.75000   0.78044   0.00000  Uiso   1.00
O853   O     0.57608   0.75000   0.71955   0.00000  Uiso   1.00
O854   O     0.42392   0.74999   0.70096   0.00000  Uiso   1.00
O855   O     0.57608   0.75000   0.79903   0.00000  Uiso   1.00
O856   O     0.40474   0.61743   0.75617   0.00000  Uiso   1.00
Zn857  Zn    0.50000   0.75000   0.80307   0.00000  Uiso   1.00
Zn858  Zn    0.50000   0.74999   0.69693   0.00000  Uiso   1.00
C859   C     0.83221   0.66413   0.75000   0.00000  Uiso   1.00
C860   C     0.80177   0.78134   0.94275   0.00000  Uiso   1.00
C861   C     0.83373   0.75070   0.52656   0.00000  Uiso   1.00
C862   C     0.83297   0.75082   0.97329   0.00000  Uiso   1.00
C863   C     0.73365   0.75028   0.73753   0.00000  Uiso   1.00
C864   C     0.93301   0.75032   0.76247   0.00000  Uiso   1.00
C865   C     0.67865   0.75078   0.73077   0.00000  Uiso   1.00
C866   C     0.98801   0.75105   0.76922   0.00000  Uiso   1.00
C867   C     0.78320   0.54771   0.74845   0.00000  Uiso   1.00
C868   C     0.85060   0.95328   0.70800   0.00000  Uiso   1.00
C869   C     0.78407   0.59409   0.75309   0.00000  Uiso   1.00
C870   C     0.83494   0.83623   0.75003   0.00000  Uiso   1.00
C871   C     0.85723   0.90711   0.71183   0.00000  Uiso   1.00
C872   C     0.83110   0.61662   0.75015   0.00000  Uiso   1.00
C873   C     0.83863   0.88438   0.74988   0.00000  Uiso   1.00
C874   C     0.87735   0.59381   0.74573   0.00000  Uiso   1.00
C875   C     0.82188   0.90808   0.78733   0.00000  Uiso   1.00
C876   C     0.87755   0.54780   0.74519   0.00000  Uiso   1.00
C877   C     0.82045   0.95410   0.78576   0.00000  Uiso   1.00
C878   C     0.83056   0.52476   0.74547   0.00000  Uiso   1.00
C879   C     0.83279   0.97659   0.74557   0.00000  Uiso   1.00
C880   C     0.73305   0.62323   0.80490   0.00000  Uiso   1.00
C881   C     0.78884   0.73808   0.54612   0.00000  Uiso   1.00
C882   C     0.67509   0.63004   0.80915   0.00000  Uiso   1.00
C883   C     0.66771   0.64484   0.85923   0.00000  Uiso   1.00
C884   C     0.92980   0.86814   0.69525   0.00000  Uiso   1.00
C885   C     0.97192   0.90208   0.68738   0.00000  Uiso   1.00
C886   C     0.69377   0.88326   0.70362   0.00000  Uiso   1.00
C887   C     0.86387   0.71988   0.95223   0.00000  Uiso   1.00
C888   C     0.78943   0.73795   0.59595   0.00000  Uiso   1.00
C889   C     0.86355   0.72007   0.90246   0.00000  Uiso   1.00
C890   C     0.87750   0.76214   0.60821   0.00000  Uiso   1.00
C891   C     0.80268   0.78019   0.89308   0.00000  Uiso   1.00
C892   C     0.87880   0.76278   0.55861   0.00000  Uiso   1.00
H893   H     0.99140   0.75059   0.69429   0.00000  Uiso   1.00
H894   H     0.88755   0.69619   0.88673   0.00000  Uiso   1.00
H895   H     0.91212   0.77152   0.63233   0.00000  Uiso   1.00
H896   H     0.77895   0.80372   0.86979   0.00000  Uiso   1.00
H897   H     0.75502   0.65334   0.81880   0.00000  Uiso   1.00
H898   H     0.74788   0.59384   0.82771   0.00000  Uiso   1.00
H899   H     0.99092   0.65574   0.78289   0.00000  Uiso   1.00
H900   H     0.98755   0.59800   0.80102   0.00000  Uiso   1.00
H901   H     0.68496   0.61965   0.88620   0.00000  Uiso   1.00
H902   H     0.95844   0.64831   0.86112   0.00000  Uiso   1.00
H903   H     0.68670   0.67767   0.86759   0.00000  Uiso   1.00
H904   H     0.67530   0.75125   0.80571   0.00000  Uiso   1.00
H905   H     0.93672   0.83725   0.67553   0.00000  Uiso   1.00
H906   H     0.93439   0.85842   0.73379   0.00000  Uiso   1.00
H907   H     0.96780   0.91102   0.64881   0.00000  Uiso   1.00
H908   H     0.96648   0.93285   0.70792   0.00000  Uiso   1.00
H909   H     0.69920   0.87494   0.74237   0.00000  Uiso   1.00
H910   H     0.72338   0.90856   0.69735   0.00000  Uiso   1.00
H911   H     0.70047   0.85268   0.68316   0.00000  Uiso   1.00
H912   H     0.91310   0.61173   0.74283   0.00000  Uiso   1.00
H913   H     0.80901   0.89109   0.81740   0.00000  Uiso   1.00
H914   H     0.91411   0.53004   0.74362   0.00000  Uiso   1.00
H915   H     0.80821   0.97230   0.81530   0.00000  Uiso   1.00
H916   H     0.75348   0.72831   0.52290   0.00000  Uiso   1.00
H917   H     0.88817   0.69571   0.97424   0.00000  Uiso   1.00
H918   H     0.75456   0.72813   0.61032   0.00000  Uiso   1.00
I919   I     0.70967   0.51432   0.74334   0.00000  Uiso   1.00
I920   I     0.86507   0.98592   0.64400   0.00000  Uiso   1.00
I921   I     0.94911   0.78402   0.53499   0.00000  Uiso   1.00
I922   I     0.75461   0.83104   0.96912   0.00000  Uiso   1.00
N923   N     0.83333   0.74999   0.62623   0.00000  Uiso   1.00
N924   N     0.83333   0.75001   0.87376   0.00000  Uiso   1.00
O925   O     0.83334   0.68453   0.78974   0.00000  Uiso   1.00
O926   O     0.87887   0.88455   0.67664   0.00000  Uiso   1.00
O927   O     0.83333   0.81546   0.71026   0.00000  Uiso   1.00
O928   O     0.83334   0.68453   0.71026   0.00000  Uiso   1.00
O929   O     0.83333   0.81547   0.78974   0.00000  Uiso   1.00
O930   O     0.75725   0.75000   0.78044   0.00000  Uiso   1.00
O931   O     0.90942   0.75000   0.71955   0.00000  Uiso   1.00
O932   O     0.75725   0.74999   0.70096   0.00000  Uiso   1.00
O933   O     0.90942   0.75000   0.79903   0.00000  Uiso   1.00
O934   O     0.73808   0.61743   0.75617   0.00000  Uiso   1.00
Zn935  Zn    0.83333   0.75000   0.80307   0.00000  Uiso   1.00
Zn936  Zn    0.83333   0.74999   0.69693   0.00000  Uiso   1.00
loop_
_geom_bond_atom_site_label_1
_geom_bond_atom_site_label_2
_geom_bond_distance
_geom_bond_site_symmetry_2
_ccdc_geom_bond_type
C1     O67     1.279   .     A
C1     O70     1.281   .     A
C1     C14     1.421   .     S
C2     I64     2.120   .     S
C2     C4      1.413   .     A
C2     C33     1.410   .     A
C3     C23     1.407   .     A
C3     C34     1.412   .     A
C3     C472    1.505   1_554 S
C4     C29     1.407   .     A
C4     C471    1.505   .     S
C5     O72     1.274   .     A
C5     O74     1.276   .     A
C5     C7      1.400   .     S
C6     O75     1.276   .     A
C6     C8      1.400   .     S
C6     O73     1.274   .     A
C7     C164    1.329   1_455 S
C7     H191    1.088   1_455 S
C8     C85     1.329   .     S
C8     H124    1.088   .     S
C9     I61     2.133   .     S
C9     C20     1.408   .     A
C9     C11     1.394   .     A
C10    I62     2.135   .     S
C10    C21     1.406   .     A
C10    C13     1.391   .     A
C11    O76     1.384   .     S
C11    C14     1.403   .     A
C12    O69     1.284   .     A
C12    C15     1.444   .     S
C12    O71     1.287   .     A
C13    C15     1.415   .     A
C13    O68     1.387   .     S
C14    C16     1.389   .     A
C15    C17     1.397   .     A
C16    H54     1.082   .     S
C16    C18     1.376   .     A
C17    C19     1.377   .     A
C17    H55     1.084   .     S
C18    C20     1.398   .     A
C18    H56     1.084   .     S
C19    H57     1.084   .     S
C19    C21     1.396   .     A
C20    C255    1.441   1_545 S
C21    C254    1.441   .     S
C22    O76     1.416   .     S
C22    H40     1.118   .     S
C22    H39     1.110   .     S
C22    C24     1.526   .     S
C23    C30     1.408   .     A
C23    H58     1.083   .     S
C24    C25     1.525   .     S
C24    H197    1.111   1_455 S
C24    H198    1.111   1_455 S
C25    H43     1.111   .     S
C25    H45     1.111   .     S
C25    H200    1.110   1_455 S
C26    C27     1.530   .     S
C26    H47     1.109   .     S
C26    H48     1.116   .     S
C26    O68     1.420   .     S
C27    H50     1.110   .     S
C27    H49     1.111   .     S
C27    C106    1.528   .     S
C28    H51     1.111   .     S
C28    H53     1.111   .     S
C28    H52     1.110   .     S
C28    C183    1.528   1_455 S
C29    H59     1.083   .     S
C29    C31     1.407   .     A
C30    H60     1.081   .     S
C30    N65     1.364   .     A
C31    N66     1.363   .     A
C31    H36     1.081   .     S
C32    C34     1.409   .     A
C32    H37     1.079   .     S
C32    N65     1.365   .     A
C33    N66     1.364   .     A
C33    H38     1.082   .     S
C34    I63     2.121   .     S
H35    C85     1.088   .     S
H41    C102    1.111   .     S
H42    C102    1.111   .     S
H44    C103    1.110   .     S
H46    C164    1.088   1_455 S
N65    Zn78    2.001   .     S
N66    Zn77    2.001   .     S
O67    Zn77    1.996   .     S
O69    Zn78    1.996   .     S
O70    Zn78    1.992   .     S
O71    Zn77    1.992   .     S
O72    Zn77    1.967   .     S
O73    Zn78    1.967   .     S
O74    Zn78    1.979   .     S
O75    Zn77    1.979   .     S
C79    O145    1.279   .     A
C79    O148    1.281   .     A
C79    C92     1.421   .     S
C80    I142    2.120   .     S
C80    C82     1.413   .     A
C80    C111    1.410   .     A
C81    C101    1.407   .     A
C81    C112    1.412   .     A
C81    C550    1.505   1_554 S
C82    C107    1.407   .     A
C82    C549    1.505   .     S
C83    O150    1.274   .     A
C83    O152    1.276   .     A
C83    C85     1.400   .     S
C84    O153    1.276   .     A
C84    C86     1.400   .     S
C84    O151    1.274   .     A
C86    C163    1.329   .     S
C86    H202    1.088   .     S
C87    I139    2.133   .     S
C87    C98     1.408   .     A
C87    C89     1.394   .     A
C88    I140    2.135   .     S
C88    C99     1.406   .     A
C88    C91     1.391   .     A
C89    O154    1.384   .     S
C89    C92     1.403   .     A
C90    O147    1.284   .     A
C90    C93     1.444   .     S
C90    O149    1.287   .     A
C91    C93     1.415   .     A
C91    O146    1.387   .     S
C92    C94     1.389   .     A
C93    C95     1.397   .     A
C94    H132    1.082   .     S
C94    C96     1.376   .     A
C95    C97     1.377   .     A
C95    H133    1.084   .     S
C96    C98     1.398   .     A
C96    H134    1.084   .     S
C97    H135    1.084   .     S
C97    C99     1.396   .     A
C98    C333    1.441   1_545 S
C99    C332    1.441   .     S
C100   O154    1.416   .     S
C100   H118    1.118   .     S
C100   H117    1.110   .     S
C100   C102    1.526   .     S
C101   C108    1.408   .     A
C101   H136    1.083   .     S
C102   C103    1.525   .     S
C103   H121    1.111   .     S
C103   H123    1.111   .     S
C104   C105    1.530   .     S
C104   H125    1.109   .     S
C104   H126    1.116   .     S
C104   O146    1.420   .     S
C105   H128    1.110   .     S
C105   H127    1.111   .     S
C105   C184    1.528   .     S
C106   H129    1.111   .     S
C106   H131    1.111   .     S
C106   H130    1.110   .     S
C107   H137    1.083   .     S
C107   C109    1.407   .     A
C108   H138    1.081   .     S
C108   N143    1.364   .     A
C109   N144    1.363   .     A
C109   H114    1.081   .     S
C110   C112    1.409   .     A
C110   H115    1.079   .     S
C110   N143    1.365   .     A
C111   N144    1.364   .     A
C111   H116    1.082   .     S
C112   I141    2.121   .     S
H113   C163    1.088   .     S
H119   C180    1.111   .     S
H120   C180    1.111   .     S
H122   C181    1.110   .     S
N143   Zn156   2.001   .     S
N144   Zn155   2.001   .     S
O145   Zn155   1.996   .     S
O147   Zn156   1.996   .     S
O148   Zn156   1.992   .     S
O149   Zn155   1.992   .     S
O150   Zn155   1.967   .     S
O151   Zn156   1.967   .     S
O152   Zn156   1.979   .     S
O153   Zn155   1.979   .     S
C157   O223    1.279   .     A
C157   O226    1.281   .     A
C157   C170    1.421   .     S
C158   I220    2.120   .     S
C158   C160    1.413   .     A
C158   C189    1.410   .     A
C159   C179    1.407   .     A
C159   C190    1.412   .     A
C159   C628    1.505   1_554 S
C160   C185    1.407   .     A
C160   C627    1.505   .     S
C161   O228    1.274   .     A
C161   O230    1.276   .     A
C161   C163    1.400   .     S
C162   O231    1.276   .     A
C162   C164    1.400   .     S
C162   O229    1.274   .     A
C164   C7      1.329   1_655 S
C164   H46     1.088   1_655 S
C165   I217    2.133   .     S
C165   C176    1.408   .     A
C165   C167    1.394   .     A
C166   I218    2.135   .     S
C166   C177    1.406   .     A
C166   C169    1.391   .     A
C167   O232    1.384   .     S
C167   C170    1.403   .     A
C168   O225    1.284   .     A
C168   C171    1.444   .     S
C168   O227    1.287   .     A
C169   C171    1.415   .     A
C169   O224    1.387   .     S
C170   C172    1.389   .     A
C171   C173    1.397   .     A
C172   H210    1.082   .     S
C172   C174    1.376   .     A
C173   C175    1.377   .     A
C173   H211    1.084   .     S
C174   C176    1.398   .     A
C174   H212    1.084   .     S
C175   H213    1.084   .     S
C175   C177    1.396   .     A
C176   C411    1.441   1_545 S
C177   C410    1.441   .     S
C178   O232    1.416   .     S
C178   H196    1.118   .     S
C178   H195    1.110   .     S
C178   C180    1.526   .     S
C179   C186    1.408   .     A
C179   H214    1.083   .     S
C180   C181    1.525   .     S
C181   H199    1.111   .     S
C181   H201    1.111   .     S
C182   C183    1.530   .     S
C182   H203    1.109   .     S
C182   H204    1.116   .     S
C182   O224    1.420   .     S
C183   H206    1.110   .     S
C183   H205    1.111   .     S
C183   C28     1.528   1_655 S
C184   H207    1.111   .     S
C184   H209    1.111   .     S
C184   H208    1.110   .     S
C185   H215    1.083   .     S
C185   C187    1.407   .     A
C186   H216    1.081   .     S
C186   N221    1.364   .     A
C187   N222    1.363   .     A
C187   H192    1.081   .     S
C188   C190    1.409   .     A
C188   H193    1.079   .     S
C188   N221    1.365   .     A
C189   N222    1.364   .     A
C189   H194    1.082   .     S
C190   I219    2.121   .     S
H191   C7      1.088   1_655 S
H197   C24     1.111   1_655 S
H198   C24     1.111   1_655 S
H200   C25     1.110   1_655 S
N221   Zn234   2.001   .     S
N222   Zn233   2.001   .     S
O223   Zn233   1.996   .     S
O225   Zn234   1.996   .     S
O226   Zn234   1.992   .     S
O227   Zn233   1.992   .     S
O228   Zn233   1.967   .     S
O229   Zn234   1.967   .     S
O230   Zn234   1.979   .     S
O231   Zn233   1.979   .     S
C235   O301    1.279   .     A
C235   O304    1.281   .     A
C235   C248    1.421   .     S
C236   I298    2.120   .     S
C236   C238    1.413   .     A
C236   C267    1.410   .     A
C237   C257    1.407   .     A
C237   C268    1.412   .     A
C237   C706    1.505   1_554 S
C238   C263    1.407   .     A
C238   C705    1.505   .     S
C239   O306    1.274   .     A
C239   O308    1.276   .     A
C239   C241    1.400   .     S
C240   O309    1.276   .     A
C240   C242    1.400   .     S
C240   O307    1.274   .     A
C241   C398    1.329   1_455 S
C241   H425    1.088   1_455 S
C242   C319    1.329   .     S
C242   H358    1.088   .     S
C243   I295    2.133   .     S
C243   C254    1.408   .     A
C243   C245    1.394   .     A
C244   I296    2.135   .     S
C244   C255    1.406   .     A
C244   C247    1.391   .     A
C245   O310    1.384   .     S
C245   C248    1.403   .     A
C246   O303    1.284   .     A
C246   C249    1.444   .     S
C246   O305    1.287   .     A
C247   C249    1.415   .     A
C247   O302    1.387   .     S
C248   C250    1.389   .     A
C249   C251    1.397   .     A
C250   H288    1.082   .     S
C250   C252    1.376   .     A
C251   C253    1.377   .     A
C251   H289    1.084   .     S
C252   C254    1.398   .     A
C252   H290    1.084   .     S
C253   H291    1.084   .     S
C253   C255    1.396   .     A
C255   C20     1.441   1_565 S
C256   O310    1.416   .     S
C256   H274    1.118   .     S
C256   H273    1.110   .     S
C256   C258    1.526   .     S
C257   C264    1.408   .     A
C257   H292    1.083   .     S
C258   C259    1.525   .     S
C258   H431    1.111   1_455 S
C258   H432    1.111   1_455 S
C259   H277    1.111   .     S
C259   H279    1.111   .     S
C259   H434    1.110   1_455 S
C260   C261    1.530   .     S
C260   H281    1.109   .     S
C260   H282    1.116   .     S
C260   O302    1.420   .     S
C261   H284    1.110   .     S
C261   H283    1.111   .     S
C261   C340    1.528   .     S
C262   H285    1.111   .     S
C262   H287    1.111   .     S
C262   H286    1.110   .     S
C262   C417    1.528   1_455 S
C263   H293    1.083   .     S
C263   C265    1.407   .     A
C264   H294    1.081   .     S
C264   N299    1.364   .     A
C265   N300    1.363   .     A
C265   H270    1.081   .     S
C266   C268    1.409   .     A
C266   H271    1.079   .     S
C266   N299    1.365   .     A
C267   N300    1.364   .     A
C267   H272    1.082   .     S
C268   I297    2.121   .     S
H269   C319    1.088   .     S
H275   C336    1.111   .     S
H276   C336    1.111   .     S
H278   C337    1.110   .     S
H280   C398    1.088   1_455 S
N299   Zn312   2.001   .     S
N300   Zn311   2.001   .     S
O301   Zn311   1.996   .     S
O303   Zn312   1.996   .     S
O304   Zn312   1.992   .     S
O305   Zn311   1.992   .     S
O306   Zn311   1.967   .     S
O307   Zn312   1.967   .     S
O308   Zn312   1.979   .     S
O309   Zn311   1.979   .     S
C313   O379    1.279   .     A
C313   O382    1.281   .     A
C313   C326    1.421   .     S
C314   I376    2.120   .     S
C314   C316    1.413   .     A
C314   C345    1.410   .     A
C315   C335    1.407   .     A
C315   C346    1.412   .     A
C315   C784    1.505   1_554 S
C316   C341    1.407   .     A
C316   C783    1.505   .     S
C317   O384    1.274   .     A
C317   O386    1.276   .     A
C317   C319    1.400   .     S
C318   O387    1.276   .     A
C318   C320    1.400   .     S
C318   O385    1.274   .     A
C320   C397    1.329   .     S
C320   H436    1.088   .     S
C321   I373    2.133   .     S
C321   C332    1.408   .     A
C321   C323    1.394   .     A
C322   I374    2.135   .     S
C322   C333    1.406   .     A
C322   C325    1.391   .     A
C323   O388    1.384   .     S
C323   C326    1.403   .     A
C324   O381    1.284   .     A
C324   C327    1.444   .     S
C324   O383    1.287   .     A
C325   C327    1.415   .     A
C325   O380    1.387   .     S
C326   C328    1.389   .     A
C327   C329    1.397   .     A
C328   H366    1.082   .     S
C328   C330    1.376   .     A
C329   C331    1.377   .     A
C329   H367    1.084   .     S
C330   C332    1.398   .     A
C330   H368    1.084   .     S
C331   H369    1.084   .     S
C331   C333    1.396   .     A
C333   C98     1.441   1_565 S
C334   O388    1.416   .     S
C334   H352    1.118   .     S
C334   H351    1.110   .     S
C334   C336    1.526   .     S
C335   C342    1.408   .     A
C335   H370    1.083   .     S
C336   C337    1.525   .     S
C337   H355    1.111   .     S
C337   H357    1.111   .     S
C338   C339    1.530   .     S
C338   H359    1.109   .     S
C338   H360    1.116   .     S
C338   O380    1.420   .     S
C339   H362    1.110   .     S
C339   H361    1.111   .     S
C339   C418    1.528   .     S
C340   H363    1.111   .     S
C340   H365    1.111   .     S
C340   H364    1.110   .     S
C341   H371    1.083   .     S
C341   C343    1.407   .     A
C342   H372    1.081   .     S
C342   N377    1.364   .     A
C343   N378    1.363   .     A
C343   H348    1.081   .     S
C344   C346    1.409   .     A
C344   H349    1.079   .     S
C344   N377    1.365   .     A
C345   N378    1.364   .     A
C345   H350    1.082   .     S
C346   I375    2.121   .     S
H347   C397    1.088   .     S
H353   C414    1.111   .     S
H354   C414    1.111   .     S
H356   C415    1.110   .     S
N377   Zn390   2.001   .     S
N378   Zn389   2.001   .     S
O379   Zn389   1.996   .     S
O381   Zn390   1.996   .     S
O382   Zn390   1.992   .     S
O383   Zn389   1.992   .     S
O384   Zn389   1.967   .     S
O385   Zn390   1.967   .     S
O386   Zn390   1.979   .     S
O387   Zn389   1.979   .     S
C391   O457    1.279   .     A
C391   O460    1.281   .     A
C391   C404    1.421   .     S
C392   I454    2.120   .     S
C392   C394    1.413   .     A
C392   C423    1.410   .     A
C393   C413    1.407   .     A
C393   C424    1.412   .     A
C393   C862    1.505   1_554 S
C394   C419    1.407   .     A
C394   C861    1.505   .     S
C395   O462    1.274   .     A
C395   O464    1.276   .     A
C395   C397    1.400   .     S
C396   O465    1.276   .     A
C396   C398    1.400   .     S
C396   O463    1.274   .     A
C398   C241    1.329   1_655 S
C398   H280    1.088   1_655 S
C399   I451    2.133   .     S
C399   C410    1.408   .     A
C399   C401    1.394   .     A
C400   I452    2.135   .     S
C400   C411    1.406   .     A
C400   C403    1.391   .     A
C401   O466    1.384   .     S
C401   C404    1.403   .     A
C402   O459    1.284   .     A
C402   C405    1.444   .     S
C402   O461    1.287   .     A
C403   C405    1.415   .     A
C403   O458    1.387   .     S
C404   C406    1.389   .     A
C405   C407    1.397   .     A
C406   H444    1.082   .     S
C406   C408    1.376   .     A
C407   C409    1.377   .     A
C407   H445    1.084   .     S
C408   C410    1.398   .     A
C408   H446    1.084   .     S
C409   H447    1.084   .     S
C409   C411    1.396   .     A
C411   C176    1.441   1_565 S
C412   O466    1.416   .     S
C412   H430    1.118   .     S
C412   H429    1.110   .     S
C412   C414    1.526   .     S
C413   C420    1.408   .     A
C413   H448    1.083   .     S
C414   C415    1.525   .     S
C415   H433    1.111   .     S
C415   H435    1.111   .     S
C416   C417    1.530   .     S
C416   H437    1.109   .     S
C416   H438    1.116   .     S
C416   O458    1.420   .     S
C417   H440    1.110   .     S
C417   H439    1.111   .     S
C417   C262    1.528   1_655 S
C418   H441    1.111   .     S
C418   H443    1.111   .     S
C418   H442    1.110   .     S
C419   H449    1.083   .     S
C419   C421    1.407   .     A
C420   H450    1.081   .     S
C420   N455    1.364   .     A
C421   N456    1.363   .     A
C421   H426    1.081   .     S
C422   C424    1.409   .     A
C422   H427    1.079   .     S
C422   N455    1.365   .     A
C423   N456    1.364   .     A
C423   H428    1.082   .     S
C424   I453    2.121   .     S
H425   C241    1.088   1_655 S
H431   C258    1.111   1_655 S
H432   C258    1.111   1_655 S
H434   C259    1.110   1_655 S
N455   Zn468   2.001   .     S
N456   Zn467   2.001   .     S
O457   Zn467   1.996   .     S
O459   Zn468   1.996   .     S
O460   Zn468   1.992   .     S
O461   Zn467   1.992   .     S
O462   Zn467   1.967   .     S
O463   Zn468   1.967   .     S
O464   Zn468   1.979   .     S
O465   Zn467   1.979   .     S
C469   O535    1.279   .     A
C469   O538    1.281   .     A
C469   C482    1.421   .     S
C470   I532    2.120   .     S
C470   C472    1.413   .     A
C470   C501    1.410   .     A
C471   C491    1.407   .     A
C471   C502    1.412   .     A
C472   C497    1.407   .     A
C472   C3      1.505   1_556 S
C473   O540    1.274   .     A
C473   O542    1.276   .     A
C473   C475    1.400   .     S
C474   O543    1.276   .     A
C474   C476    1.400   .     S
C474   O541    1.274   .     A
C475   C632    1.329   1_455 S
C475   H659    1.088   1_455 S
C476   C553    1.329   .     S
C476   H592    1.088   .     S
C477   I529    2.133   .     S
C477   C488    1.408   .     A
C477   C479    1.394   .     A
C478   I530    2.135   .     S
C478   C489    1.406   .     A
C478   C481    1.391   .     A
C479   O544    1.384   .     S
C479   C482    1.403   .     A
C480   O537    1.284   .     A
C480   C483    1.444   .     S
C480   O539    1.287   .     A
C481   C483    1.415   .     A
C481   O536    1.387   .     S
C482   C484    1.389   .     A
C483   C485    1.397   .     A
C484   H522    1.082   .     S
C484   C486    1.376   .     A
C485   C487    1.377   .     A
C485   H523    1.084   .     S
C486   C488    1.398   .     A
C486   H524    1.084   .     S
C487   H525    1.084   .     S
C487   C489    1.396   .     A
C488   C723    1.441   1_545 S
C489   C722    1.441   .     S
C490   O544    1.416   .     S
C490   H508    1.118   .     S
C490   H507    1.110   .     S
C490   C492    1.526   .     S
C491   C498    1.408   .     A
C491   H526    1.083   .     S
C492   C493    1.525   .     S
C492   H665    1.111   1_455 S
C492   H666    1.111   1_455 S
C493   H511    1.111   .     S
C493   H513    1.111   .     S
C493   H668    1.110   1_455 S
C494   C495    1.530   .     S
C494   H515    1.109   .     S
C494   H516    1.116   .     S
C494   O536    1.420   .     S
C495   H518    1.110   .     S
C495   H517    1.111   .     S
C495   C574    1.528   .     S
C496   H519    1.111   .     S
C496   H521    1.111   .     S
C496   H520    1.110   .     S
C496   C651    1.528   1_455 S
C497   H527    1.083   .     S
C497   C499    1.407   .     A
C498   H528    1.081   .     S
C498   N533    1.364   .     A
C499   N534    1.363   .     A
C499   H504    1.081   .     S
C500   C502    1.409   .     A
C500   H505    1.079   .     S
C500   N533    1.365   .     A
C501   N534    1.364   .     A
C501   H506    1.082   .     S
C502   I531    2.121   .     S
H503   C553    1.088   .     S
H509   C570    1.111   .     S
H510   C570    1.111   .     S
H512   C571    1.110   .     S
H514   C632    1.088   1_455 S
N533   Zn546   2.001   .     S
N534   Zn545   2.001   .     S
O535   Zn545   1.996   .     S
O537   Zn546   1.996   .     S
O538   Zn546   1.992   .     S
O539   Zn545   1.992   .     S
O540   Zn545   1.967   .     S
O541   Zn546   1.967   .     S
O542   Zn546   1.979   .     S
O543   Zn545   1.979   .     S
C547   O613    1.279   .     A
C547   O616    1.281   .     A
C547   C560    1.421   .     S
C548   I610    2.120   .     S
C548   C550    1.413   .     A
C548   C579    1.410   .     A
C549   C569    1.407   .     A
C549   C580    1.412   .     A
C550   C575    1.407   .     A
C550   C81     1.505   1_556 S
C551   O618    1.274   .     A
C551   O620    1.276   .     A
C551   C553    1.400   .     S
C552   O621    1.276   .     A
C552   C554    1.400   .     S
C552   O619    1.274   .     A
C554   C631    1.329   .     S
C554   H670    1.088   .     S
C555   I607    2.133   .     S
C555   C566    1.408   .     A
C555   C557    1.394   .     A
C556   I608    2.135   .     S
C556   C567    1.406   .     A
C556   C559    1.391   .     A
C557   O622    1.384   .     S
C557   C560    1.403   .     A
C558   O615    1.284   .     A
C558   C561    1.444   .     S
C558   O617    1.287   .     A
C559   C561    1.415   .     A
C559   O614    1.387   .     S
C560   C562    1.389   .     A
C561   C563    1.397   .     A
C562   H600    1.082   .     S
C562   C564    1.376   .     A
C563   C565    1.377   .     A
C563   H601    1.084   .     S
C564   C566    1.398   .     A
C564   H602    1.084   .     S
C565   H603    1.084   .     S
C565   C567    1.396   .     A
C566   C801    1.441   1_545 S
C567   C800    1.441   .     S
C568   O622    1.416   .     S
C568   H586    1.118   .     S
C568   H585    1.110   .     S
C568   C570    1.526   .     S
C569   C576    1.408   .     A
C569   H604    1.083   .     S
C570   C571    1.525   .     S
C571   H589    1.111   .     S
C571   H591    1.111   .     S
C572   C573    1.530   .     S
C572   H593    1.109   .     S
C572   H594    1.116   .     S
C572   O614    1.420   .     S
C573   H596    1.110   .     S
C573   H595    1.111   .     S
C573   C652    1.528   .     S
C574   H597    1.111   .     S
C574   H599    1.111   .     S
C574   H598    1.110   .     S
C575   H605    1.083   .     S
C575   C577    1.407   .     A
C576   H606    1.081   .     S
C576   N611    1.364   .     A
C577   N612    1.363   .     A
C577   H582    1.081   .     S
C578   C580    1.409   .     A
C578   H583    1.079   .     S
C578   N611    1.365   .     A
C579   N612    1.364   .     A
C579   H584    1.082   .     S
C580   I609    2.121   .     S
H581   C631    1.088   .     S
H587   C648    1.111   .     S
H588   C648    1.111   .     S
H590   C649    1.110   .     S
N611   Zn624   2.001   .     S
N612   Zn623   2.001   .     S
O613   Zn623   1.996   .     S
O615   Zn624   1.996   .     S
O616   Zn624   1.992   .     S
O617   Zn623   1.992   .     S
O618   Zn623   1.967   .     S
O619   Zn624   1.967   .     S
O620   Zn624   1.979   .     S
O621   Zn623   1.979   .     S
C625   O691    1.279   .     A
C625   O694    1.281   .     A
C625   C638    1.421   .     S
C626   I688    2.120   .     S
C626   C628    1.413   .     A
C626   C657    1.410   .     A
C627   C647    1.407   .     A
C627   C658    1.412   .     A
C628   C653    1.407   .     A
C628   C159    1.505   1_556 S
C629   O696    1.274   .     A
C629   O698    1.276   .     A
C629   C631    1.400   .     S
C630   O699    1.276   .     A
C630   C632    1.400   .     S
C630   O697    1.274   .     A
C632   C475    1.329   1_655 S
C632   H514    1.088   1_655 S
C633   I685    2.133   .     S
C633   C644    1.408   .     A
C633   C635    1.394   .     A
C634   I686    2.135   .     S
C634   C645    1.406   .     A
C634   C637    1.391   .     A
C635   O700    1.384   .     S
C635   C638    1.403   .     A
C636   O693    1.284   .     A
C636   C639    1.444   .     S
C636   O695    1.287   .     A
C637   C639    1.415   .     A
C637   O692    1.387   .     S
C638   C640    1.389   .     A
C639   C641    1.397   .     A
C640   H678    1.082   .     S
C640   C642    1.376   .     A
C641   C643    1.377   .     A
C641   H679    1.084   .     S
C642   C644    1.398   .     A
C642   H680    1.084   .     S
C643   H681    1.084   .     S
C643   C645    1.396   .     A
C644   C879    1.441   1_545 S
C645   C878    1.441   .     S
C646   O700    1.416   .     S
C646   H664    1.118   .     S
C646   H663    1.110   .     S
C646   C648    1.526   .     S
C647   C654    1.408   .     A
C647   H682    1.083   .     S
C648   C649    1.525   .     S
C649   H667    1.111   .     S
C649   H669    1.111   .     S
C650   C651    1.530   .     S
C650   H671    1.109   .     S
C650   H672    1.116   .     S
C650   O692    1.420   .     S
C651   H674    1.110   .     S
C651   H673    1.111   .     S
C651   C496    1.528   1_655 S
C652   H675    1.111   .     S
C652   H677    1.111   .     S
C652   H676    1.110   .     S
C653   H683    1.083   .     S
C653   C655    1.407   .     A
C654   H684    1.081   .     S
C654   N689    1.364   .     A
C655   N690    1.363   .     A
C655   H660    1.081   .     S
C656   C658    1.409   .     A
C656   H661    1.079   .     S
C656   N689    1.365   .     A
C657   N690    1.364   .     A
C657   H662    1.082   .     S
C658   I687    2.121   .     S
H659   C475    1.088   1_655 S
H665   C492    1.111   1_655 S
H666   C492    1.111   1_655 S
H668   C493    1.110   1_655 S
N689   Zn702   2.001   .     S
N690   Zn701   2.001   .     S
O691   Zn701   1.996   .     S
O693   Zn702   1.996   .     S
O694   Zn702   1.992   .     S
O695   Zn701   1.992   .     S
O696   Zn701   1.967   .     S
O697   Zn702   1.967   .     S
O698   Zn702   1.979   .     S
O699   Zn701   1.979   .     S
C703   O769    1.279   .     A
C703   O772    1.281   .     A
C703   C716    1.421   .     S
C704   I766    2.120   .     S
C704   C706    1.413   .     A
C704   C735    1.410   .     A
C705   C725    1.407   .     A
C705   C736    1.412   .     A
C706   C731    1.407   .     A
C706   C237    1.505   1_556 S
C707   O774    1.274   .     A
C707   O776    1.276   .     A
C707   C709    1.400   .     S
C708   O777    1.276   .     A
C708   C710    1.400   .     S
C708   O775    1.274   .     A
C709   C866    1.329   1_455 S
C709   H893    1.088   1_455 S
C710   C787    1.329   .     S
C710   H826    1.088   .     S
C711   I763    2.133   .     S
C711   C722    1.408   .     A
C711   C713    1.394   .     A
C712   I764    2.135   .     S
C712   C723    1.406   .     A
C712   C715    1.391   .     A
C713   O778    1.384   .     S
C713   C716    1.403   .     A
C714   O771    1.284   .     A
C714   C717    1.444   .     S
C714   O773    1.287   .     A
C715   C717    1.415   .     A
C715   O770    1.387   .     S
C716   C718    1.389   .     A
C717   C719    1.397   .     A
C718   H756    1.082   .     S
C718   C720    1.376   .     A
C719   C721    1.377   .     A
C719   H757    1.084   .     S
C720   C722    1.398   .     A
C720   H758    1.084   .     S
C721   H759    1.084   .     S
C721   C723    1.396   .     A
C723   C488    1.441   1_565 S
C724   O778    1.416   .     S
C724   H742    1.118   .     S
C724   H741    1.110   .     S
C724   C726    1.526   .     S
C725   C732    1.408   .     A
C725   H760    1.083   .     S
C726   C727    1.525   .     S
C726   H899    1.111   1_455 S
C726   H900    1.111   1_455 S
C727   H745    1.111   .     S
C727   H747    1.111   .     S
C727   H902    1.110   1_455 S
C728   C729    1.530   .     S
C728   H749    1.109   .     S
C728   H750    1.116   .     S
C728   O770    1.420   .     S
C729   H752    1.110   .     S
C729   H751    1.111   .     S
C729   C808    1.528   .     S
C730   H753    1.111   .     S
C730   H755    1.111   .     S
C730   H754    1.110   .     S
C730   C885    1.528   1_455 S
C731   H761    1.083   .     S
C731   C733    1.407   .     A
C732   H762    1.081   .     S
C732   N767    1.364   .     A
C733   N768    1.363   .     A
C733   H738    1.081   .     S
C734   C736    1.409   .     A
C734   H739    1.079   .     S
C734   N767    1.365   .     A
C735   N768    1.364   .     A
C735   H740    1.082   .     S
C736   I765    2.121   .     S
H737   C787    1.088   .     S
H743   C804    1.111   .     S
H744   C804    1.111   .     S
H746   C805    1.110   .     S
H748   C866    1.088   1_455 S
N767   Zn780   2.001   .     S
N768   Zn779   2.001   .     S
O769   Zn779   1.996   .     S
O771   Zn780   1.996   .     S
O772   Zn780   1.992   .     S
O773   Zn779   1.992   .     S
O774   Zn779   1.967   .     S
O775   Zn780   1.967   .     S
O776   Zn780   1.979   .     S
O777   Zn779   1.979   .     S
C781   O847    1.279   .     A
C781   O850    1.281   .     A
C781   C794    1.421   .     S
C782   I844    2.120   .     S
C782   C784    1.413   .     A
C782   C813    1.410   .     A
C783   C803    1.407   .     A
C783   C814    1.412   .     A
C784   C809    1.407   .     A
C784   C315    1.505   1_556 S
C785   O852    1.274   .     A
C785   O854    1.276   .     A
C785   C787    1.400   .     S
C786   O855    1.276   .     A
C786   C788    1.400   .     S
C786   O853    1.274   .     A
C788   C865    1.329   .     S
C788   H904    1.088   .     S
C789   I841    2.133   .     S
C789   C800    1.408   .     A
C789   C791    1.394   .     A
C790   I842    2.135   .     S
C790   C801    1.406   .     A
C790   C793    1.391   .     A
C791   O856    1.384   .     S
C791   C794    1.403   .     A
C792   O849    1.284   .     A
C792   C795    1.444   .     S
C792   O851    1.287   .     A
C793   C795    1.415   .     A
C793   O848    1.387   .     S
C794   C796    1.389   .     A
C795   C797    1.397   .     A
C796   H834    1.082   .     S
C796   C798    1.376   .     A
C797   C799    1.377   .     A
C797   H835    1.084   .     S
C798   C800    1.398   .     A
C798   H836    1.084   .     S
C799   H837    1.084   .     S
C799   C801    1.396   .     A
C801   C566    1.441   1_565 S
C802   O856    1.416   .     S
C802   H820    1.118   .     S
C802   H819    1.110   .     S
C802   C804    1.526   .     S
C803   C810    1.408   .     A
C803   H838    1.083   .     S
C804   C805    1.525   .     S
C805   H823    1.111   .     S
C805   H825    1.111   .     S
C806   C807    1.530   .     S
C806   H827    1.109   .     S
C806   H828    1.116   .     S
C806   O848    1.420   .     S
C807   H830    1.110   .     S
C807   H829    1.111   .     S
C807   C886    1.528   .     S
C808   H831    1.111   .     S
C808   H833    1.111   .     S
C808   H832    1.110   .     S
C809   H839    1.083   .     S
C809   C811    1.407   .     A
C810   H840    1.081   .     S
C810   N845    1.364   .     A
C811   N846    1.363   .     A
C811   H816    1.081   .     S
C812   C814    1.409   .     A
C812   H817    1.079   .     S
C812   N845    1.365   .     A
C813   N846    1.364   .     A
C813   H818    1.082   .     S
C814   I843    2.121   .     S
H815   C865    1.088   .     S
H821   C882    1.111   .     S
H822   C882    1.111   .     S
H824   C883    1.110   .     S
N845   Zn858   2.001   .     S
N846   Zn857   2.001   .     S
O847   Zn857   1.996   .     S
O849   Zn858   1.996   .     S
O850   Zn858   1.992   .     S
O851   Zn857   1.992   .     S
O852   Zn857   1.967   .     S
O853   Zn858   1.967   .     S
O854   Zn858   1.979   .     S
O855   Zn857   1.979   .     S
C859   O925    1.279   .     A
C859   O928    1.281   .     A
C859   C872    1.421   .     S
C860   I922    2.120   .     S
C860   C862    1.413   .     A
C860   C891    1.410   .     A
C861   C881    1.407   .     A
C861   C892    1.412   .     A
C862   C887    1.407   .     A
C862   C393    1.505   1_556 S
C863   O930    1.274   .     A
C863   O932    1.276   .     A
C863   C865    1.400   .     S
C864   O933    1.276   .     A
C864   C866    1.400   .     S
C864   O931    1.274   .     A
C866   C709    1.329   1_655 S
C866   H748    1.088   1_655 S
C867   I919    2.133   .     S
C867   C878    1.408   .     A
C867   C869    1.394   .     A
C868   I920    2.135   .     S
C868   C879    1.406   .     A
C868   C871    1.391   .     A
C869   O934    1.384   .     S
C869   C872    1.403   .     A
C870   O927    1.284   .     A
C870   C873    1.444   .     S
C870   O929    1.287   .     A
C871   C873    1.415   .     A
C871   O926    1.387   .     S
C872   C874    1.389   .     A
C873   C875    1.397   .     A
C874   H912    1.082   .     S
C874   C876    1.376   .     A
C875   C877    1.377   .     A
C875   H913    1.084   .     S
C876   C878    1.398   .     A
C876   H914    1.084   .     S
C877   H915    1.084   .     S
C877   C879    1.396   .     A
C879   C644    1.441   1_565 S
C880   O934    1.416   .     S
C880   H898    1.118   .     S
C880   H897    1.110   .     S
C880   C882    1.526   .     S
C881   C888    1.408   .     A
C881   H916    1.083   .     S
C882   C883    1.525   .     S
C883   H901    1.111   .     S
C883   H903    1.111   .     S
C884   C885    1.530   .     S
C884   H905    1.109   .     S
C884   H906    1.116   .     S
C884   O926    1.420   .     S
C885   H908    1.110   .     S
C885   H907    1.111   .     S
C885   C730    1.528   1_655 S
C886   H909    1.111   .     S
C886   H911    1.111   .     S
C886   H910    1.110   .     S
C887   H917    1.083   .     S
C887   C889    1.407   .     A
C888   H918    1.081   .     S
C888   N923    1.364   .     A
C889   N924    1.363   .     A
C889   H894    1.081   .     S
C890   C892    1.409   .     A
C890   H895    1.079   .     S
C890   N923    1.365   .     A
C891   N924    1.364   .     A
C891   H896    1.082   .     S
C892   I921    2.121   .     S
H893   C709    1.088   1_655 S
H899   C726    1.111   1_655 S
H900   C726    1.111   1_655 S
H902   C727    1.110   1_655 S
N923   Zn936   2.001   .     S
N924   Zn935   2.001   .     S
O925   Zn935   1.996   .     S
O927   Zn936   1.996   .     S
O928   Zn936   1.992   .     S
O929   Zn935   1.992   .     S
O930   Zn935   1.967   .     S
O931   Zn936   1.967   .     S
O932   Zn936   1.979   .     S
O933   Zn935   1.979   .     S
