data_str_m3_o10_o17_pcu_sym.15
_audit_creation_date              2020-01-03
_audit_creation_method            'Materials Studio'
_symmetry_space_group_name_H-M    'P1'
_symmetry_Int_Tables_number       1
_symmetry_cell_setting            triclinic
loop_
_symmetry_equiv_pos_as_xyz
  x,y,z
_cell_length_a                    23.4030
_cell_length_b                    25.8120
_cell_length_c                    29.8941
_cell_angle_alpha                 92.1330
_cell_angle_beta                  84.9684
_cell_angle_gamma                 93.2369
loop_
_atom_site_label
_atom_site_type_symbol
_atom_site_fract_x
_atom_site_fract_y
_atom_site_fract_z
_atom_site_U_iso_or_equiv
_atom_site_adp_type
_atom_site_occupancy
C1     C     0.18157   0.26474   0.24977   0.00000  Uiso   1.00
C2     C     0.21692   0.18313   0.40424   0.00000  Uiso   1.00
C3     C     0.16611   0.16718   0.11564   0.00000  Uiso   1.00
C4     C     0.16723   0.16615   0.38436   0.00000  Uiso   1.00
C5     C     0.21581   0.18414   0.09002   0.00000  Uiso   1.00
C6     C     0.11753   0.14918   0.40998   0.00000  Uiso   1.00
C7     C     0.21625   0.18436   0.04379   0.00000  Uiso   1.00
C8     C     0.11709   0.14896   0.45621   0.00000  Uiso   1.00
C9     C     0.16636   0.16680   0.02327   0.00000  Uiso   1.00
C10    C     0.16698   0.16653   0.47673   0.00000  Uiso   1.00
C11    C     0.11595   0.14945   0.04938   0.00000  Uiso   1.00
C12    C     0.15176   0.06859   0.25024   0.00000  Uiso   1.00
C13    C     0.21739   0.18387   0.45062   0.00000  Uiso   1.00
C14    C     0.26585   0.20188   0.01805   0.00000  Uiso   1.00
C15    C     0.06749   0.13143   0.48195   0.00000  Uiso   1.00
C16    C     0.26694   0.20182   0.47119   0.00000  Uiso   1.00
C17    C     0.06640   0.13150   0.02881   0.00000  Uiso   1.00
C18    C     0.18803   0.31917   0.25597   0.00000  Uiso   1.00
C19    C     0.14531   0.01417   0.24403   0.00000  Uiso   1.00
C20    C     0.16691   0.16659   0.33654   0.00000  Uiso   1.00
C21    C     0.16642   0.16675   0.16346   0.00000  Uiso   1.00
C22    C     0.11642   0.15020   0.09576   0.00000  Uiso   1.00
H23    H     0.07864   0.13678   0.11657   0.00000  Uiso   1.00
H24    H     0.07627   0.01982   0.21211   0.00000  Uiso   1.00
H25    H     0.32480   0.07986   0.21855   0.00000  Uiso   1.00
H26    H     0.33285   0.12249   0.17726   0.00000  Uiso   1.00
H27    H     0.00852   0.25346   0.28144   0.00000  Uiso   1.00
H28    H     0.00052   0.21085   0.32274   0.00000  Uiso   1.00
H29    H     0.25470   0.19655   0.38343   0.00000  Uiso   1.00
H30    H     0.25396   0.19761   0.10613   0.00000  Uiso   1.00
H31    H     0.07938   0.13571   0.39387   0.00000  Uiso   1.00
H32    H     0.30373   0.21545   0.03441   0.00000  Uiso   1.00
H33    H     0.02961   0.11786   0.46559   0.00000  Uiso   1.00
H34    H     0.01257   0.23067   0.46492   0.00000  Uiso   1.00
H35    H     0.32080   0.10259   0.03508   0.00000  Uiso   1.00
H36    H     0.25705   0.31351   0.28790   0.00000  Uiso   1.00
N37    N     0.31678   0.15265   0.23783   0.00000  Uiso   1.00
N38    N     0.01656   0.18068   0.26217   0.00000  Uiso   1.00
N39    N     0.01043   0.11605   0.20965   0.00000  Uiso   1.00
N40    N     0.32291   0.21728   0.29035   0.00000  Uiso   1.00
O41    O     0.12975   0.24619   0.25298   0.00000  Uiso   1.00
O42    O     0.01786   0.11421   0.05491   0.00000  Uiso   1.00
O43    O     0.23351   0.00786   0.27839   0.00000  Uiso   1.00
O44    O     0.09983   0.32548   0.22161   0.00000  Uiso   1.00
O45    O     0.20358   0.08714   0.24702   0.00000  Uiso   1.00
O46    O     0.22613   0.23721   0.24518   0.00000  Uiso   1.00
O47    O     0.10720   0.09613   0.25482   0.00000  Uiso   1.00
O48    O     0.11847   0.17117   0.31997   0.00000  Uiso   1.00
O49    O     0.21486   0.16216   0.18002   0.00000  Uiso   1.00
O50    O     0.21485   0.16219   0.31217   0.00000  Uiso   1.00
O51    O     0.11848   0.17115   0.18782   0.00000  Uiso   1.00
O52    O     0.31549   0.21909   0.44509   0.00000  Uiso   1.00
Zn53   Zn    0.10231   0.17266   0.25521   0.00000  Uiso   1.00
Zn54   Zn    0.23102   0.16067   0.24479   0.00000  Uiso   1.00
C55    C     0.51490   0.26474   0.24977   0.00000  Uiso   1.00
C56    C     0.55025   0.18313   0.40424   0.00000  Uiso   1.00
C57    C     0.49944   0.16718   0.11564   0.00000  Uiso   1.00
C58    C     0.50056   0.16615   0.38436   0.00000  Uiso   1.00
C59    C     0.54914   0.18414   0.09002   0.00000  Uiso   1.00
C60    C     0.45086   0.14918   0.40998   0.00000  Uiso   1.00
C61    C     0.54958   0.18436   0.04379   0.00000  Uiso   1.00
C62    C     0.45042   0.14896   0.45621   0.00000  Uiso   1.00
C63    C     0.49969   0.16680   0.02327   0.00000  Uiso   1.00
C64    C     0.50031   0.16653   0.47673   0.00000  Uiso   1.00
C65    C     0.44928   0.14945   0.04938   0.00000  Uiso   1.00
C66    C     0.48510   0.06859   0.25024   0.00000  Uiso   1.00
C67    C     0.55072   0.18387   0.45062   0.00000  Uiso   1.00
C68    C     0.59919   0.20188   0.01805   0.00000  Uiso   1.00
C69    C     0.40082   0.13143   0.48195   0.00000  Uiso   1.00
C70    C     0.60027   0.20182   0.47119   0.00000  Uiso   1.00
C71    C     0.39974   0.13150   0.02881   0.00000  Uiso   1.00
C72    C     0.52136   0.31917   0.25597   0.00000  Uiso   1.00
C73    C     0.47864   0.01417   0.24403   0.00000  Uiso   1.00
C74    C     0.50024   0.16659   0.33654   0.00000  Uiso   1.00
C75    C     0.49976   0.16675   0.16346   0.00000  Uiso   1.00
C76    C     0.44975   0.15020   0.09576   0.00000  Uiso   1.00
H77    H     0.41197   0.13678   0.11657   0.00000  Uiso   1.00
H78    H     0.40961   0.01982   0.21211   0.00000  Uiso   1.00
H79    H     0.65813   0.07986   0.21855   0.00000  Uiso   1.00
H80    H     0.66618   0.12249   0.17726   0.00000  Uiso   1.00
H81    H     0.34185   0.25346   0.28144   0.00000  Uiso   1.00
H82    H     0.33385   0.21085   0.32274   0.00000  Uiso   1.00
H83    H     0.58803   0.19655   0.38343   0.00000  Uiso   1.00
H84    H     0.58729   0.19761   0.10613   0.00000  Uiso   1.00
H85    H     0.41271   0.13571   0.39387   0.00000  Uiso   1.00
H86    H     0.63707   0.21545   0.03441   0.00000  Uiso   1.00
H87    H     0.36295   0.11786   0.46559   0.00000  Uiso   1.00
H88    H     0.34590   0.23067   0.46492   0.00000  Uiso   1.00
H89    H     0.65414   0.10259   0.03508   0.00000  Uiso   1.00
H90    H     0.59039   0.31351   0.28790   0.00000  Uiso   1.00
N91    N     0.65011   0.15265   0.23783   0.00000  Uiso   1.00
N92    N     0.34989   0.18068   0.26217   0.00000  Uiso   1.00
N93    N     0.34376   0.11605   0.20965   0.00000  Uiso   1.00
N94    N     0.65624   0.21728   0.29035   0.00000  Uiso   1.00
O95    O     0.46308   0.24619   0.25298   0.00000  Uiso   1.00
O96    O     0.35119   0.11421   0.05491   0.00000  Uiso   1.00
O97    O     0.56684   0.00786   0.27839   0.00000  Uiso   1.00
O98    O     0.43317   0.32548   0.22161   0.00000  Uiso   1.00
O99    O     0.53692   0.08714   0.24702   0.00000  Uiso   1.00
O100   O     0.55946   0.23721   0.24518   0.00000  Uiso   1.00
O101   O     0.44054   0.09613   0.25482   0.00000  Uiso   1.00
O102   O     0.45181   0.17117   0.31997   0.00000  Uiso   1.00
O103   O     0.54819   0.16216   0.18002   0.00000  Uiso   1.00
O104   O     0.54819   0.16219   0.31217   0.00000  Uiso   1.00
O105   O     0.45181   0.17115   0.18782   0.00000  Uiso   1.00
O106   O     0.64883   0.21909   0.44509   0.00000  Uiso   1.00
Zn107  Zn    0.43565   0.17266   0.25521   0.00000  Uiso   1.00
Zn108  Zn    0.56435   0.16067   0.24479   0.00000  Uiso   1.00
C109   C     0.84824   0.26474   0.24977   0.00000  Uiso   1.00
C110   C     0.88358   0.18313   0.40424   0.00000  Uiso   1.00
C111   C     0.83277   0.16718   0.11564   0.00000  Uiso   1.00
C112   C     0.83390   0.16615   0.38436   0.00000  Uiso   1.00
C113   C     0.88247   0.18414   0.09002   0.00000  Uiso   1.00
C114   C     0.78420   0.14918   0.40998   0.00000  Uiso   1.00
C115   C     0.88292   0.18436   0.04379   0.00000  Uiso   1.00
C116   C     0.78376   0.14896   0.45621   0.00000  Uiso   1.00
C117   C     0.83303   0.16680   0.02327   0.00000  Uiso   1.00
C118   C     0.83364   0.16653   0.47673   0.00000  Uiso   1.00
C119   C     0.78262   0.14945   0.04938   0.00000  Uiso   1.00
C120   C     0.81843   0.06859   0.25024   0.00000  Uiso   1.00
C121   C     0.88406   0.18387   0.45062   0.00000  Uiso   1.00
C122   C     0.93252   0.20188   0.01805   0.00000  Uiso   1.00
C123   C     0.73416   0.13143   0.48195   0.00000  Uiso   1.00
C124   C     0.93361   0.20182   0.47119   0.00000  Uiso   1.00
C125   C     0.73307   0.13150   0.02881   0.00000  Uiso   1.00
C126   C     0.85470   0.31917   0.25597   0.00000  Uiso   1.00
C127   C     0.81197   0.01417   0.24403   0.00000  Uiso   1.00
C128   C     0.83358   0.16659   0.33654   0.00000  Uiso   1.00
C129   C     0.83309   0.16675   0.16346   0.00000  Uiso   1.00
C130   C     0.78309   0.15020   0.09576   0.00000  Uiso   1.00
H131   H     0.74530   0.13678   0.11657   0.00000  Uiso   1.00
H132   H     0.74294   0.01982   0.21211   0.00000  Uiso   1.00
H133   H     0.99146   0.07986   0.21855   0.00000  Uiso   1.00
H134   H     0.99951   0.12249   0.17726   0.00000  Uiso   1.00
H135   H     0.67519   0.25346   0.28144   0.00000  Uiso   1.00
H136   H     0.66718   0.21085   0.32274   0.00000  Uiso   1.00
H137   H     0.92137   0.19655   0.38343   0.00000  Uiso   1.00
H138   H     0.92063   0.19761   0.10613   0.00000  Uiso   1.00
H139   H     0.74604   0.13571   0.39387   0.00000  Uiso   1.00
H140   H     0.97040   0.21545   0.03441   0.00000  Uiso   1.00
H141   H     0.69628   0.11786   0.46559   0.00000  Uiso   1.00
H142   H     0.67923   0.23067   0.46492   0.00000  Uiso   1.00
H143   H     0.98747   0.10259   0.03508   0.00000  Uiso   1.00
H144   H     0.92372   0.31351   0.28790   0.00000  Uiso   1.00
N145   N     0.98344   0.15265   0.23783   0.00000  Uiso   1.00
N146   N     0.68322   0.18068   0.26217   0.00000  Uiso   1.00
N147   N     0.67709   0.11605   0.20965   0.00000  Uiso   1.00
N148   N     0.98957   0.21728   0.29035   0.00000  Uiso   1.00
O149   O     0.79642   0.24619   0.25298   0.00000  Uiso   1.00
O150   O     0.68452   0.11421   0.05491   0.00000  Uiso   1.00
O151   O     0.90017   0.00786   0.27839   0.00000  Uiso   1.00
O152   O     0.76650   0.32548   0.22161   0.00000  Uiso   1.00
O153   O     0.87025   0.08714   0.24702   0.00000  Uiso   1.00
O154   O     0.89280   0.23721   0.24518   0.00000  Uiso   1.00
O155   O     0.77387   0.09613   0.25482   0.00000  Uiso   1.00
O156   O     0.78514   0.17117   0.31997   0.00000  Uiso   1.00
O157   O     0.88153   0.16216   0.18002   0.00000  Uiso   1.00
O158   O     0.88152   0.16219   0.31217   0.00000  Uiso   1.00
O159   O     0.78515   0.17115   0.18782   0.00000  Uiso   1.00
O160   O     0.98216   0.21909   0.44509   0.00000  Uiso   1.00
Zn161  Zn    0.76898   0.17266   0.25521   0.00000  Uiso   1.00
Zn162  Zn    0.89769   0.16067   0.24479   0.00000  Uiso   1.00
C163   C     0.18157   0.59807   0.24977   0.00000  Uiso   1.00
C164   C     0.21692   0.51647   0.40424   0.00000  Uiso   1.00
C165   C     0.16611   0.50051   0.11564   0.00000  Uiso   1.00
C166   C     0.16723   0.49949   0.38436   0.00000  Uiso   1.00
C167   C     0.21581   0.51748   0.09002   0.00000  Uiso   1.00
C168   C     0.11753   0.48252   0.40998   0.00000  Uiso   1.00
C169   C     0.21625   0.51770   0.04379   0.00000  Uiso   1.00
C170   C     0.11709   0.48229   0.45621   0.00000  Uiso   1.00
C171   C     0.16636   0.50013   0.02327   0.00000  Uiso   1.00
C172   C     0.16698   0.49986   0.47673   0.00000  Uiso   1.00
C173   C     0.11595   0.48279   0.04938   0.00000  Uiso   1.00
C174   C     0.15176   0.40193   0.25024   0.00000  Uiso   1.00
C175   C     0.21739   0.51721   0.45062   0.00000  Uiso   1.00
C176   C     0.26585   0.53522   0.01805   0.00000  Uiso   1.00
C177   C     0.06749   0.46476   0.48195   0.00000  Uiso   1.00
C178   C     0.26694   0.53515   0.47119   0.00000  Uiso   1.00
C179   C     0.06640   0.46483   0.02881   0.00000  Uiso   1.00
C180   C     0.18803   0.65250   0.25597   0.00000  Uiso   1.00
C181   C     0.14531   0.34750   0.24403   0.00000  Uiso   1.00
C182   C     0.16691   0.49992   0.33654   0.00000  Uiso   1.00
C183   C     0.16642   0.50008   0.16346   0.00000  Uiso   1.00
C184   C     0.11642   0.48353   0.09576   0.00000  Uiso   1.00
H185   H     0.07864   0.47011   0.11657   0.00000  Uiso   1.00
H186   H     0.07627   0.35315   0.21211   0.00000  Uiso   1.00
H187   H     0.32480   0.41320   0.21855   0.00000  Uiso   1.00
H188   H     0.33285   0.45582   0.17726   0.00000  Uiso   1.00
H189   H     0.00852   0.58680   0.28144   0.00000  Uiso   1.00
H190   H     0.00052   0.54418   0.32274   0.00000  Uiso   1.00
H191   H     0.25470   0.52989   0.38343   0.00000  Uiso   1.00
H192   H     0.25396   0.53095   0.10613   0.00000  Uiso   1.00
H193   H     0.07938   0.46905   0.39387   0.00000  Uiso   1.00
H194   H     0.30373   0.54878   0.03441   0.00000  Uiso   1.00
H195   H     0.02961   0.45119   0.46559   0.00000  Uiso   1.00
H196   H     0.01257   0.56400   0.46492   0.00000  Uiso   1.00
H197   H     0.32080   0.43592   0.03508   0.00000  Uiso   1.00
H198   H     0.25705   0.64685   0.28790   0.00000  Uiso   1.00
N199   N     0.31678   0.48598   0.23783   0.00000  Uiso   1.00
N200   N     0.01656   0.51402   0.26217   0.00000  Uiso   1.00
N201   N     0.01043   0.44938   0.20965   0.00000  Uiso   1.00
N202   N     0.32291   0.55062   0.29035   0.00000  Uiso   1.00
O203   O     0.12975   0.57952   0.25298   0.00000  Uiso   1.00
O204   O     0.01786   0.44754   0.05491   0.00000  Uiso   1.00
O205   O     0.23351   0.34119   0.27839   0.00000  Uiso   1.00
O206   O     0.09983   0.65881   0.22161   0.00000  Uiso   1.00
O207   O     0.20358   0.42048   0.24702   0.00000  Uiso   1.00
O208   O     0.22613   0.57054   0.24518   0.00000  Uiso   1.00
O209   O     0.10720   0.42946   0.25482   0.00000  Uiso   1.00
O210   O     0.11847   0.50450   0.31997   0.00000  Uiso   1.00
O211   O     0.21486   0.49550   0.18002   0.00000  Uiso   1.00
O212   O     0.21485   0.49552   0.31217   0.00000  Uiso   1.00
O213   O     0.11848   0.50448   0.18782   0.00000  Uiso   1.00
O214   O     0.31549   0.55243   0.44509   0.00000  Uiso   1.00
Zn215  Zn    0.10231   0.50600   0.25521   0.00000  Uiso   1.00
Zn216  Zn    0.23102   0.49400   0.24479   0.00000  Uiso   1.00
C217   C     0.51490   0.59807   0.24977   0.00000  Uiso   1.00
C218   C     0.55025   0.51647   0.40424   0.00000  Uiso   1.00
C219   C     0.49944   0.50051   0.11564   0.00000  Uiso   1.00
C220   C     0.50056   0.49949   0.38436   0.00000  Uiso   1.00
C221   C     0.54914   0.51748   0.09002   0.00000  Uiso   1.00
C222   C     0.45086   0.48252   0.40998   0.00000  Uiso   1.00
C223   C     0.54958   0.51770   0.04379   0.00000  Uiso   1.00
C224   C     0.45042   0.48229   0.45621   0.00000  Uiso   1.00
C225   C     0.49969   0.50013   0.02327   0.00000  Uiso   1.00
C226   C     0.50031   0.49986   0.47673   0.00000  Uiso   1.00
C227   C     0.44928   0.48279   0.04938   0.00000  Uiso   1.00
C228   C     0.48510   0.40193   0.25024   0.00000  Uiso   1.00
C229   C     0.55072   0.51721   0.45062   0.00000  Uiso   1.00
C230   C     0.59919   0.53522   0.01805   0.00000  Uiso   1.00
C231   C     0.40082   0.46476   0.48195   0.00000  Uiso   1.00
C232   C     0.60027   0.53515   0.47119   0.00000  Uiso   1.00
C233   C     0.39974   0.46483   0.02881   0.00000  Uiso   1.00
C234   C     0.52136   0.65250   0.25597   0.00000  Uiso   1.00
C235   C     0.47864   0.34750   0.24403   0.00000  Uiso   1.00
C236   C     0.50024   0.49992   0.33654   0.00000  Uiso   1.00
C237   C     0.49976   0.50008   0.16346   0.00000  Uiso   1.00
C238   C     0.44975   0.48353   0.09576   0.00000  Uiso   1.00
H239   H     0.41197   0.47011   0.11657   0.00000  Uiso   1.00
H240   H     0.40961   0.35315   0.21211   0.00000  Uiso   1.00
H241   H     0.65813   0.41320   0.21855   0.00000  Uiso   1.00
H242   H     0.66618   0.45582   0.17726   0.00000  Uiso   1.00
H243   H     0.34185   0.58680   0.28144   0.00000  Uiso   1.00
H244   H     0.33385   0.54418   0.32274   0.00000  Uiso   1.00
H245   H     0.58803   0.52989   0.38343   0.00000  Uiso   1.00
H246   H     0.58729   0.53095   0.10613   0.00000  Uiso   1.00
H247   H     0.41271   0.46905   0.39387   0.00000  Uiso   1.00
H248   H     0.63707   0.54878   0.03441   0.00000  Uiso   1.00
H249   H     0.36295   0.45119   0.46559   0.00000  Uiso   1.00
H250   H     0.34590   0.56400   0.46492   0.00000  Uiso   1.00
H251   H     0.65414   0.43592   0.03508   0.00000  Uiso   1.00
H252   H     0.59039   0.64685   0.28790   0.00000  Uiso   1.00
N253   N     0.65011   0.48598   0.23783   0.00000  Uiso   1.00
N254   N     0.34989   0.51402   0.26217   0.00000  Uiso   1.00
N255   N     0.34376   0.44938   0.20965   0.00000  Uiso   1.00
N256   N     0.65624   0.55062   0.29035   0.00000  Uiso   1.00
O257   O     0.46308   0.57952   0.25298   0.00000  Uiso   1.00
O258   O     0.35119   0.44754   0.05491   0.00000  Uiso   1.00
O259   O     0.56684   0.34119   0.27839   0.00000  Uiso   1.00
O260   O     0.43317   0.65881   0.22161   0.00000  Uiso   1.00
O261   O     0.53692   0.42048   0.24702   0.00000  Uiso   1.00
O262   O     0.55946   0.57054   0.24518   0.00000  Uiso   1.00
O263   O     0.44054   0.42946   0.25482   0.00000  Uiso   1.00
O264   O     0.45181   0.50450   0.31997   0.00000  Uiso   1.00
O265   O     0.54819   0.49550   0.18002   0.00000  Uiso   1.00
O266   O     0.54819   0.49552   0.31217   0.00000  Uiso   1.00
O267   O     0.45181   0.50448   0.18782   0.00000  Uiso   1.00
O268   O     0.64883   0.55243   0.44509   0.00000  Uiso   1.00
Zn269  Zn    0.43565   0.50600   0.25521   0.00000  Uiso   1.00
Zn270  Zn    0.56435   0.49400   0.24479   0.00000  Uiso   1.00
C271   C     0.84824   0.59807   0.24977   0.00000  Uiso   1.00
C272   C     0.88358   0.51647   0.40424   0.00000  Uiso   1.00
C273   C     0.83277   0.50051   0.11564   0.00000  Uiso   1.00
C274   C     0.83390   0.49949   0.38436   0.00000  Uiso   1.00
C275   C     0.88247   0.51748   0.09002   0.00000  Uiso   1.00
C276   C     0.78420   0.48252   0.40998   0.00000  Uiso   1.00
C277   C     0.88292   0.51770   0.04379   0.00000  Uiso   1.00
C278   C     0.78376   0.48229   0.45621   0.00000  Uiso   1.00
C279   C     0.83303   0.50013   0.02327   0.00000  Uiso   1.00
C280   C     0.83364   0.49986   0.47673   0.00000  Uiso   1.00
C281   C     0.78262   0.48279   0.04938   0.00000  Uiso   1.00
C282   C     0.81843   0.40193   0.25024   0.00000  Uiso   1.00
C283   C     0.88406   0.51721   0.45062   0.00000  Uiso   1.00
C284   C     0.93252   0.53522   0.01805   0.00000  Uiso   1.00
C285   C     0.73416   0.46476   0.48195   0.00000  Uiso   1.00
C286   C     0.93361   0.53515   0.47119   0.00000  Uiso   1.00
C287   C     0.73307   0.46483   0.02881   0.00000  Uiso   1.00
C288   C     0.85470   0.65250   0.25597   0.00000  Uiso   1.00
C289   C     0.81197   0.34750   0.24403   0.00000  Uiso   1.00
C290   C     0.83358   0.49992   0.33654   0.00000  Uiso   1.00
C291   C     0.83309   0.50008   0.16346   0.00000  Uiso   1.00
C292   C     0.78309   0.48353   0.09576   0.00000  Uiso   1.00
H293   H     0.74530   0.47011   0.11657   0.00000  Uiso   1.00
H294   H     0.74294   0.35315   0.21211   0.00000  Uiso   1.00
H295   H     0.99146   0.41320   0.21855   0.00000  Uiso   1.00
H296   H     0.99951   0.45582   0.17726   0.00000  Uiso   1.00
H297   H     0.67519   0.58680   0.28144   0.00000  Uiso   1.00
H298   H     0.66718   0.54418   0.32274   0.00000  Uiso   1.00
H299   H     0.92137   0.52989   0.38343   0.00000  Uiso   1.00
H300   H     0.92063   0.53095   0.10613   0.00000  Uiso   1.00
H301   H     0.74604   0.46905   0.39387   0.00000  Uiso   1.00
H302   H     0.97040   0.54878   0.03441   0.00000  Uiso   1.00
H303   H     0.69628   0.45119   0.46559   0.00000  Uiso   1.00
H304   H     0.67923   0.56400   0.46492   0.00000  Uiso   1.00
H305   H     0.98747   0.43592   0.03508   0.00000  Uiso   1.00
H306   H     0.92372   0.64685   0.28790   0.00000  Uiso   1.00
N307   N     0.98344   0.48598   0.23783   0.00000  Uiso   1.00
N308   N     0.68322   0.51402   0.26217   0.00000  Uiso   1.00
N309   N     0.67709   0.44938   0.20965   0.00000  Uiso   1.00
N310   N     0.98957   0.55062   0.29035   0.00000  Uiso   1.00
O311   O     0.79642   0.57952   0.25298   0.00000  Uiso   1.00
O312   O     0.68452   0.44754   0.05491   0.00000  Uiso   1.00
O313   O     0.90017   0.34119   0.27839   0.00000  Uiso   1.00
O314   O     0.76650   0.65881   0.22161   0.00000  Uiso   1.00
O315   O     0.87025   0.42048   0.24702   0.00000  Uiso   1.00
O316   O     0.89280   0.57054   0.24518   0.00000  Uiso   1.00
O317   O     0.77387   0.42946   0.25482   0.00000  Uiso   1.00
O318   O     0.78514   0.50450   0.31997   0.00000  Uiso   1.00
O319   O     0.88153   0.49550   0.18002   0.00000  Uiso   1.00
O320   O     0.88152   0.49552   0.31217   0.00000  Uiso   1.00
O321   O     0.78515   0.50448   0.18782   0.00000  Uiso   1.00
O322   O     0.98216   0.55243   0.44509   0.00000  Uiso   1.00
Zn323  Zn    0.76898   0.50600   0.25521   0.00000  Uiso   1.00
Zn324  Zn    0.89769   0.49400   0.24479   0.00000  Uiso   1.00
C325   C     0.18157   0.93141   0.24977   0.00000  Uiso   1.00
C326   C     0.21692   0.84980   0.40424   0.00000  Uiso   1.00
C327   C     0.16611   0.83385   0.11564   0.00000  Uiso   1.00
C328   C     0.16723   0.83282   0.38436   0.00000  Uiso   1.00
C329   C     0.21581   0.85081   0.09002   0.00000  Uiso   1.00
C330   C     0.11753   0.81585   0.40998   0.00000  Uiso   1.00
C331   C     0.21625   0.85103   0.04379   0.00000  Uiso   1.00
C332   C     0.11709   0.81563   0.45621   0.00000  Uiso   1.00
C333   C     0.16636   0.83346   0.02327   0.00000  Uiso   1.00
C334   C     0.16698   0.83320   0.47673   0.00000  Uiso   1.00
C335   C     0.11595   0.81612   0.04938   0.00000  Uiso   1.00
C336   C     0.15176   0.73526   0.25024   0.00000  Uiso   1.00
C337   C     0.21739   0.85054   0.45062   0.00000  Uiso   1.00
C338   C     0.26585   0.86855   0.01805   0.00000  Uiso   1.00
C339   C     0.06749   0.79810   0.48195   0.00000  Uiso   1.00
C340   C     0.26694   0.86848   0.47119   0.00000  Uiso   1.00
C341   C     0.06640   0.79816   0.02881   0.00000  Uiso   1.00
C342   C     0.18803   0.98583   0.25597   0.00000  Uiso   1.00
C343   C     0.14531   0.68083   0.24403   0.00000  Uiso   1.00
C344   C     0.16691   0.83325   0.33654   0.00000  Uiso   1.00
C345   C     0.16642   0.83341   0.16346   0.00000  Uiso   1.00
C346   C     0.11642   0.81686   0.09576   0.00000  Uiso   1.00
H347   H     0.07864   0.80344   0.11657   0.00000  Uiso   1.00
H348   H     0.07627   0.68649   0.21211   0.00000  Uiso   1.00
H349   H     0.32480   0.74653   0.21855   0.00000  Uiso   1.00
H350   H     0.33285   0.78915   0.17726   0.00000  Uiso   1.00
H351   H     0.00852   0.92013   0.28144   0.00000  Uiso   1.00
H352   H     0.00052   0.87752   0.32274   0.00000  Uiso   1.00
H353   H     0.25470   0.86322   0.38343   0.00000  Uiso   1.00
H354   H     0.25396   0.86428   0.10613   0.00000  Uiso   1.00
H355   H     0.07938   0.80238   0.39387   0.00000  Uiso   1.00
H356   H     0.30373   0.88211   0.03441   0.00000  Uiso   1.00
H357   H     0.02961   0.78452   0.46559   0.00000  Uiso   1.00
H358   H     0.01257   0.89734   0.46492   0.00000  Uiso   1.00
H359   H     0.32080   0.76925   0.03508   0.00000  Uiso   1.00
H360   H     0.25705   0.98018   0.28790   0.00000  Uiso   1.00
N361   N     0.31678   0.81932   0.23783   0.00000  Uiso   1.00
N362   N     0.01656   0.84735   0.26217   0.00000  Uiso   1.00
N363   N     0.01043   0.78272   0.20965   0.00000  Uiso   1.00
N364   N     0.32291   0.88395   0.29035   0.00000  Uiso   1.00
O365   O     0.12975   0.91286   0.25298   0.00000  Uiso   1.00
O366   O     0.01786   0.78087   0.05491   0.00000  Uiso   1.00
O367   O     0.23351   0.67452   0.27839   0.00000  Uiso   1.00
O368   O     0.09983   0.99214   0.22161   0.00000  Uiso   1.00
O369   O     0.20358   0.75381   0.24702   0.00000  Uiso   1.00
O370   O     0.22613   0.90387   0.24518   0.00000  Uiso   1.00
O371   O     0.10720   0.76279   0.25482   0.00000  Uiso   1.00
O372   O     0.11847   0.83784   0.31997   0.00000  Uiso   1.00
O373   O     0.21486   0.82883   0.18002   0.00000  Uiso   1.00
O374   O     0.21485   0.82885   0.31217   0.00000  Uiso   1.00
O375   O     0.11848   0.83781   0.18782   0.00000  Uiso   1.00
O376   O     0.31549   0.88576   0.44509   0.00000  Uiso   1.00
Zn377  Zn    0.10231   0.83933   0.25521   0.00000  Uiso   1.00
Zn378  Zn    0.23102   0.82734   0.24479   0.00000  Uiso   1.00
C379   C     0.51490   0.93141   0.24977   0.00000  Uiso   1.00
C380   C     0.55025   0.84980   0.40424   0.00000  Uiso   1.00
C381   C     0.49944   0.83385   0.11564   0.00000  Uiso   1.00
C382   C     0.50056   0.83282   0.38436   0.00000  Uiso   1.00
C383   C     0.54914   0.85081   0.09002   0.00000  Uiso   1.00
C384   C     0.45086   0.81585   0.40998   0.00000  Uiso   1.00
C385   C     0.54958   0.85103   0.04379   0.00000  Uiso   1.00
C386   C     0.45042   0.81563   0.45621   0.00000  Uiso   1.00
C387   C     0.49969   0.83346   0.02327   0.00000  Uiso   1.00
C388   C     0.50031   0.83320   0.47673   0.00000  Uiso   1.00
C389   C     0.44928   0.81612   0.04938   0.00000  Uiso   1.00
C390   C     0.48510   0.73526   0.25024   0.00000  Uiso   1.00
C391   C     0.55072   0.85054   0.45062   0.00000  Uiso   1.00
C392   C     0.59919   0.86855   0.01805   0.00000  Uiso   1.00
C393   C     0.40082   0.79810   0.48195   0.00000  Uiso   1.00
C394   C     0.60027   0.86848   0.47119   0.00000  Uiso   1.00
C395   C     0.39974   0.79816   0.02881   0.00000  Uiso   1.00
C396   C     0.52136   0.98583   0.25597   0.00000  Uiso   1.00
C397   C     0.47864   0.68083   0.24403   0.00000  Uiso   1.00
C398   C     0.50024   0.83325   0.33654   0.00000  Uiso   1.00
C399   C     0.49976   0.83341   0.16346   0.00000  Uiso   1.00
C400   C     0.44975   0.81686   0.09576   0.00000  Uiso   1.00
H401   H     0.41197   0.80344   0.11657   0.00000  Uiso   1.00
H402   H     0.40961   0.68649   0.21211   0.00000  Uiso   1.00
H403   H     0.65813   0.74653   0.21855   0.00000  Uiso   1.00
H404   H     0.66618   0.78915   0.17726   0.00000  Uiso   1.00
H405   H     0.34185   0.92013   0.28144   0.00000  Uiso   1.00
H406   H     0.33385   0.87752   0.32274   0.00000  Uiso   1.00
H407   H     0.58803   0.86322   0.38343   0.00000  Uiso   1.00
H408   H     0.58729   0.86428   0.10613   0.00000  Uiso   1.00
H409   H     0.41271   0.80238   0.39387   0.00000  Uiso   1.00
H410   H     0.63707   0.88211   0.03441   0.00000  Uiso   1.00
H411   H     0.36295   0.78452   0.46559   0.00000  Uiso   1.00
H412   H     0.34590   0.89734   0.46492   0.00000  Uiso   1.00
H413   H     0.65414   0.76925   0.03508   0.00000  Uiso   1.00
H414   H     0.59039   0.98018   0.28790   0.00000  Uiso   1.00
N415   N     0.65011   0.81932   0.23783   0.00000  Uiso   1.00
N416   N     0.34989   0.84735   0.26217   0.00000  Uiso   1.00
N417   N     0.34376   0.78272   0.20965   0.00000  Uiso   1.00
N418   N     0.65624   0.88395   0.29035   0.00000  Uiso   1.00
O419   O     0.46308   0.91286   0.25298   0.00000  Uiso   1.00
O420   O     0.35119   0.78087   0.05491   0.00000  Uiso   1.00
O421   O     0.56684   0.67452   0.27839   0.00000  Uiso   1.00
O422   O     0.43317   0.99214   0.22161   0.00000  Uiso   1.00
O423   O     0.53692   0.75381   0.24702   0.00000  Uiso   1.00
O424   O     0.55946   0.90387   0.24518   0.00000  Uiso   1.00
O425   O     0.44054   0.76279   0.25482   0.00000  Uiso   1.00
O426   O     0.45181   0.83784   0.31997   0.00000  Uiso   1.00
O427   O     0.54819   0.82883   0.18002   0.00000  Uiso   1.00
O428   O     0.54819   0.82885   0.31217   0.00000  Uiso   1.00
O429   O     0.45181   0.83781   0.18782   0.00000  Uiso   1.00
O430   O     0.64883   0.88576   0.44509   0.00000  Uiso   1.00
Zn431  Zn    0.43565   0.83933   0.25521   0.00000  Uiso   1.00
Zn432  Zn    0.56435   0.82734   0.24479   0.00000  Uiso   1.00
C433   C     0.84824   0.93141   0.24977   0.00000  Uiso   1.00
C434   C     0.88358   0.84980   0.40424   0.00000  Uiso   1.00
C435   C     0.83277   0.83385   0.11564   0.00000  Uiso   1.00
C436   C     0.83390   0.83282   0.38436   0.00000  Uiso   1.00
C437   C     0.88247   0.85081   0.09002   0.00000  Uiso   1.00
C438   C     0.78420   0.81585   0.40998   0.00000  Uiso   1.00
C439   C     0.88292   0.85103   0.04379   0.00000  Uiso   1.00
C440   C     0.78376   0.81563   0.45621   0.00000  Uiso   1.00
C441   C     0.83303   0.83346   0.02327   0.00000  Uiso   1.00
C442   C     0.83364   0.83320   0.47673   0.00000  Uiso   1.00
C443   C     0.78262   0.81612   0.04938   0.00000  Uiso   1.00
C444   C     0.81843   0.73526   0.25024   0.00000  Uiso   1.00
C445   C     0.88406   0.85054   0.45062   0.00000  Uiso   1.00
C446   C     0.93252   0.86855   0.01805   0.00000  Uiso   1.00
C447   C     0.73416   0.79810   0.48195   0.00000  Uiso   1.00
C448   C     0.93361   0.86848   0.47119   0.00000  Uiso   1.00
C449   C     0.73307   0.79816   0.02881   0.00000  Uiso   1.00
C450   C     0.85470   0.98583   0.25597   0.00000  Uiso   1.00
C451   C     0.81197   0.68083   0.24403   0.00000  Uiso   1.00
C452   C     0.83358   0.83325   0.33654   0.00000  Uiso   1.00
C453   C     0.83309   0.83341   0.16346   0.00000  Uiso   1.00
C454   C     0.78309   0.81686   0.09576   0.00000  Uiso   1.00
H455   H     0.74530   0.80344   0.11657   0.00000  Uiso   1.00
H456   H     0.74294   0.68649   0.21211   0.00000  Uiso   1.00
H457   H     0.99146   0.74653   0.21855   0.00000  Uiso   1.00
H458   H     0.99951   0.78915   0.17726   0.00000  Uiso   1.00
H459   H     0.67519   0.92013   0.28144   0.00000  Uiso   1.00
H460   H     0.66718   0.87752   0.32274   0.00000  Uiso   1.00
H461   H     0.92137   0.86322   0.38343   0.00000  Uiso   1.00
H462   H     0.92063   0.86428   0.10613   0.00000  Uiso   1.00
H463   H     0.74604   0.80238   0.39387   0.00000  Uiso   1.00
H464   H     0.97040   0.88211   0.03441   0.00000  Uiso   1.00
H465   H     0.69628   0.78452   0.46559   0.00000  Uiso   1.00
H466   H     0.67923   0.89734   0.46492   0.00000  Uiso   1.00
H467   H     0.98747   0.76925   0.03508   0.00000  Uiso   1.00
H468   H     0.92372   0.98018   0.28790   0.00000  Uiso   1.00
N469   N     0.98344   0.81932   0.23783   0.00000  Uiso   1.00
N470   N     0.68322   0.84735   0.26217   0.00000  Uiso   1.00
N471   N     0.67709   0.78272   0.20965   0.00000  Uiso   1.00
N472   N     0.98957   0.88395   0.29035   0.00000  Uiso   1.00
O473   O     0.79642   0.91286   0.25298   0.00000  Uiso   1.00
O474   O     0.68452   0.78087   0.05491   0.00000  Uiso   1.00
O475   O     0.90017   0.67452   0.27839   0.00000  Uiso   1.00
O476   O     0.76650   0.99214   0.22161   0.00000  Uiso   1.00
O477   O     0.87025   0.75381   0.24702   0.00000  Uiso   1.00
O478   O     0.89280   0.90387   0.24518   0.00000  Uiso   1.00
O479   O     0.77387   0.76279   0.25482   0.00000  Uiso   1.00
O480   O     0.78514   0.83784   0.31997   0.00000  Uiso   1.00
O481   O     0.88153   0.82883   0.18002   0.00000  Uiso   1.00
O482   O     0.88152   0.82885   0.31217   0.00000  Uiso   1.00
O483   O     0.78515   0.83781   0.18782   0.00000  Uiso   1.00
O484   O     0.98216   0.88576   0.44509   0.00000  Uiso   1.00
Zn485  Zn    0.76898   0.83933   0.25521   0.00000  Uiso   1.00
Zn486  Zn    0.89769   0.82734   0.24479   0.00000  Uiso   1.00
C487   C     0.18157   0.26474   0.74977   0.00000  Uiso   1.00
C488   C     0.21692   0.18313   0.90424   0.00000  Uiso   1.00
C489   C     0.16611   0.16718   0.61564   0.00000  Uiso   1.00
C490   C     0.16723   0.16615   0.88436   0.00000  Uiso   1.00
C491   C     0.21581   0.18414   0.59002   0.00000  Uiso   1.00
C492   C     0.11753   0.14918   0.90998   0.00000  Uiso   1.00
C493   C     0.21625   0.18436   0.54379   0.00000  Uiso   1.00
C494   C     0.11709   0.14896   0.95621   0.00000  Uiso   1.00
C495   C     0.16636   0.16680   0.52327   0.00000  Uiso   1.00
C496   C     0.16698   0.16653   0.97673   0.00000  Uiso   1.00
C497   C     0.11595   0.14945   0.54938   0.00000  Uiso   1.00
C498   C     0.15176   0.06859   0.75024   0.00000  Uiso   1.00
C499   C     0.21739   0.18387   0.95062   0.00000  Uiso   1.00
C500   C     0.26585   0.20188   0.51805   0.00000  Uiso   1.00
C501   C     0.06749   0.13143   0.98195   0.00000  Uiso   1.00
C502   C     0.26694   0.20182   0.97119   0.00000  Uiso   1.00
C503   C     0.06640   0.13150   0.52881   0.00000  Uiso   1.00
C504   C     0.18803   0.31917   0.75597   0.00000  Uiso   1.00
C505   C     0.14531   0.01417   0.74403   0.00000  Uiso   1.00
C506   C     0.16691   0.16659   0.83654   0.00000  Uiso   1.00
C507   C     0.16642   0.16675   0.66346   0.00000  Uiso   1.00
C508   C     0.11642   0.15020   0.59576   0.00000  Uiso   1.00
H509   H     0.07864   0.13678   0.61657   0.00000  Uiso   1.00
H510   H     0.07627   0.01982   0.71211   0.00000  Uiso   1.00
H511   H     0.32480   0.07986   0.71855   0.00000  Uiso   1.00
H512   H     0.33285   0.12249   0.67726   0.00000  Uiso   1.00
H513   H     0.00852   0.25346   0.78144   0.00000  Uiso   1.00
H514   H     0.00052   0.21085   0.82274   0.00000  Uiso   1.00
H515   H     0.25470   0.19655   0.88343   0.00000  Uiso   1.00
H516   H     0.25396   0.19761   0.60613   0.00000  Uiso   1.00
H517   H     0.07938   0.13571   0.89387   0.00000  Uiso   1.00
H518   H     0.30373   0.21545   0.53441   0.00000  Uiso   1.00
H519   H     0.02961   0.11786   0.96559   0.00000  Uiso   1.00
H520   H     0.01257   0.23067   0.96492   0.00000  Uiso   1.00
H521   H     0.32080   0.10259   0.53508   0.00000  Uiso   1.00
H522   H     0.25705   0.31351   0.78790   0.00000  Uiso   1.00
N523   N     0.31678   0.15265   0.73783   0.00000  Uiso   1.00
N524   N     0.01656   0.18068   0.76217   0.00000  Uiso   1.00
N525   N     0.01043   0.11605   0.70965   0.00000  Uiso   1.00
N526   N     0.32291   0.21728   0.79035   0.00000  Uiso   1.00
O527   O     0.12975   0.24619   0.75298   0.00000  Uiso   1.00
O528   O     0.01786   0.11421   0.55491   0.00000  Uiso   1.00
O529   O     0.23351   0.00786   0.77839   0.00000  Uiso   1.00
O530   O     0.09983   0.32548   0.72161   0.00000  Uiso   1.00
O531   O     0.20358   0.08714   0.74702   0.00000  Uiso   1.00
O532   O     0.22613   0.23721   0.74518   0.00000  Uiso   1.00
O533   O     0.10720   0.09613   0.75482   0.00000  Uiso   1.00
O534   O     0.11847   0.17117   0.81997   0.00000  Uiso   1.00
O535   O     0.21486   0.16216   0.68002   0.00000  Uiso   1.00
O536   O     0.21485   0.16219   0.81217   0.00000  Uiso   1.00
O537   O     0.11848   0.17115   0.68782   0.00000  Uiso   1.00
O538   O     0.31549   0.21909   0.94509   0.00000  Uiso   1.00
Zn539  Zn    0.10231   0.17266   0.75521   0.00000  Uiso   1.00
Zn540  Zn    0.23102   0.16067   0.74479   0.00000  Uiso   1.00
C541   C     0.51490   0.26474   0.74977   0.00000  Uiso   1.00
C542   C     0.55025   0.18313   0.90424   0.00000  Uiso   1.00
C543   C     0.49944   0.16718   0.61564   0.00000  Uiso   1.00
C544   C     0.50056   0.16615   0.88436   0.00000  Uiso   1.00
C545   C     0.54914   0.18414   0.59002   0.00000  Uiso   1.00
C546   C     0.45086   0.14918   0.90998   0.00000  Uiso   1.00
C547   C     0.54958   0.18436   0.54379   0.00000  Uiso   1.00
C548   C     0.45042   0.14896   0.95621   0.00000  Uiso   1.00
C549   C     0.49969   0.16680   0.52327   0.00000  Uiso   1.00
C550   C     0.50031   0.16653   0.97673   0.00000  Uiso   1.00
C551   C     0.44928   0.14945   0.54938   0.00000  Uiso   1.00
C552   C     0.48510   0.06859   0.75024   0.00000  Uiso   1.00
C553   C     0.55072   0.18387   0.95062   0.00000  Uiso   1.00
C554   C     0.59919   0.20188   0.51805   0.00000  Uiso   1.00
C555   C     0.40082   0.13143   0.98195   0.00000  Uiso   1.00
C556   C     0.60027   0.20182   0.97119   0.00000  Uiso   1.00
C557   C     0.39974   0.13150   0.52881   0.00000  Uiso   1.00
C558   C     0.52136   0.31917   0.75597   0.00000  Uiso   1.00
C559   C     0.47864   0.01417   0.74403   0.00000  Uiso   1.00
C560   C     0.50024   0.16659   0.83654   0.00000  Uiso   1.00
C561   C     0.49976   0.16675   0.66346   0.00000  Uiso   1.00
C562   C     0.44975   0.15020   0.59576   0.00000  Uiso   1.00
H563   H     0.41197   0.13678   0.61657   0.00000  Uiso   1.00
H564   H     0.40961   0.01982   0.71211   0.00000  Uiso   1.00
H565   H     0.65813   0.07986   0.71855   0.00000  Uiso   1.00
H566   H     0.66618   0.12249   0.67726   0.00000  Uiso   1.00
H567   H     0.34185   0.25346   0.78144   0.00000  Uiso   1.00
H568   H     0.33385   0.21085   0.82274   0.00000  Uiso   1.00
H569   H     0.58803   0.19655   0.88343   0.00000  Uiso   1.00
H570   H     0.58729   0.19761   0.60613   0.00000  Uiso   1.00
H571   H     0.41271   0.13571   0.89387   0.00000  Uiso   1.00
H572   H     0.63707   0.21545   0.53441   0.00000  Uiso   1.00
H573   H     0.36295   0.11786   0.96559   0.00000  Uiso   1.00
H574   H     0.34590   0.23067   0.96492   0.00000  Uiso   1.00
H575   H     0.65414   0.10259   0.53508   0.00000  Uiso   1.00
H576   H     0.59039   0.31351   0.78790   0.00000  Uiso   1.00
N577   N     0.65011   0.15265   0.73783   0.00000  Uiso   1.00
N578   N     0.34989   0.18068   0.76217   0.00000  Uiso   1.00
N579   N     0.34376   0.11605   0.70965   0.00000  Uiso   1.00
N580   N     0.65624   0.21728   0.79035   0.00000  Uiso   1.00
O581   O     0.46308   0.24619   0.75298   0.00000  Uiso   1.00
O582   O     0.35119   0.11421   0.55491   0.00000  Uiso   1.00
O583   O     0.56684   0.00786   0.77839   0.00000  Uiso   1.00
O584   O     0.43317   0.32548   0.72161   0.00000  Uiso   1.00
O585   O     0.53692   0.08714   0.74702   0.00000  Uiso   1.00
O586   O     0.55946   0.23721   0.74518   0.00000  Uiso   1.00
O587   O     0.44054   0.09613   0.75482   0.00000  Uiso   1.00
O588   O     0.45181   0.17117   0.81997   0.00000  Uiso   1.00
O589   O     0.54819   0.16216   0.68002   0.00000  Uiso   1.00
O590   O     0.54819   0.16219   0.81217   0.00000  Uiso   1.00
O591   O     0.45181   0.17115   0.68782   0.00000  Uiso   1.00
O592   O     0.64883   0.21909   0.94509   0.00000  Uiso   1.00
Zn593  Zn    0.43565   0.17266   0.75521   0.00000  Uiso   1.00
Zn594  Zn    0.56435   0.16067   0.74479   0.00000  Uiso   1.00
C595   C     0.84824   0.26474   0.74977   0.00000  Uiso   1.00
C596   C     0.88358   0.18313   0.90424   0.00000  Uiso   1.00
C597   C     0.83277   0.16718   0.61564   0.00000  Uiso   1.00
C598   C     0.83390   0.16615   0.88436   0.00000  Uiso   1.00
C599   C     0.88247   0.18414   0.59002   0.00000  Uiso   1.00
C600   C     0.78420   0.14918   0.90998   0.00000  Uiso   1.00
C601   C     0.88292   0.18436   0.54379   0.00000  Uiso   1.00
C602   C     0.78376   0.14896   0.95621   0.00000  Uiso   1.00
C603   C     0.83303   0.16680   0.52327   0.00000  Uiso   1.00
C604   C     0.83364   0.16653   0.97673   0.00000  Uiso   1.00
C605   C     0.78262   0.14945   0.54938   0.00000  Uiso   1.00
C606   C     0.81843   0.06859   0.75024   0.00000  Uiso   1.00
C607   C     0.88406   0.18387   0.95062   0.00000  Uiso   1.00
C608   C     0.93252   0.20188   0.51805   0.00000  Uiso   1.00
C609   C     0.73416   0.13143   0.98195   0.00000  Uiso   1.00
C610   C     0.93361   0.20182   0.97119   0.00000  Uiso   1.00
C611   C     0.73307   0.13150   0.52881   0.00000  Uiso   1.00
C612   C     0.85470   0.31917   0.75597   0.00000  Uiso   1.00
C613   C     0.81197   0.01417   0.74403   0.00000  Uiso   1.00
C614   C     0.83358   0.16659   0.83654   0.00000  Uiso   1.00
C615   C     0.83309   0.16675   0.66346   0.00000  Uiso   1.00
C616   C     0.78309   0.15020   0.59576   0.00000  Uiso   1.00
H617   H     0.74530   0.13678   0.61657   0.00000  Uiso   1.00
H618   H     0.74294   0.01982   0.71211   0.00000  Uiso   1.00
H619   H     0.99146   0.07986   0.71855   0.00000  Uiso   1.00
H620   H     0.99951   0.12249   0.67726   0.00000  Uiso   1.00
H621   H     0.67519   0.25346   0.78144   0.00000  Uiso   1.00
H622   H     0.66718   0.21085   0.82274   0.00000  Uiso   1.00
H623   H     0.92137   0.19655   0.88343   0.00000  Uiso   1.00
H624   H     0.92063   0.19761   0.60613   0.00000  Uiso   1.00
H625   H     0.74604   0.13571   0.89387   0.00000  Uiso   1.00
H626   H     0.97040   0.21545   0.53441   0.00000  Uiso   1.00
H627   H     0.69628   0.11786   0.96559   0.00000  Uiso   1.00
H628   H     0.67923   0.23067   0.96492   0.00000  Uiso   1.00
H629   H     0.98747   0.10259   0.53508   0.00000  Uiso   1.00
H630   H     0.92372   0.31351   0.78790   0.00000  Uiso   1.00
N631   N     0.98344   0.15265   0.73783   0.00000  Uiso   1.00
N632   N     0.68322   0.18068   0.76217   0.00000  Uiso   1.00
N633   N     0.67709   0.11605   0.70965   0.00000  Uiso   1.00
N634   N     0.98957   0.21728   0.79035   0.00000  Uiso   1.00
O635   O     0.79642   0.24619   0.75298   0.00000  Uiso   1.00
O636   O     0.68452   0.11421   0.55491   0.00000  Uiso   1.00
O637   O     0.90017   0.00786   0.77839   0.00000  Uiso   1.00
O638   O     0.76650   0.32548   0.72161   0.00000  Uiso   1.00
O639   O     0.87025   0.08714   0.74702   0.00000  Uiso   1.00
O640   O     0.89280   0.23721   0.74518   0.00000  Uiso   1.00
O641   O     0.77387   0.09613   0.75482   0.00000  Uiso   1.00
O642   O     0.78514   0.17117   0.81997   0.00000  Uiso   1.00
O643   O     0.88153   0.16216   0.68002   0.00000  Uiso   1.00
O644   O     0.88152   0.16219   0.81217   0.00000  Uiso   1.00
O645   O     0.78515   0.17115   0.68782   0.00000  Uiso   1.00
O646   O     0.98216   0.21909   0.94509   0.00000  Uiso   1.00
Zn647  Zn    0.76898   0.17266   0.75521   0.00000  Uiso   1.00
Zn648  Zn    0.89769   0.16067   0.74479   0.00000  Uiso   1.00
C649   C     0.18157   0.59807   0.74977   0.00000  Uiso   1.00
C650   C     0.21692   0.51647   0.90424   0.00000  Uiso   1.00
C651   C     0.16611   0.50051   0.61564   0.00000  Uiso   1.00
C652   C     0.16723   0.49949   0.88436   0.00000  Uiso   1.00
C653   C     0.21581   0.51748   0.59002   0.00000  Uiso   1.00
C654   C     0.11753   0.48252   0.90998   0.00000  Uiso   1.00
C655   C     0.21625   0.51770   0.54379   0.00000  Uiso   1.00
C656   C     0.11709   0.48229   0.95621   0.00000  Uiso   1.00
C657   C     0.16636   0.50013   0.52327   0.00000  Uiso   1.00
C658   C     0.16698   0.49986   0.97673   0.00000  Uiso   1.00
C659   C     0.11595   0.48279   0.54938   0.00000  Uiso   1.00
C660   C     0.15176   0.40193   0.75024   0.00000  Uiso   1.00
C661   C     0.21739   0.51721   0.95062   0.00000  Uiso   1.00
C662   C     0.26585   0.53522   0.51805   0.00000  Uiso   1.00
C663   C     0.06749   0.46476   0.98195   0.00000  Uiso   1.00
C664   C     0.26694   0.53515   0.97119   0.00000  Uiso   1.00
C665   C     0.06640   0.46483   0.52881   0.00000  Uiso   1.00
C666   C     0.18803   0.65250   0.75597   0.00000  Uiso   1.00
C667   C     0.14531   0.34750   0.74403   0.00000  Uiso   1.00
C668   C     0.16691   0.49992   0.83654   0.00000  Uiso   1.00
C669   C     0.16642   0.50008   0.66346   0.00000  Uiso   1.00
C670   C     0.11642   0.48353   0.59576   0.00000  Uiso   1.00
H671   H     0.07864   0.47011   0.61657   0.00000  Uiso   1.00
H672   H     0.07627   0.35315   0.71211   0.00000  Uiso   1.00
H673   H     0.32480   0.41320   0.71855   0.00000  Uiso   1.00
H674   H     0.33285   0.45582   0.67726   0.00000  Uiso   1.00
H675   H     0.00852   0.58680   0.78144   0.00000  Uiso   1.00
H676   H     0.00052   0.54418   0.82274   0.00000  Uiso   1.00
H677   H     0.25470   0.52989   0.88343   0.00000  Uiso   1.00
H678   H     0.25396   0.53095   0.60613   0.00000  Uiso   1.00
H679   H     0.07938   0.46905   0.89387   0.00000  Uiso   1.00
H680   H     0.30373   0.54878   0.53441   0.00000  Uiso   1.00
H681   H     0.02961   0.45119   0.96559   0.00000  Uiso   1.00
H682   H     0.01257   0.56400   0.96492   0.00000  Uiso   1.00
H683   H     0.32080   0.43592   0.53508   0.00000  Uiso   1.00
H684   H     0.25705   0.64685   0.78790   0.00000  Uiso   1.00
N685   N     0.31678   0.48598   0.73783   0.00000  Uiso   1.00
N686   N     0.01656   0.51402   0.76217   0.00000  Uiso   1.00
N687   N     0.01043   0.44938   0.70965   0.00000  Uiso   1.00
N688   N     0.32291   0.55062   0.79035   0.00000  Uiso   1.00
O689   O     0.12975   0.57952   0.75298   0.00000  Uiso   1.00
O690   O     0.01786   0.44754   0.55491   0.00000  Uiso   1.00
O691   O     0.23351   0.34119   0.77839   0.00000  Uiso   1.00
O692   O     0.09983   0.65881   0.72161   0.00000  Uiso   1.00
O693   O     0.20358   0.42048   0.74702   0.00000  Uiso   1.00
O694   O     0.22613   0.57054   0.74518   0.00000  Uiso   1.00
O695   O     0.10720   0.42946   0.75482   0.00000  Uiso   1.00
O696   O     0.11847   0.50450   0.81997   0.00000  Uiso   1.00
O697   O     0.21486   0.49550   0.68002   0.00000  Uiso   1.00
O698   O     0.21485   0.49552   0.81217   0.00000  Uiso   1.00
O699   O     0.11848   0.50448   0.68782   0.00000  Uiso   1.00
O700   O     0.31549   0.55243   0.94509   0.00000  Uiso   1.00
Zn701  Zn    0.10231   0.50600   0.75521   0.00000  Uiso   1.00
Zn702  Zn    0.23102   0.49400   0.74479   0.00000  Uiso   1.00
C703   C     0.51490   0.59807   0.74977   0.00000  Uiso   1.00
C704   C     0.55025   0.51647   0.90424   0.00000  Uiso   1.00
C705   C     0.49944   0.50051   0.61564   0.00000  Uiso   1.00
C706   C     0.50056   0.49949   0.88436   0.00000  Uiso   1.00
C707   C     0.54914   0.51748   0.59002   0.00000  Uiso   1.00
C708   C     0.45086   0.48252   0.90998   0.00000  Uiso   1.00
C709   C     0.54958   0.51770   0.54379   0.00000  Uiso   1.00
C710   C     0.45042   0.48229   0.95621   0.00000  Uiso   1.00
C711   C     0.49969   0.50013   0.52327   0.00000  Uiso   1.00
C712   C     0.50031   0.49986   0.97673   0.00000  Uiso   1.00
C713   C     0.44928   0.48279   0.54938   0.00000  Uiso   1.00
C714   C     0.48510   0.40193   0.75024   0.00000  Uiso   1.00
C715   C     0.55072   0.51721   0.95062   0.00000  Uiso   1.00
C716   C     0.59919   0.53522   0.51805   0.00000  Uiso   1.00
C717   C     0.40082   0.46476   0.98195   0.00000  Uiso   1.00
C718   C     0.60027   0.53515   0.97119   0.00000  Uiso   1.00
C719   C     0.39974   0.46483   0.52881   0.00000  Uiso   1.00
C720   C     0.52136   0.65250   0.75597   0.00000  Uiso   1.00
C721   C     0.47864   0.34750   0.74403   0.00000  Uiso   1.00
C722   C     0.50024   0.49992   0.83654   0.00000  Uiso   1.00
C723   C     0.49976   0.50008   0.66346   0.00000  Uiso   1.00
C724   C     0.44975   0.48353   0.59576   0.00000  Uiso   1.00
H725   H     0.41197   0.47011   0.61657   0.00000  Uiso   1.00
H726   H     0.40961   0.35315   0.71211   0.00000  Uiso   1.00
H727   H     0.65813   0.41320   0.71855   0.00000  Uiso   1.00
H728   H     0.66618   0.45582   0.67726   0.00000  Uiso   1.00
H729   H     0.34185   0.58680   0.78144   0.00000  Uiso   1.00
H730   H     0.33385   0.54418   0.82274   0.00000  Uiso   1.00
H731   H     0.58803   0.52989   0.88343   0.00000  Uiso   1.00
H732   H     0.58729   0.53095   0.60613   0.00000  Uiso   1.00
H733   H     0.41271   0.46905   0.89387   0.00000  Uiso   1.00
H734   H     0.63707   0.54878   0.53441   0.00000  Uiso   1.00
H735   H     0.36295   0.45119   0.96559   0.00000  Uiso   1.00
H736   H     0.34590   0.56400   0.96492   0.00000  Uiso   1.00
H737   H     0.65414   0.43592   0.53508   0.00000  Uiso   1.00
H738   H     0.59039   0.64685   0.78790   0.00000  Uiso   1.00
N739   N     0.65011   0.48598   0.73783   0.00000  Uiso   1.00
N740   N     0.34989   0.51402   0.76217   0.00000  Uiso   1.00
N741   N     0.34376   0.44938   0.70965   0.00000  Uiso   1.00
N742   N     0.65624   0.55062   0.79035   0.00000  Uiso   1.00
O743   O     0.46308   0.57952   0.75298   0.00000  Uiso   1.00
O744   O     0.35119   0.44754   0.55491   0.00000  Uiso   1.00
O745   O     0.56684   0.34119   0.77839   0.00000  Uiso   1.00
O746   O     0.43317   0.65881   0.72161   0.00000  Uiso   1.00
O747   O     0.53692   0.42048   0.74702   0.00000  Uiso   1.00
O748   O     0.55946   0.57054   0.74518   0.00000  Uiso   1.00
O749   O     0.44054   0.42946   0.75482   0.00000  Uiso   1.00
O750   O     0.45181   0.50450   0.81997   0.00000  Uiso   1.00
O751   O     0.54819   0.49550   0.68002   0.00000  Uiso   1.00
O752   O     0.54819   0.49552   0.81217   0.00000  Uiso   1.00
O753   O     0.45181   0.50448   0.68782   0.00000  Uiso   1.00
O754   O     0.64883   0.55243   0.94509   0.00000  Uiso   1.00
Zn755  Zn    0.43565   0.50600   0.75521   0.00000  Uiso   1.00
Zn756  Zn    0.56435   0.49400   0.74479   0.00000  Uiso   1.00
C757   C     0.84824   0.59807   0.74977   0.00000  Uiso   1.00
C758   C     0.88358   0.51647   0.90424   0.00000  Uiso   1.00
C759   C     0.83277   0.50051   0.61564   0.00000  Uiso   1.00
C760   C     0.83390   0.49949   0.88436   0.00000  Uiso   1.00
C761   C     0.88247   0.51748   0.59002   0.00000  Uiso   1.00
C762   C     0.78420   0.48252   0.90998   0.00000  Uiso   1.00
C763   C     0.88292   0.51770   0.54379   0.00000  Uiso   1.00
C764   C     0.78376   0.48229   0.95621   0.00000  Uiso   1.00
C765   C     0.83303   0.50013   0.52327   0.00000  Uiso   1.00
C766   C     0.83364   0.49986   0.97673   0.00000  Uiso   1.00
C767   C     0.78262   0.48279   0.54938   0.00000  Uiso   1.00
C768   C     0.81843   0.40193   0.75024   0.00000  Uiso   1.00
C769   C     0.88406   0.51721   0.95062   0.00000  Uiso   1.00
C770   C     0.93252   0.53522   0.51805   0.00000  Uiso   1.00
C771   C     0.73416   0.46476   0.98195   0.00000  Uiso   1.00
C772   C     0.93361   0.53515   0.97119   0.00000  Uiso   1.00
C773   C     0.73307   0.46483   0.52881   0.00000  Uiso   1.00
C774   C     0.85470   0.65250   0.75597   0.00000  Uiso   1.00
C775   C     0.81197   0.34750   0.74403   0.00000  Uiso   1.00
C776   C     0.83358   0.49992   0.83654   0.00000  Uiso   1.00
C777   C     0.83309   0.50008   0.66346   0.00000  Uiso   1.00
C778   C     0.78309   0.48353   0.59576   0.00000  Uiso   1.00
H779   H     0.74530   0.47011   0.61657   0.00000  Uiso   1.00
H780   H     0.74294   0.35315   0.71211   0.00000  Uiso   1.00
H781   H     0.99146   0.41320   0.71855   0.00000  Uiso   1.00
H782   H     0.99951   0.45582   0.67726   0.00000  Uiso   1.00
H783   H     0.67519   0.58680   0.78144   0.00000  Uiso   1.00
H784   H     0.66718   0.54418   0.82274   0.00000  Uiso   1.00
H785   H     0.92137   0.52989   0.88343   0.00000  Uiso   1.00
H786   H     0.92063   0.53095   0.60613   0.00000  Uiso   1.00
H787   H     0.74604   0.46905   0.89387   0.00000  Uiso   1.00
H788   H     0.97040   0.54878   0.53441   0.00000  Uiso   1.00
H789   H     0.69628   0.45119   0.96559   0.00000  Uiso   1.00
H790   H     0.67923   0.56400   0.96492   0.00000  Uiso   1.00
H791   H     0.98747   0.43592   0.53508   0.00000  Uiso   1.00
H792   H     0.92372   0.64685   0.78790   0.00000  Uiso   1.00
N793   N     0.98344   0.48598   0.73783   0.00000  Uiso   1.00
N794   N     0.68322   0.51402   0.76217   0.00000  Uiso   1.00
N795   N     0.67709   0.44938   0.70965   0.00000  Uiso   1.00
N796   N     0.98957   0.55062   0.79035   0.00000  Uiso   1.00
O797   O     0.79642   0.57952   0.75298   0.00000  Uiso   1.00
O798   O     0.68452   0.44754   0.55491   0.00000  Uiso   1.00
O799   O     0.90017   0.34119   0.77839   0.00000  Uiso   1.00
O800   O     0.76650   0.65881   0.72161   0.00000  Uiso   1.00
O801   O     0.87025   0.42048   0.74702   0.00000  Uiso   1.00
O802   O     0.89280   0.57054   0.74518   0.00000  Uiso   1.00
O803   O     0.77387   0.42946   0.75482   0.00000  Uiso   1.00
O804   O     0.78514   0.50450   0.81997   0.00000  Uiso   1.00
O805   O     0.88153   0.49550   0.68002   0.00000  Uiso   1.00
O806   O     0.88152   0.49552   0.81217   0.00000  Uiso   1.00
O807   O     0.78515   0.50448   0.68782   0.00000  Uiso   1.00
O808   O     0.98216   0.55243   0.94509   0.00000  Uiso   1.00
Zn809  Zn    0.76898   0.50600   0.75521   0.00000  Uiso   1.00
Zn810  Zn    0.89769   0.49400   0.74479   0.00000  Uiso   1.00
C811   C     0.18157   0.93141   0.74977   0.00000  Uiso   1.00
C812   C     0.21692   0.84980   0.90424   0.00000  Uiso   1.00
C813   C     0.16611   0.83385   0.61564   0.00000  Uiso   1.00
C814   C     0.16723   0.83282   0.88436   0.00000  Uiso   1.00
C815   C     0.21581   0.85081   0.59002   0.00000  Uiso   1.00
C816   C     0.11753   0.81585   0.90998   0.00000  Uiso   1.00
C817   C     0.21625   0.85103   0.54379   0.00000  Uiso   1.00
C818   C     0.11709   0.81563   0.95621   0.00000  Uiso   1.00
C819   C     0.16636   0.83346   0.52327   0.00000  Uiso   1.00
C820   C     0.16698   0.83320   0.97673   0.00000  Uiso   1.00
C821   C     0.11595   0.81612   0.54938   0.00000  Uiso   1.00
C822   C     0.15176   0.73526   0.75024   0.00000  Uiso   1.00
C823   C     0.21739   0.85054   0.95062   0.00000  Uiso   1.00
C824   C     0.26585   0.86855   0.51805   0.00000  Uiso   1.00
C825   C     0.06749   0.79810   0.98195   0.00000  Uiso   1.00
C826   C     0.26694   0.86848   0.97119   0.00000  Uiso   1.00
C827   C     0.06640   0.79816   0.52881   0.00000  Uiso   1.00
C828   C     0.18803   0.98583   0.75597   0.00000  Uiso   1.00
C829   C     0.14531   0.68083   0.74403   0.00000  Uiso   1.00
C830   C     0.16691   0.83325   0.83654   0.00000  Uiso   1.00
C831   C     0.16642   0.83341   0.66346   0.00000  Uiso   1.00
C832   C     0.11642   0.81686   0.59576   0.00000  Uiso   1.00
H833   H     0.07864   0.80344   0.61657   0.00000  Uiso   1.00
H834   H     0.07627   0.68649   0.71211   0.00000  Uiso   1.00
H835   H     0.32480   0.74653   0.71855   0.00000  Uiso   1.00
H836   H     0.33285   0.78915   0.67726   0.00000  Uiso   1.00
H837   H     0.00852   0.92013   0.78144   0.00000  Uiso   1.00
H838   H     0.00052   0.87752   0.82274   0.00000  Uiso   1.00
H839   H     0.25470   0.86322   0.88343   0.00000  Uiso   1.00
H840   H     0.25396   0.86428   0.60613   0.00000  Uiso   1.00
H841   H     0.07938   0.80238   0.89387   0.00000  Uiso   1.00
H842   H     0.30373   0.88211   0.53441   0.00000  Uiso   1.00
H843   H     0.02961   0.78452   0.96559   0.00000  Uiso   1.00
H844   H     0.01257   0.89734   0.96492   0.00000  Uiso   1.00
H845   H     0.32080   0.76925   0.53508   0.00000  Uiso   1.00
H846   H     0.25705   0.98018   0.78790   0.00000  Uiso   1.00
N847   N     0.31678   0.81932   0.73783   0.00000  Uiso   1.00
N848   N     0.01656   0.84735   0.76217   0.00000  Uiso   1.00
N849   N     0.01043   0.78272   0.70965   0.00000  Uiso   1.00
N850   N     0.32291   0.88395   0.79035   0.00000  Uiso   1.00
O851   O     0.12975   0.91286   0.75298   0.00000  Uiso   1.00
O852   O     0.01786   0.78087   0.55491   0.00000  Uiso   1.00
O853   O     0.23351   0.67452   0.77839   0.00000  Uiso   1.00
O854   O     0.09983   0.99214   0.72161   0.00000  Uiso   1.00
O855   O     0.20358   0.75381   0.74702   0.00000  Uiso   1.00
O856   O     0.22613   0.90387   0.74518   0.00000  Uiso   1.00
O857   O     0.10720   0.76279   0.75482   0.00000  Uiso   1.00
O858   O     0.11847   0.83784   0.81997   0.00000  Uiso   1.00
O859   O     0.21486   0.82883   0.68002   0.00000  Uiso   1.00
O860   O     0.21485   0.82885   0.81217   0.00000  Uiso   1.00
O861   O     0.11848   0.83781   0.68782   0.00000  Uiso   1.00
O862   O     0.31549   0.88576   0.94509   0.00000  Uiso   1.00
Zn863  Zn    0.10231   0.83933   0.75521   0.00000  Uiso   1.00
Zn864  Zn    0.23102   0.82734   0.74479   0.00000  Uiso   1.00
C865   C     0.51490   0.93141   0.74977   0.00000  Uiso   1.00
C866   C     0.55025   0.84980   0.90424   0.00000  Uiso   1.00
C867   C     0.49944   0.83385   0.61564   0.00000  Uiso   1.00
C868   C     0.50056   0.83282   0.88436   0.00000  Uiso   1.00
C869   C     0.54914   0.85081   0.59002   0.00000  Uiso   1.00
C870   C     0.45086   0.81585   0.90998   0.00000  Uiso   1.00
C871   C     0.54958   0.85103   0.54379   0.00000  Uiso   1.00
C872   C     0.45042   0.81563   0.95621   0.00000  Uiso   1.00
C873   C     0.49969   0.83346   0.52327   0.00000  Uiso   1.00
C874   C     0.50031   0.83320   0.97673   0.00000  Uiso   1.00
C875   C     0.44928   0.81612   0.54938   0.00000  Uiso   1.00
C876   C     0.48510   0.73526   0.75024   0.00000  Uiso   1.00
C877   C     0.55072   0.85054   0.95062   0.00000  Uiso   1.00
C878   C     0.59919   0.86855   0.51805   0.00000  Uiso   1.00
C879   C     0.40082   0.79810   0.98195   0.00000  Uiso   1.00
C880   C     0.60027   0.86848   0.97119   0.00000  Uiso   1.00
C881   C     0.39974   0.79816   0.52881   0.00000  Uiso   1.00
C882   C     0.52136   0.98583   0.75597   0.00000  Uiso   1.00
C883   C     0.47864   0.68083   0.74403   0.00000  Uiso   1.00
C884   C     0.50024   0.83325   0.83654   0.00000  Uiso   1.00
C885   C     0.49976   0.83341   0.66346   0.00000  Uiso   1.00
C886   C     0.44975   0.81686   0.59576   0.00000  Uiso   1.00
H887   H     0.41197   0.80344   0.61657   0.00000  Uiso   1.00
H888   H     0.40961   0.68649   0.71211   0.00000  Uiso   1.00
H889   H     0.65813   0.74653   0.71855   0.00000  Uiso   1.00
H890   H     0.66618   0.78915   0.67726   0.00000  Uiso   1.00
H891   H     0.34185   0.92013   0.78144   0.00000  Uiso   1.00
H892   H     0.33385   0.87752   0.82274   0.00000  Uiso   1.00
H893   H     0.58803   0.86322   0.88343   0.00000  Uiso   1.00
H894   H     0.58729   0.86428   0.60613   0.00000  Uiso   1.00
H895   H     0.41271   0.80238   0.89387   0.00000  Uiso   1.00
H896   H     0.63707   0.88211   0.53441   0.00000  Uiso   1.00
H897   H     0.36295   0.78452   0.96559   0.00000  Uiso   1.00
H898   H     0.34590   0.89734   0.96492   0.00000  Uiso   1.00
H899   H     0.65414   0.76925   0.53508   0.00000  Uiso   1.00
H900   H     0.59039   0.98018   0.78790   0.00000  Uiso   1.00
N901   N     0.65011   0.81932   0.73783   0.00000  Uiso   1.00
N902   N     0.34989   0.84735   0.76217   0.00000  Uiso   1.00
N903   N     0.34376   0.78272   0.70965   0.00000  Uiso   1.00
N904   N     0.65624   0.88395   0.79035   0.00000  Uiso   1.00
O905   O     0.46308   0.91286   0.75298   0.00000  Uiso   1.00
O906   O     0.35119   0.78087   0.55491   0.00000  Uiso   1.00
O907   O     0.56684   0.67452   0.77839   0.00000  Uiso   1.00
O908   O     0.43317   0.99214   0.72161   0.00000  Uiso   1.00
O909   O     0.53692   0.75381   0.74702   0.00000  Uiso   1.00
O910   O     0.55946   0.90387   0.74518   0.00000  Uiso   1.00
O911   O     0.44054   0.76279   0.75482   0.00000  Uiso   1.00
O912   O     0.45181   0.83784   0.81997   0.00000  Uiso   1.00
O913   O     0.54819   0.82883   0.68002   0.00000  Uiso   1.00
O914   O     0.54819   0.82885   0.81217   0.00000  Uiso   1.00
O915   O     0.45181   0.83781   0.68782   0.00000  Uiso   1.00
O916   O     0.64883   0.88576   0.94509   0.00000  Uiso   1.00
Zn917  Zn    0.43565   0.83933   0.75521   0.00000  Uiso   1.00
Zn918  Zn    0.56435   0.82734   0.74479   0.00000  Uiso   1.00
C919   C     0.84824   0.93141   0.74977   0.00000  Uiso   1.00
C920   C     0.88358   0.84980   0.90424   0.00000  Uiso   1.00
C921   C     0.83277   0.83385   0.61564   0.00000  Uiso   1.00
C922   C     0.83390   0.83282   0.88436   0.00000  Uiso   1.00
C923   C     0.88247   0.85081   0.59002   0.00000  Uiso   1.00
C924   C     0.78420   0.81585   0.90998   0.00000  Uiso   1.00
C925   C     0.88292   0.85103   0.54379   0.00000  Uiso   1.00
C926   C     0.78376   0.81563   0.95621   0.00000  Uiso   1.00
C927   C     0.83303   0.83346   0.52327   0.00000  Uiso   1.00
C928   C     0.83364   0.83320   0.97673   0.00000  Uiso   1.00
C929   C     0.78262   0.81612   0.54938   0.00000  Uiso   1.00
C930   C     0.81843   0.73526   0.75024   0.00000  Uiso   1.00
C931   C     0.88406   0.85054   0.95062   0.00000  Uiso   1.00
C932   C     0.93252   0.86855   0.51805   0.00000  Uiso   1.00
C933   C     0.73416   0.79810   0.98195   0.00000  Uiso   1.00
C934   C     0.93361   0.86848   0.97119   0.00000  Uiso   1.00
C935   C     0.73307   0.79816   0.52881   0.00000  Uiso   1.00
C936   C     0.85470   0.98583   0.75597   0.00000  Uiso   1.00
C937   C     0.81197   0.68083   0.74403   0.00000  Uiso   1.00
C938   C     0.83358   0.83325   0.83654   0.00000  Uiso   1.00
C939   C     0.83309   0.83341   0.66346   0.00000  Uiso   1.00
C940   C     0.78309   0.81686   0.59576   0.00000  Uiso   1.00
H941   H     0.74530   0.80344   0.61657   0.00000  Uiso   1.00
H942   H     0.74294   0.68649   0.71211   0.00000  Uiso   1.00
H943   H     0.99146   0.74653   0.71855   0.00000  Uiso   1.00
H944   H     0.99951   0.78915   0.67726   0.00000  Uiso   1.00
H945   H     0.67519   0.92013   0.78144   0.00000  Uiso   1.00
H946   H     0.66718   0.87752   0.82274   0.00000  Uiso   1.00
H947   H     0.92137   0.86322   0.88343   0.00000  Uiso   1.00
H948   H     0.92063   0.86428   0.60613   0.00000  Uiso   1.00
H949   H     0.74604   0.80238   0.89387   0.00000  Uiso   1.00
H950   H     0.97040   0.88211   0.53441   0.00000  Uiso   1.00
H951   H     0.69628   0.78452   0.96559   0.00000  Uiso   1.00
H952   H     0.67923   0.89734   0.96492   0.00000  Uiso   1.00
H953   H     0.98747   0.76925   0.53508   0.00000  Uiso   1.00
H954   H     0.92372   0.98018   0.78790   0.00000  Uiso   1.00
N955   N     0.98344   0.81932   0.73783   0.00000  Uiso   1.00
N956   N     0.68322   0.84735   0.76217   0.00000  Uiso   1.00
N957   N     0.67709   0.78272   0.70965   0.00000  Uiso   1.00
N958   N     0.98957   0.88395   0.79035   0.00000  Uiso   1.00
O959   O     0.79642   0.91286   0.75298   0.00000  Uiso   1.00
O960   O     0.68452   0.78087   0.55491   0.00000  Uiso   1.00
O961   O     0.90017   0.67452   0.77839   0.00000  Uiso   1.00
O962   O     0.76650   0.99214   0.72161   0.00000  Uiso   1.00
O963   O     0.87025   0.75381   0.74702   0.00000  Uiso   1.00
O964   O     0.89280   0.90387   0.74518   0.00000  Uiso   1.00
O965   O     0.77387   0.76279   0.75482   0.00000  Uiso   1.00
O966   O     0.78514   0.83784   0.81997   0.00000  Uiso   1.00
O967   O     0.88153   0.82883   0.68002   0.00000  Uiso   1.00
O968   O     0.88152   0.82885   0.81217   0.00000  Uiso   1.00
O969   O     0.78515   0.83781   0.68782   0.00000  Uiso   1.00
O970   O     0.98216   0.88576   0.94509   0.00000  Uiso   1.00
Zn971  Zn    0.76898   0.83933   0.75521   0.00000  Uiso   1.00
Zn972  Zn    0.89769   0.82734   0.74479   0.00000  Uiso   1.00
loop_
_geom_bond_atom_site_label_1
_geom_bond_atom_site_label_2
_geom_bond_distance
_geom_bond_site_symmetry_2
_ccdc_geom_bond_type
C1     C18     1.411   .     S
C1     O46     1.289   .     A
C1     O41     1.275   .     A
C2     C4      1.393   .     A
C2     H29     1.083   .     S
C2     C13     1.387   .     A
C3     C21     1.431   .     S
C3     C5      1.394   .     A
C3     C22     1.393   .     A
C4     C6      1.394   .     A
C4     C20     1.431   .     S
C5     C7      1.381   .     A
C5     H30     1.085   .     S
C6     H31     1.085   .     S
C6     C8      1.381   .     A
C7     C9      1.411   .     A
C7     C14     1.398   .     A
C8     C15     1.398   .     A
C8     C10     1.411   .     A
C9     C11     1.416   .     A
C9     C496    1.390   1_554 S
C10    C13     1.416   .     A
C10    C495    1.390   .     S
C11    C22     1.387   .     A
C11    C17     1.407   .     A
C12    C19     1.411   .     S
C12    O47     1.289   .     A
C12    O45     1.275   .     A
C13    C16     1.407   .     A
C14    H32     1.084   .     S
C14    C502    1.399   1_554 S
C15    H33     1.084   .     S
C15    C503    1.399   .     S
C16    O52     1.383   .     S
C16    C500    1.399   .     S
C17    O42     1.383   .     S
C17    C501    1.399   1_554 S
C18    C181    1.352   .     S
C18    O205    1.391   .     S
C19    C342    1.352   1_545 S
C19    O368    1.391   1_545 S
C20    O48     1.289   .     A
C20    O50     1.291   .     A
C21    O49     1.289   .     A
C21    O51     1.291   .     A
C22    H23     1.083   .     S
H24    O368    0.991   1_545 S
H25    N93     1.045   .     S
H26    N93     1.044   .     S
H27    N148    1.044   1_455 S
H28    N148    1.044   1_455 S
H34    O160    0.992   1_455 S
H35    O96     0.992   .     S
H36    O205    0.991   .     S
N37    Zn54    2.021   .     S
N37    N92     1.285   .     S
N37    N93     1.384   .     S
N38    Zn53    2.021   .     S
N38    N145    1.285   1_455 S
N38    N148    1.384   1_455 S
N39    N145    1.384   1_455 S
N39    H133    1.045   1_455 S
N39    H134    1.044   1_455 S
N40    H82     1.044   .     S
N40    N92     1.384   .     S
N40    H81     1.044   .     S
O41    Zn53    1.971   .     S
O42    H143    0.992   1_455 S
O43    H360    0.991   1_545 S
O43    C342    1.391   1_545 S
O44    H186    0.991   .     S
O44    C181    1.391   .     S
O45    Zn54    1.971   .     S
O46    Zn54    1.985   .     S
O47    Zn53    1.985   .     S
O48    Zn53    2.007   .     S
O49    Zn54    2.007   .     S
O50    Zn54    2.016   .     S
O51    Zn53    2.016   .     S
O52    H88     0.992   .     S
C55    C72     1.411   .     S
C55    O100    1.289   .     A
C55    O95     1.275   .     A
C56    C58     1.393   .     A
C56    H83     1.083   .     S
C56    C67     1.387   .     A
C57    C75     1.431   .     S
C57    C59     1.394   .     A
C57    C76     1.393   .     A
C58    C60     1.394   .     A
C58    C74     1.431   .     S
C59    C61     1.381   .     A
C59    H84     1.085   .     S
C60    H85     1.085   .     S
C60    C62     1.381   .     A
C61    C63     1.411   .     A
C61    C68     1.398   .     A
C62    C69     1.398   .     A
C62    C64     1.411   .     A
C63    C65     1.416   .     A
C63    C550    1.390   1_554 S
C64    C67     1.416   .     A
C64    C549    1.390   .     S
C65    C76     1.387   .     A
C65    C71     1.407   .     A
C66    C73     1.411   .     S
C66    O101    1.289   .     A
C66    O99     1.275   .     A
C67    C70     1.407   .     A
C68    H86     1.084   .     S
C68    C556    1.399   1_554 S
C69    H87     1.084   .     S
C69    C557    1.399   .     S
C70    O106    1.383   .     S
C70    C554    1.399   .     S
C71    O96     1.383   .     S
C71    C555    1.399   1_554 S
C72    C235    1.352   .     S
C72    O259    1.391   .     S
C73    C396    1.352   1_545 S
C73    O422    1.391   1_545 S
C74    O102    1.289   .     A
C74    O104    1.291   .     A
C75    O103    1.289   .     A
C75    O105    1.291   .     A
C76    H77     1.083   .     S
H78    O422    0.991   1_545 S
H79    N147    1.045   .     S
H80    N147    1.044   .     S
H89    O150    0.992   .     S
H90    O259    0.991   .     S
N91    Zn108   2.021   .     S
N91    N146    1.285   .     S
N91    N147    1.384   .     S
N92    Zn107   2.021   .     S
N94    H136    1.044   .     S
N94    N146    1.384   .     S
N94    H135    1.044   .     S
O95    Zn107   1.971   .     S
O97    H414    0.991   1_545 S
O97    C396    1.391   1_545 S
O98    H240    0.991   .     S
O98    C235    1.391   .     S
O99    Zn108   1.971   .     S
O100   Zn108   1.985   .     S
O101   Zn107   1.985   .     S
O102   Zn107   2.007   .     S
O103   Zn108   2.007   .     S
O104   Zn108   2.016   .     S
O105   Zn107   2.016   .     S
O106   H142    0.992   .     S
C109   C126    1.411   .     S
C109   O154    1.289   .     A
C109   O149    1.275   .     A
C110   C112    1.393   .     A
C110   H137    1.083   .     S
C110   C121    1.387   .     A
C111   C129    1.431   .     S
C111   C113    1.394   .     A
C111   C130    1.393   .     A
C112   C114    1.394   .     A
C112   C128    1.431   .     S
C113   C115    1.381   .     A
C113   H138    1.085   .     S
C114   H139    1.085   .     S
C114   C116    1.381   .     A
C115   C117    1.411   .     A
C115   C122    1.398   .     A
C116   C123    1.398   .     A
C116   C118    1.411   .     A
C117   C119    1.416   .     A
C117   C604    1.390   1_554 S
C118   C121    1.416   .     A
C118   C603    1.390   .     S
C119   C130    1.387   .     A
C119   C125    1.407   .     A
C120   C127    1.411   .     S
C120   O155    1.289   .     A
C120   O153    1.275   .     A
C121   C124    1.407   .     A
C122   H140    1.084   .     S
C122   C610    1.399   1_554 S
C123   H141    1.084   .     S
C123   C611    1.399   .     S
C124   O160    1.383   .     S
C124   C608    1.399   .     S
C125   O150    1.383   .     S
C125   C609    1.399   1_554 S
C126   C289    1.352   .     S
C126   O313    1.391   .     S
C127   C450    1.352   1_545 S
C127   O476    1.391   1_545 S
C128   O156    1.289   .     A
C128   O158    1.291   .     A
C129   O157    1.289   .     A
C129   O159    1.291   .     A
C130   H131    1.083   .     S
H132   O476    0.991   1_545 S
H133   N39     1.045   1_655 S
H134   N39     1.044   1_655 S
H143   O42     0.992   1_655 S
H144   O313    0.991   .     S
N145   Zn162   2.021   .     S
N145   N38     1.285   1_655 S
N145   N39     1.384   1_655 S
N146   Zn161   2.021   .     S
N148   H28     1.044   1_655 S
N148   N38     1.384   1_655 S
N148   H27     1.044   1_655 S
O149   Zn161   1.971   .     S
O151   H468    0.991   1_545 S
O151   C450    1.391   1_545 S
O152   H294    0.991   .     S
O152   C289    1.391   .     S
O153   Zn162   1.971   .     S
O154   Zn162   1.985   .     S
O155   Zn161   1.985   .     S
O156   Zn161   2.007   .     S
O157   Zn162   2.007   .     S
O158   Zn162   2.016   .     S
O159   Zn161   2.016   .     S
O160   H34     0.992   1_655 S
C163   C180    1.411   .     S
C163   O208    1.289   .     A
C163   O203    1.275   .     A
C164   C166    1.393   .     A
C164   H191    1.083   .     S
C164   C175    1.387   .     A
C165   C183    1.431   .     S
C165   C167    1.394   .     A
C165   C184    1.393   .     A
C166   C168    1.394   .     A
C166   C182    1.431   .     S
C167   C169    1.381   .     A
C167   H192    1.085   .     S
C168   H193    1.085   .     S
C168   C170    1.381   .     A
C169   C171    1.411   .     A
C169   C176    1.398   .     A
C170   C177    1.398   .     A
C170   C172    1.411   .     A
C171   C173    1.416   .     A
C171   C658    1.390   1_554 S
C172   C175    1.416   .     A
C172   C657    1.390   .     S
C173   C184    1.387   .     A
C173   C179    1.407   .     A
C174   C181    1.411   .     S
C174   O209    1.289   .     A
C174   O207    1.275   .     A
C175   C178    1.407   .     A
C176   H194    1.084   .     S
C176   C664    1.399   1_554 S
C177   H195    1.084   .     S
C177   C665    1.399   .     S
C178   O214    1.383   .     S
C178   C662    1.399   .     S
C179   O204    1.383   .     S
C179   C663    1.399   1_554 S
C180   C343    1.352   .     S
C180   O367    1.391   .     S
C182   O210    1.289   .     A
C182   O212    1.291   .     A
C183   O211    1.289   .     A
C183   O213    1.291   .     A
C184   H185    1.083   .     S
H187   N255    1.045   .     S
H188   N255    1.044   .     S
H189   N310    1.044   1_455 S
H190   N310    1.044   1_455 S
H196   O322    0.992   1_455 S
H197   O258    0.992   .     S
H198   O367    0.991   .     S
N199   Zn216   2.021   .     S
N199   N254    1.285   .     S
N199   N255    1.384   .     S
N200   Zn215   2.021   .     S
N200   N307    1.285   1_455 S
N200   N310    1.384   1_455 S
N201   N307    1.384   1_455 S
N201   H295    1.045   1_455 S
N201   H296    1.044   1_455 S
N202   H244    1.044   .     S
N202   N254    1.384   .     S
N202   H243    1.044   .     S
O203   Zn215   1.971   .     S
O204   H305    0.992   1_455 S
O206   H348    0.991   .     S
O206   C343    1.391   .     S
O207   Zn216   1.971   .     S
O208   Zn216   1.985   .     S
O209   Zn215   1.985   .     S
O210   Zn215   2.007   .     S
O211   Zn216   2.007   .     S
O212   Zn216   2.016   .     S
O213   Zn215   2.016   .     S
O214   H250    0.992   .     S
C217   C234    1.411   .     S
C217   O262    1.289   .     A
C217   O257    1.275   .     A
C218   C220    1.393   .     A
C218   H245    1.083   .     S
C218   C229    1.387   .     A
C219   C237    1.431   .     S
C219   C221    1.394   .     A
C219   C238    1.393   .     A
C220   C222    1.394   .     A
C220   C236    1.431   .     S
C221   C223    1.381   .     A
C221   H246    1.085   .     S
C222   H247    1.085   .     S
C222   C224    1.381   .     A
C223   C225    1.411   .     A
C223   C230    1.398   .     A
C224   C231    1.398   .     A
C224   C226    1.411   .     A
C225   C227    1.416   .     A
C225   C712    1.390   1_554 S
C226   C229    1.416   .     A
C226   C711    1.390   .     S
C227   C238    1.387   .     A
C227   C233    1.407   .     A
C228   C235    1.411   .     S
C228   O263    1.289   .     A
C228   O261    1.275   .     A
C229   C232    1.407   .     A
C230   H248    1.084   .     S
C230   C718    1.399   1_554 S
C231   H249    1.084   .     S
C231   C719    1.399   .     S
C232   O268    1.383   .     S
C232   C716    1.399   .     S
C233   O258    1.383   .     S
C233   C717    1.399   1_554 S
C234   C397    1.352   .     S
C234   O421    1.391   .     S
C236   O264    1.289   .     A
C236   O266    1.291   .     A
C237   O265    1.289   .     A
C237   O267    1.291   .     A
C238   H239    1.083   .     S
H241   N309    1.045   .     S
H242   N309    1.044   .     S
H251   O312    0.992   .     S
H252   O421    0.991   .     S
N253   Zn270   2.021   .     S
N253   N308    1.285   .     S
N253   N309    1.384   .     S
N254   Zn269   2.021   .     S
N256   H298    1.044   .     S
N256   N308    1.384   .     S
N256   H297    1.044   .     S
O257   Zn269   1.971   .     S
O260   H402    0.991   .     S
O260   C397    1.391   .     S
O261   Zn270   1.971   .     S
O262   Zn270   1.985   .     S
O263   Zn269   1.985   .     S
O264   Zn269   2.007   .     S
O265   Zn270   2.007   .     S
O266   Zn270   2.016   .     S
O267   Zn269   2.016   .     S
O268   H304    0.992   .     S
C271   C288    1.411   .     S
C271   O316    1.289   .     A
C271   O311    1.275   .     A
C272   C274    1.393   .     A
C272   H299    1.083   .     S
C272   C283    1.387   .     A
C273   C291    1.431   .     S
C273   C275    1.394   .     A
C273   C292    1.393   .     A
C274   C276    1.394   .     A
C274   C290    1.431   .     S
C275   C277    1.381   .     A
C275   H300    1.085   .     S
C276   H301    1.085   .     S
C276   C278    1.381   .     A
C277   C279    1.411   .     A
C277   C284    1.398   .     A
C278   C285    1.398   .     A
C278   C280    1.411   .     A
C279   C281    1.416   .     A
C279   C766    1.390   1_554 S
C280   C283    1.416   .     A
C280   C765    1.390   .     S
C281   C292    1.387   .     A
C281   C287    1.407   .     A
C282   C289    1.411   .     S
C282   O317    1.289   .     A
C282   O315    1.275   .     A
C283   C286    1.407   .     A
C284   H302    1.084   .     S
C284   C772    1.399   1_554 S
C285   H303    1.084   .     S
C285   C773    1.399   .     S
C286   O322    1.383   .     S
C286   C770    1.399   .     S
C287   O312    1.383   .     S
C287   C771    1.399   1_554 S
C288   C451    1.352   .     S
C288   O475    1.391   .     S
C290   O318    1.289   .     A
C290   O320    1.291   .     A
C291   O319    1.289   .     A
C291   O321    1.291   .     A
C292   H293    1.083   .     S
H295   N201    1.045   1_655 S
H296   N201    1.044   1_655 S
H305   O204    0.992   1_655 S
H306   O475    0.991   .     S
N307   Zn324   2.021   .     S
N307   N200    1.285   1_655 S
N307   N201    1.384   1_655 S
N308   Zn323   2.021   .     S
N310   H190    1.044   1_655 S
N310   N200    1.384   1_655 S
N310   H189    1.044   1_655 S
O311   Zn323   1.971   .     S
O314   H456    0.991   .     S
O314   C451    1.391   .     S
O315   Zn324   1.971   .     S
O316   Zn324   1.985   .     S
O317   Zn323   1.985   .     S
O318   Zn323   2.007   .     S
O319   Zn324   2.007   .     S
O320   Zn324   2.016   .     S
O321   Zn323   2.016   .     S
O322   H196    0.992   1_655 S
C325   C342    1.411   .     S
C325   O370    1.289   .     A
C325   O365    1.275   .     A
C326   C328    1.393   .     A
C326   H353    1.083   .     S
C326   C337    1.387   .     A
C327   C345    1.431   .     S
C327   C329    1.394   .     A
C327   C346    1.393   .     A
C328   C330    1.394   .     A
C328   C344    1.431   .     S
C329   C331    1.381   .     A
C329   H354    1.085   .     S
C330   H355    1.085   .     S
C330   C332    1.381   .     A
C331   C333    1.411   .     A
C331   C338    1.398   .     A
C332   C339    1.398   .     A
C332   C334    1.411   .     A
C333   C335    1.416   .     A
C333   C820    1.390   1_554 S
C334   C337    1.416   .     A
C334   C819    1.390   .     S
C335   C346    1.387   .     A
C335   C341    1.407   .     A
C336   C343    1.411   .     S
C336   O371    1.289   .     A
C336   O369    1.275   .     A
C337   C340    1.407   .     A
C338   H356    1.084   .     S
C338   C826    1.399   1_554 S
C339   H357    1.084   .     S
C339   C827    1.399   .     S
C340   O376    1.383   .     S
C340   C824    1.399   .     S
C341   O366    1.383   .     S
C341   C825    1.399   1_554 S
C342   C19     1.352   1_565 S
C342   O43     1.391   1_565 S
C344   O372    1.289   .     A
C344   O374    1.291   .     A
C345   O373    1.289   .     A
C345   O375    1.291   .     A
C346   H347    1.083   .     S
H349   N417    1.045   .     S
H350   N417    1.044   .     S
H351   N472    1.044   1_455 S
H352   N472    1.044   1_455 S
H358   O484    0.992   1_455 S
H359   O420    0.992   .     S
H360   O43     0.991   1_565 S
N361   Zn378   2.021   .     S
N361   N416    1.285   .     S
N361   N417    1.384   .     S
N362   Zn377   2.021   .     S
N362   N469    1.285   1_455 S
N362   N472    1.384   1_455 S
N363   N469    1.384   1_455 S
N363   H457    1.045   1_455 S
N363   H458    1.044   1_455 S
N364   H406    1.044   .     S
N364   N416    1.384   .     S
N364   H405    1.044   .     S
O365   Zn377   1.971   .     S
O366   H467    0.992   1_455 S
O368   H24     0.991   1_565 S
O368   C19     1.391   1_565 S
O369   Zn378   1.971   .     S
O370   Zn378   1.985   .     S
O371   Zn377   1.985   .     S
O372   Zn377   2.007   .     S
O373   Zn378   2.007   .     S
O374   Zn378   2.016   .     S
O375   Zn377   2.016   .     S
O376   H412    0.992   .     S
C379   C396    1.411   .     S
C379   O424    1.289   .     A
C379   O419    1.275   .     A
C380   C382    1.393   .     A
C380   H407    1.083   .     S
C380   C391    1.387   .     A
C381   C399    1.431   .     S
C381   C383    1.394   .     A
C381   C400    1.393   .     A
C382   C384    1.394   .     A
C382   C398    1.431   .     S
C383   C385    1.381   .     A
C383   H408    1.085   .     S
C384   H409    1.085   .     S
C384   C386    1.381   .     A
C385   C387    1.411   .     A
C385   C392    1.398   .     A
C386   C393    1.398   .     A
C386   C388    1.411   .     A
C387   C389    1.416   .     A
C387   C874    1.390   1_554 S
C388   C391    1.416   .     A
C388   C873    1.390   .     S
C389   C400    1.387   .     A
C389   C395    1.407   .     A
C390   C397    1.411   .     S
C390   O425    1.289   .     A
C390   O423    1.275   .     A
C391   C394    1.407   .     A
C392   H410    1.084   .     S
C392   C880    1.399   1_554 S
C393   H411    1.084   .     S
C393   C881    1.399   .     S
C394   O430    1.383   .     S
C394   C878    1.399   .     S
C395   O420    1.383   .     S
C395   C879    1.399   1_554 S
C396   C73     1.352   1_565 S
C396   O97     1.391   1_565 S
C398   O426    1.289   .     A
C398   O428    1.291   .     A
C399   O427    1.289   .     A
C399   O429    1.291   .     A
C400   H401    1.083   .     S
H403   N471    1.045   .     S
H404   N471    1.044   .     S
H413   O474    0.992   .     S
H414   O97     0.991   1_565 S
N415   Zn432   2.021   .     S
N415   N470    1.285   .     S
N415   N471    1.384   .     S
N416   Zn431   2.021   .     S
N418   H460    1.044   .     S
N418   N470    1.384   .     S
N418   H459    1.044   .     S
O419   Zn431   1.971   .     S
O422   H78     0.991   1_565 S
O422   C73     1.391   1_565 S
O423   Zn432   1.971   .     S
O424   Zn432   1.985   .     S
O425   Zn431   1.985   .     S
O426   Zn431   2.007   .     S
O427   Zn432   2.007   .     S
O428   Zn432   2.016   .     S
O429   Zn431   2.016   .     S
O430   H466    0.992   .     S
C433   C450    1.411   .     S
C433   O478    1.289   .     A
C433   O473    1.275   .     A
C434   C436    1.393   .     A
C434   H461    1.083   .     S
C434   C445    1.387   .     A
C435   C453    1.431   .     S
C435   C437    1.394   .     A
C435   C454    1.393   .     A
C436   C438    1.394   .     A
C436   C452    1.431   .     S
C437   C439    1.381   .     A
C437   H462    1.085   .     S
C438   H463    1.085   .     S
C438   C440    1.381   .     A
C439   C441    1.411   .     A
C439   C446    1.398   .     A
C440   C447    1.398   .     A
C440   C442    1.411   .     A
C441   C443    1.416   .     A
C441   C928    1.390   1_554 S
C442   C445    1.416   .     A
C442   C927    1.390   .     S
C443   C454    1.387   .     A
C443   C449    1.407   .     A
C444   C451    1.411   .     S
C444   O479    1.289   .     A
C444   O477    1.275   .     A
C445   C448    1.407   .     A
C446   H464    1.084   .     S
C446   C934    1.399   1_554 S
C447   H465    1.084   .     S
C447   C935    1.399   .     S
C448   O484    1.383   .     S
C448   C932    1.399   .     S
C449   O474    1.383   .     S
C449   C933    1.399   1_554 S
C450   C127    1.352   1_565 S
C450   O151    1.391   1_565 S
C452   O480    1.289   .     A
C452   O482    1.291   .     A
C453   O481    1.289   .     A
C453   O483    1.291   .     A
C454   H455    1.083   .     S
H457   N363    1.045   1_655 S
H458   N363    1.044   1_655 S
H467   O366    0.992   1_655 S
H468   O151    0.991   1_565 S
N469   Zn486   2.021   .     S
N469   N362    1.285   1_655 S
N469   N363    1.384   1_655 S
N470   Zn485   2.021   .     S
N472   H352    1.044   1_655 S
N472   N362    1.384   1_655 S
N472   H351    1.044   1_655 S
O473   Zn485   1.971   .     S
O476   H132    0.991   1_565 S
O476   C127    1.391   1_565 S
O477   Zn486   1.971   .     S
O478   Zn486   1.985   .     S
O479   Zn485   1.985   .     S
O480   Zn485   2.007   .     S
O481   Zn486   2.007   .     S
O482   Zn486   2.016   .     S
O483   Zn485   2.016   .     S
O484   H358    0.992   1_655 S
C487   C504    1.411   .     S
C487   O532    1.289   .     A
C487   O527    1.275   .     A
C488   C490    1.393   .     A
C488   H515    1.083   .     S
C488   C499    1.387   .     A
C489   C507    1.431   .     S
C489   C491    1.394   .     A
C489   C508    1.393   .     A
C490   C492    1.394   .     A
C490   C506    1.431   .     S
C491   C493    1.381   .     A
C491   H516    1.085   .     S
C492   H517    1.085   .     S
C492   C494    1.381   .     A
C493   C495    1.411   .     A
C493   C500    1.398   .     A
C494   C501    1.398   .     A
C494   C496    1.411   .     A
C495   C497    1.416   .     A
C496   C499    1.416   .     A
C496   C9      1.390   1_556 S
C497   C508    1.387   .     A
C497   C503    1.407   .     A
C498   C505    1.411   .     S
C498   O533    1.289   .     A
C498   O531    1.275   .     A
C499   C502    1.407   .     A
C500   H518    1.084   .     S
C501   H519    1.084   .     S
C501   C17     1.399   1_556 S
C502   O538    1.383   .     S
C502   C14     1.399   1_556 S
C503   O528    1.383   .     S
C504   C667    1.352   .     S
C504   O691    1.391   .     S
C505   C828    1.352   1_545 S
C505   O854    1.391   1_545 S
C506   O534    1.289   .     A
C506   O536    1.291   .     A
C507   O535    1.289   .     A
C507   O537    1.291   .     A
C508   H509    1.083   .     S
H510   O854    0.991   1_545 S
H511   N579    1.045   .     S
H512   N579    1.044   .     S
H513   N634    1.044   1_455 S
H514   N634    1.044   1_455 S
H520   O646    0.992   1_455 S
H521   O582    0.992   .     S
H522   O691    0.991   .     S
N523   Zn540   2.021   .     S
N523   N578    1.285   .     S
N523   N579    1.384   .     S
N524   Zn539   2.021   .     S
N524   N631    1.285   1_455 S
N524   N634    1.384   1_455 S
N525   N631    1.384   1_455 S
N525   H619    1.045   1_455 S
N525   H620    1.044   1_455 S
N526   H568    1.044   .     S
N526   N578    1.384   .     S
N526   H567    1.044   .     S
O527   Zn539   1.971   .     S
O528   H629    0.992   1_455 S
O529   H846    0.991   1_545 S
O529   C828    1.391   1_545 S
O530   H672    0.991   .     S
O530   C667    1.391   .     S
O531   Zn540   1.971   .     S
O532   Zn540   1.985   .     S
O533   Zn539   1.985   .     S
O534   Zn539   2.007   .     S
O535   Zn540   2.007   .     S
O536   Zn540   2.016   .     S
O537   Zn539   2.016   .     S
O538   H574    0.992   .     S
C541   C558    1.411   .     S
C541   O586    1.289   .     A
C541   O581    1.275   .     A
C542   C544    1.393   .     A
C542   H569    1.083   .     S
C542   C553    1.387   .     A
C543   C561    1.431   .     S
C543   C545    1.394   .     A
C543   C562    1.393   .     A
C544   C546    1.394   .     A
C544   C560    1.431   .     S
C545   C547    1.381   .     A
C545   H570    1.085   .     S
C546   H571    1.085   .     S
C546   C548    1.381   .     A
C547   C549    1.411   .     A
C547   C554    1.398   .     A
C548   C555    1.398   .     A
C548   C550    1.411   .     A
C549   C551    1.416   .     A
C550   C553    1.416   .     A
C550   C63     1.390   1_556 S
C551   C562    1.387   .     A
C551   C557    1.407   .     A
C552   C559    1.411   .     S
C552   O587    1.289   .     A
C552   O585    1.275   .     A
C553   C556    1.407   .     A
C554   H572    1.084   .     S
C555   H573    1.084   .     S
C555   C71     1.399   1_556 S
C556   O592    1.383   .     S
C556   C68     1.399   1_556 S
C557   O582    1.383   .     S
C558   C721    1.352   .     S
C558   O745    1.391   .     S
C559   C882    1.352   1_545 S
C559   O908    1.391   1_545 S
C560   O588    1.289   .     A
C560   O590    1.291   .     A
C561   O589    1.289   .     A
C561   O591    1.291   .     A
C562   H563    1.083   .     S
H564   O908    0.991   1_545 S
H565   N633    1.045   .     S
H566   N633    1.044   .     S
H575   O636    0.992   .     S
H576   O745    0.991   .     S
N577   Zn594   2.021   .     S
N577   N632    1.285   .     S
N577   N633    1.384   .     S
N578   Zn593   2.021   .     S
N580   H622    1.044   .     S
N580   N632    1.384   .     S
N580   H621    1.044   .     S
O581   Zn593   1.971   .     S
O583   H900    0.991   1_545 S
O583   C882    1.391   1_545 S
O584   H726    0.991   .     S
O584   C721    1.391   .     S
O585   Zn594   1.971   .     S
O586   Zn594   1.985   .     S
O587   Zn593   1.985   .     S
O588   Zn593   2.007   .     S
O589   Zn594   2.007   .     S
O590   Zn594   2.016   .     S
O591   Zn593   2.016   .     S
O592   H628    0.992   .     S
C595   C612    1.411   .     S
C595   O640    1.289   .     A
C595   O635    1.275   .     A
C596   C598    1.393   .     A
C596   H623    1.083   .     S
C596   C607    1.387   .     A
C597   C615    1.431   .     S
C597   C599    1.394   .     A
C597   C616    1.393   .     A
C598   C600    1.394   .     A
C598   C614    1.431   .     S
C599   C601    1.381   .     A
C599   H624    1.085   .     S
C600   H625    1.085   .     S
C600   C602    1.381   .     A
C601   C603    1.411   .     A
C601   C608    1.398   .     A
C602   C609    1.398   .     A
C602   C604    1.411   .     A
C603   C605    1.416   .     A
C604   C607    1.416   .     A
C604   C117    1.390   1_556 S
C605   C616    1.387   .     A
C605   C611    1.407   .     A
C606   C613    1.411   .     S
C606   O641    1.289   .     A
C606   O639    1.275   .     A
C607   C610    1.407   .     A
C608   H626    1.084   .     S
C609   H627    1.084   .     S
C609   C125    1.399   1_556 S
C610   O646    1.383   .     S
C610   C122    1.399   1_556 S
C611   O636    1.383   .     S
C612   C775    1.352   .     S
C612   O799    1.391   .     S
C613   C936    1.352   1_545 S
C613   O962    1.391   1_545 S
C614   O642    1.289   .     A
C614   O644    1.291   .     A
C615   O643    1.289   .     A
C615   O645    1.291   .     A
C616   H617    1.083   .     S
H618   O962    0.991   1_545 S
H619   N525    1.045   1_655 S
H620   N525    1.044   1_655 S
H629   O528    0.992   1_655 S
H630   O799    0.991   .     S
N631   Zn648   2.021   .     S
N631   N524    1.285   1_655 S
N631   N525    1.384   1_655 S
N632   Zn647   2.021   .     S
N634   H514    1.044   1_655 S
N634   N524    1.384   1_655 S
N634   H513    1.044   1_655 S
O635   Zn647   1.971   .     S
O637   H954    0.991   1_545 S
O637   C936    1.391   1_545 S
O638   H780    0.991   .     S
O638   C775    1.391   .     S
O639   Zn648   1.971   .     S
O640   Zn648   1.985   .     S
O641   Zn647   1.985   .     S
O642   Zn647   2.007   .     S
O643   Zn648   2.007   .     S
O644   Zn648   2.016   .     S
O645   Zn647   2.016   .     S
O646   H520    0.992   1_655 S
C649   C666    1.411   .     S
C649   O694    1.289   .     A
C649   O689    1.275   .     A
C650   C652    1.393   .     A
C650   H677    1.083   .     S
C650   C661    1.387   .     A
C651   C669    1.431   .     S
C651   C653    1.394   .     A
C651   C670    1.393   .     A
C652   C654    1.394   .     A
C652   C668    1.431   .     S
C653   C655    1.381   .     A
C653   H678    1.085   .     S
C654   H679    1.085   .     S
C654   C656    1.381   .     A
C655   C657    1.411   .     A
C655   C662    1.398   .     A
C656   C663    1.398   .     A
C656   C658    1.411   .     A
C657   C659    1.416   .     A
C658   C661    1.416   .     A
C658   C171    1.390   1_556 S
C659   C670    1.387   .     A
C659   C665    1.407   .     A
C660   C667    1.411   .     S
C660   O695    1.289   .     A
C660   O693    1.275   .     A
C661   C664    1.407   .     A
C662   H680    1.084   .     S
C663   H681    1.084   .     S
C663   C179    1.399   1_556 S
C664   O700    1.383   .     S
C664   C176    1.399   1_556 S
C665   O690    1.383   .     S
C666   C829    1.352   .     S
C666   O853    1.391   .     S
C668   O696    1.289   .     A
C668   O698    1.291   .     A
C669   O697    1.289   .     A
C669   O699    1.291   .     A
C670   H671    1.083   .     S
H673   N741    1.045   .     S
H674   N741    1.044   .     S
H675   N796    1.044   1_455 S
H676   N796    1.044   1_455 S
H682   O808    0.992   1_455 S
H683   O744    0.992   .     S
H684   O853    0.991   .     S
N685   Zn702   2.021   .     S
N685   N740    1.285   .     S
N685   N741    1.384   .     S
N686   Zn701   2.021   .     S
N686   N793    1.285   1_455 S
N686   N796    1.384   1_455 S
N687   N793    1.384   1_455 S
N687   H781    1.045   1_455 S
N687   H782    1.044   1_455 S
N688   H730    1.044   .     S
N688   N740    1.384   .     S
N688   H729    1.044   .     S
O689   Zn701   1.971   .     S
O690   H791    0.992   1_455 S
O692   H834    0.991   .     S
O692   C829    1.391   .     S
O693   Zn702   1.971   .     S
O694   Zn702   1.985   .     S
O695   Zn701   1.985   .     S
O696   Zn701   2.007   .     S
O697   Zn702   2.007   .     S
O698   Zn702   2.016   .     S
O699   Zn701   2.016   .     S
O700   H736    0.992   .     S
C703   C720    1.411   .     S
C703   O748    1.289   .     A
C703   O743    1.275   .     A
C704   C706    1.393   .     A
C704   H731    1.083   .     S
C704   C715    1.387   .     A
C705   C723    1.431   .     S
C705   C707    1.394   .     A
C705   C724    1.393   .     A
C706   C708    1.394   .     A
C706   C722    1.431   .     S
C707   C709    1.381   .     A
C707   H732    1.085   .     S
C708   H733    1.085   .     S
C708   C710    1.381   .     A
C709   C711    1.411   .     A
C709   C716    1.398   .     A
C710   C717    1.398   .     A
C710   C712    1.411   .     A
C711   C713    1.416   .     A
C712   C715    1.416   .     A
C712   C225    1.390   1_556 S
C713   C724    1.387   .     A
C713   C719    1.407   .     A
C714   C721    1.411   .     S
C714   O749    1.289   .     A
C714   O747    1.275   .     A
C715   C718    1.407   .     A
C716   H734    1.084   .     S
C717   H735    1.084   .     S
C717   C233    1.399   1_556 S
C718   O754    1.383   .     S
C718   C230    1.399   1_556 S
C719   O744    1.383   .     S
C720   C883    1.352   .     S
C720   O907    1.391   .     S
C722   O750    1.289   .     A
C722   O752    1.291   .     A
C723   O751    1.289   .     A
C723   O753    1.291   .     A
C724   H725    1.083   .     S
H727   N795    1.045   .     S
H728   N795    1.044   .     S
H737   O798    0.992   .     S
H738   O907    0.991   .     S
N739   Zn756   2.021   .     S
N739   N794    1.285   .     S
N739   N795    1.384   .     S
N740   Zn755   2.021   .     S
N742   H784    1.044   .     S
N742   N794    1.384   .     S
N742   H783    1.044   .     S
O743   Zn755   1.971   .     S
O746   H888    0.991   .     S
O746   C883    1.391   .     S
O747   Zn756   1.971   .     S
O748   Zn756   1.985   .     S
O749   Zn755   1.985   .     S
O750   Zn755   2.007   .     S
O751   Zn756   2.007   .     S
O752   Zn756   2.016   .     S
O753   Zn755   2.016   .     S
O754   H790    0.992   .     S
C757   C774    1.411   .     S
C757   O802    1.289   .     A
C757   O797    1.275   .     A
C758   C760    1.393   .     A
C758   H785    1.083   .     S
C758   C769    1.387   .     A
C759   C777    1.431   .     S
C759   C761    1.394   .     A
C759   C778    1.393   .     A
C760   C762    1.394   .     A
C760   C776    1.431   .     S
C761   C763    1.381   .     A
C761   H786    1.085   .     S
C762   H787    1.085   .     S
C762   C764    1.381   .     A
C763   C765    1.411   .     A
C763   C770    1.398   .     A
C764   C771    1.398   .     A
C764   C766    1.411   .     A
C765   C767    1.416   .     A
C766   C769    1.416   .     A
C766   C279    1.390   1_556 S
C767   C778    1.387   .     A
C767   C773    1.407   .     A
C768   C775    1.411   .     S
C768   O803    1.289   .     A
C768   O801    1.275   .     A
C769   C772    1.407   .     A
C770   H788    1.084   .     S
C771   H789    1.084   .     S
C771   C287    1.399   1_556 S
C772   O808    1.383   .     S
C772   C284    1.399   1_556 S
C773   O798    1.383   .     S
C774   C937    1.352   .     S
C774   O961    1.391   .     S
C776   O804    1.289   .     A
C776   O806    1.291   .     A
C777   O805    1.289   .     A
C777   O807    1.291   .     A
C778   H779    1.083   .     S
H781   N687    1.045   1_655 S
H782   N687    1.044   1_655 S
H791   O690    0.992   1_655 S
H792   O961    0.991   .     S
N793   Zn810   2.021   .     S
N793   N686    1.285   1_655 S
N793   N687    1.384   1_655 S
N794   Zn809   2.021   .     S
N796   H676    1.044   1_655 S
N796   N686    1.384   1_655 S
N796   H675    1.044   1_655 S
O797   Zn809   1.971   .     S
O800   H942    0.991   .     S
O800   C937    1.391   .     S
O801   Zn810   1.971   .     S
O802   Zn810   1.985   .     S
O803   Zn809   1.985   .     S
O804   Zn809   2.007   .     S
O805   Zn810   2.007   .     S
O806   Zn810   2.016   .     S
O807   Zn809   2.016   .     S
O808   H682    0.992   1_655 S
C811   C828    1.411   .     S
C811   O856    1.289   .     A
C811   O851    1.275   .     A
C812   C814    1.393   .     A
C812   H839    1.083   .     S
C812   C823    1.387   .     A
C813   C831    1.431   .     S
C813   C815    1.394   .     A
C813   C832    1.393   .     A
C814   C816    1.394   .     A
C814   C830    1.431   .     S
C815   C817    1.381   .     A
C815   H840    1.085   .     S
C816   H841    1.085   .     S
C816   C818    1.381   .     A
C817   C819    1.411   .     A
C817   C824    1.398   .     A
C818   C825    1.398   .     A
C818   C820    1.411   .     A
C819   C821    1.416   .     A
C820   C823    1.416   .     A
C820   C333    1.390   1_556 S
C821   C832    1.387   .     A
C821   C827    1.407   .     A
C822   C829    1.411   .     S
C822   O857    1.289   .     A
C822   O855    1.275   .     A
C823   C826    1.407   .     A
C824   H842    1.084   .     S
C825   H843    1.084   .     S
C825   C341    1.399   1_556 S
C826   O862    1.383   .     S
C826   C338    1.399   1_556 S
C827   O852    1.383   .     S
C828   C505    1.352   1_565 S
C828   O529    1.391   1_565 S
C830   O858    1.289   .     A
C830   O860    1.291   .     A
C831   O859    1.289   .     A
C831   O861    1.291   .     A
C832   H833    1.083   .     S
H835   N903    1.045   .     S
H836   N903    1.044   .     S
H837   N958    1.044   1_455 S
H838   N958    1.044   1_455 S
H844   O970    0.992   1_455 S
H845   O906    0.992   .     S
H846   O529    0.991   1_565 S
N847   Zn864   2.021   .     S
N847   N902    1.285   .     S
N847   N903    1.384   .     S
N848   Zn863   2.021   .     S
N848   N955    1.285   1_455 S
N848   N958    1.384   1_455 S
N849   N955    1.384   1_455 S
N849   H943    1.045   1_455 S
N849   H944    1.044   1_455 S
N850   H892    1.044   .     S
N850   N902    1.384   .     S
N850   H891    1.044   .     S
O851   Zn863   1.971   .     S
O852   H953    0.992   1_455 S
O854   H510    0.991   1_565 S
O854   C505    1.391   1_565 S
O855   Zn864   1.971   .     S
O856   Zn864   1.985   .     S
O857   Zn863   1.985   .     S
O858   Zn863   2.007   .     S
O859   Zn864   2.007   .     S
O860   Zn864   2.016   .     S
O861   Zn863   2.016   .     S
O862   H898    0.992   .     S
C865   C882    1.411   .     S
C865   O910    1.289   .     A
C865   O905    1.275   .     A
C866   C868    1.393   .     A
C866   H893    1.083   .     S
C866   C877    1.387   .     A
C867   C885    1.431   .     S
C867   C869    1.394   .     A
C867   C886    1.393   .     A
C868   C870    1.394   .     A
C868   C884    1.431   .     S
C869   C871    1.381   .     A
C869   H894    1.085   .     S
C870   H895    1.085   .     S
C870   C872    1.381   .     A
C871   C873    1.411   .     A
C871   C878    1.398   .     A
C872   C879    1.398   .     A
C872   C874    1.411   .     A
C873   C875    1.416   .     A
C874   C877    1.416   .     A
C874   C387    1.390   1_556 S
C875   C886    1.387   .     A
C875   C881    1.407   .     A
C876   C883    1.411   .     S
C876   O911    1.289   .     A
C876   O909    1.275   .     A
C877   C880    1.407   .     A
C878   H896    1.084   .     S
C879   H897    1.084   .     S
C879   C395    1.399   1_556 S
C880   O916    1.383   .     S
C880   C392    1.399   1_556 S
C881   O906    1.383   .     S
C882   C559    1.352   1_565 S
C882   O583    1.391   1_565 S
C884   O912    1.289   .     A
C884   O914    1.291   .     A
C885   O913    1.289   .     A
C885   O915    1.291   .     A
C886   H887    1.083   .     S
H889   N957    1.045   .     S
H890   N957    1.044   .     S
H899   O960    0.992   .     S
H900   O583    0.991   1_565 S
N901   Zn918   2.021   .     S
N901   N956    1.285   .     S
N901   N957    1.384   .     S
N902   Zn917   2.021   .     S
N904   H946    1.044   .     S
N904   N956    1.384   .     S
N904   H945    1.044   .     S
O905   Zn917   1.971   .     S
O908   H564    0.991   1_565 S
O908   C559    1.391   1_565 S
O909   Zn918   1.971   .     S
O910   Zn918   1.985   .     S
O911   Zn917   1.985   .     S
O912   Zn917   2.007   .     S
O913   Zn918   2.007   .     S
O914   Zn918   2.016   .     S
O915   Zn917   2.016   .     S
O916   H952    0.992   .     S
C919   C936    1.411   .     S
C919   O964    1.289   .     A
C919   O959    1.275   .     A
C920   C922    1.393   .     A
C920   H947    1.083   .     S
C920   C931    1.387   .     A
C921   C939    1.431   .     S
C921   C923    1.394   .     A
C921   C940    1.393   .     A
C922   C924    1.394   .     A
C922   C938    1.431   .     S
C923   C925    1.381   .     A
C923   H948    1.085   .     S
C924   H949    1.085   .     S
C924   C926    1.381   .     A
C925   C927    1.411   .     A
C925   C932    1.398   .     A
C926   C933    1.398   .     A
C926   C928    1.411   .     A
C927   C929    1.416   .     A
C928   C931    1.416   .     A
C928   C441    1.390   1_556 S
C929   C940    1.387   .     A
C929   C935    1.407   .     A
C930   C937    1.411   .     S
C930   O965    1.289   .     A
C930   O963    1.275   .     A
C931   C934    1.407   .     A
C932   H950    1.084   .     S
C933   H951    1.084   .     S
C933   C449    1.399   1_556 S
C934   O970    1.383   .     S
C934   C446    1.399   1_556 S
C935   O960    1.383   .     S
C936   C613    1.352   1_565 S
C936   O637    1.391   1_565 S
C938   O966    1.289   .     A
C938   O968    1.291   .     A
C939   O967    1.289   .     A
C939   O969    1.291   .     A
C940   H941    1.083   .     S
H943   N849    1.045   1_655 S
H944   N849    1.044   1_655 S
H953   O852    0.992   1_655 S
H954   O637    0.991   1_565 S
N955   Zn972   2.021   .     S
N955   N848    1.285   1_655 S
N955   N849    1.384   1_655 S
N956   Zn971   2.021   .     S
N958   H838    1.044   1_655 S
N958   N848    1.384   1_655 S
N958   H837    1.044   1_655 S
O959   Zn971   1.971   .     S
O962   H618    0.991   1_565 S
O962   C613    1.391   1_565 S
O963   Zn972   1.971   .     S
O964   Zn972   1.985   .     S
O965   Zn971   1.985   .     S
O966   Zn971   2.007   .     S
O967   Zn972   2.007   .     S
O968   Zn972   2.016   .     S
O969   Zn971   2.016   .     S
O970   H844    0.992   1_655 S
