data_str_m3_o10_o17_pcu_sym.189
_audit_creation_date              2020-01-03
_audit_creation_method            'Materials Studio'
_symmetry_space_group_name_H-M    'P1'
_symmetry_Int_Tables_number       1
_symmetry_cell_setting            triclinic
loop_
_symmetry_equiv_pos_as_xyz
  x,y,z
_cell_length_a                    23.2859
_cell_length_b                    25.2703
_cell_length_c                    29.7311
_cell_angle_alpha                 90.7889
_cell_angle_beta                  85.9280
_cell_angle_gamma                 93.7224
loop_
_atom_site_label
_atom_site_type_symbol
_atom_site_fract_x
_atom_site_fract_y
_atom_site_fract_z
_atom_site_U_iso_or_equiv
_atom_site_adp_type
_atom_site_occupancy
C1     C     0.18133   0.26442   0.24181   0.00000  Uiso   1.00
C2     C     0.15113   0.06865   0.24448   0.00000  Uiso   1.00
C3     C     0.21110   0.25846   0.47636   0.00000  Uiso   1.00
C4     C     0.12220   0.07480   0.02379   0.00000  Uiso   1.00
C5     C     0.18766   0.31763   0.22445   0.00000  Uiso   1.00
C6     C     0.14168   0.01452   0.22964   0.00000  Uiso   1.00
C7     C     0.16747   0.16664   0.33639   0.00000  Uiso   1.00
C8     C     0.16586   0.16665   0.16363   0.00000  Uiso   1.00
C9     C     0.14371   0.12141   0.09437   0.00000  Uiso   1.00
C10    C     0.18978   0.21180   0.40574   0.00000  Uiso   1.00
C11    C     0.16397   0.16704   0.11620   0.00000  Uiso   1.00
C12    C     0.16934   0.16623   0.38388   0.00000  Uiso   1.00
C13    C     0.18376   0.21264   0.09319   0.00000  Uiso   1.00
C14    C     0.14935   0.12071   0.40693   0.00000  Uiso   1.00
C15    C     0.18483   0.21276   0.04668   0.00000  Uiso   1.00
C16    C     0.14833   0.12056   0.45345   0.00000  Uiso   1.00
C17    C     0.16509   0.16662   0.02355   0.00000  Uiso   1.00
C18    C     0.16814   0.16666   0.47658   0.00000  Uiso   1.00
C19    C     0.14269   0.12052   0.04754   0.00000  Uiso   1.00
C20    C     0.19065   0.21272   0.45259   0.00000  Uiso   1.00
C21    C     0.20668   0.25803   0.02331   0.00000  Uiso   1.00
C22    C     0.12647   0.07528   0.47684   0.00000  Uiso   1.00
H23    H     0.13097   0.08679   0.11451   0.00000  Uiso   1.00
H24    H     0.20274   0.24638   0.38562   0.00000  Uiso   1.00
H25    H     0.19920   0.24751   0.11163   0.00000  Uiso   1.00
H26    H     0.13377   0.08588   0.38852   0.00000  Uiso   1.00
H27    H     0.22195   0.29286   0.04186   0.00000  Uiso   1.00
H28    H     0.11114   0.04047   0.45830   0.00000  Uiso   1.00
H29    H     0.00449   0.12722   0.21597   0.00000  Uiso   1.00
H30    H     0.32885   0.20614   0.28400   0.00000  Uiso   1.00
N31    N     0.31678   0.15265   0.23783   0.00000  Uiso   1.00
N32    N     0.01656   0.18068   0.26217   0.00000  Uiso   1.00
O33    O     0.12975   0.24619   0.25298   0.00000  Uiso   1.00
O34    O     0.20358   0.08714   0.24701   0.00000  Uiso   1.00
O35    O     0.22613   0.23721   0.24518   0.00000  Uiso   1.00
O36    O     0.10720   0.09613   0.25481   0.00000  Uiso   1.00
O37    O     0.11847   0.17117   0.31997   0.00000  Uiso   1.00
O38    O     0.21486   0.16216   0.18002   0.00000  Uiso   1.00
O39    O     0.21485   0.16219   0.31217   0.00000  Uiso   1.00
O40    O     0.11848   0.17115   0.18782   0.00000  Uiso   1.00
Zn41   Zn    0.10231   0.17266   0.25521   0.00000  Uiso   1.00
Zn42   Zn    0.23102   0.16067   0.24479   0.00000  Uiso   1.00
C43    C     0.23843   0.30731   0.45466   0.00000  Uiso   1.00
H44    H     0.23407   0.01201   0.47157   0.00000  Uiso   1.00
O45    O     0.26907   0.30558   0.41969   0.00000  Uiso   1.00
C46    C     0.09495   0.02591   0.04553   0.00000  Uiso   1.00
H47    H     0.09914   0.32124   0.02853   0.00000  Uiso   1.00
O48    O     0.06460   0.02757   0.08065   0.00000  Uiso   1.00
C49    C     0.24361   0.00222   0.20013   0.00000  Uiso   1.00
H50    H     0.28155   0.31371   0.20354   0.00000  Uiso   1.00
O51    O     0.24686   0.03906   0.17369   0.00000  Uiso   1.00
C52    C     0.08168   0.32674   0.22169   0.00000  Uiso   1.00
H53    H     0.07499   0.29348   0.19873   0.00000  Uiso   1.00
O54    O     0.03962   0.01242   0.24087   0.00000  Uiso   1.00
C55    C     0.51466   0.26442   0.24181   0.00000  Uiso   1.00
C56    C     0.48447   0.06865   0.24448   0.00000  Uiso   1.00
C57    C     0.54443   0.25846   0.47636   0.00000  Uiso   1.00
C58    C     0.45553   0.07480   0.02379   0.00000  Uiso   1.00
C59    C     0.52100   0.31763   0.22445   0.00000  Uiso   1.00
C60    C     0.47501   0.01452   0.22964   0.00000  Uiso   1.00
C61    C     0.50080   0.16664   0.33639   0.00000  Uiso   1.00
C62    C     0.49919   0.16665   0.16363   0.00000  Uiso   1.00
C63    C     0.47704   0.12141   0.09437   0.00000  Uiso   1.00
C64    C     0.52312   0.21180   0.40574   0.00000  Uiso   1.00
C65    C     0.49731   0.16704   0.11620   0.00000  Uiso   1.00
C66    C     0.50268   0.16623   0.38388   0.00000  Uiso   1.00
C67    C     0.51709   0.21264   0.09319   0.00000  Uiso   1.00
C68    C     0.48268   0.12071   0.40693   0.00000  Uiso   1.00
C69    C     0.51816   0.21276   0.04668   0.00000  Uiso   1.00
C70    C     0.48166   0.12056   0.45345   0.00000  Uiso   1.00
C71    C     0.49843   0.16662   0.02355   0.00000  Uiso   1.00
C72    C     0.50148   0.16666   0.47658   0.00000  Uiso   1.00
C73    C     0.47602   0.12052   0.04754   0.00000  Uiso   1.00
C74    C     0.52398   0.21272   0.45259   0.00000  Uiso   1.00
C75    C     0.54002   0.25803   0.02331   0.00000  Uiso   1.00
C76    C     0.45980   0.07528   0.47684   0.00000  Uiso   1.00
H77    H     0.46430   0.08679   0.11451   0.00000  Uiso   1.00
H78    H     0.53607   0.24638   0.38562   0.00000  Uiso   1.00
H79    H     0.53253   0.24751   0.11163   0.00000  Uiso   1.00
H80    H     0.46710   0.08588   0.38852   0.00000  Uiso   1.00
H81    H     0.55528   0.29286   0.04186   0.00000  Uiso   1.00
H82    H     0.44447   0.04047   0.45830   0.00000  Uiso   1.00
H83    H     0.33782   0.12722   0.21597   0.00000  Uiso   1.00
H84    H     0.66218   0.20614   0.28400   0.00000  Uiso   1.00
N85    N     0.65011   0.15265   0.23783   0.00000  Uiso   1.00
N86    N     0.34989   0.18068   0.26217   0.00000  Uiso   1.00
O87    O     0.46308   0.24619   0.25298   0.00000  Uiso   1.00
O88    O     0.53692   0.08714   0.24701   0.00000  Uiso   1.00
O89    O     0.55946   0.23721   0.24518   0.00000  Uiso   1.00
O90    O     0.44054   0.09613   0.25481   0.00000  Uiso   1.00
O91    O     0.45181   0.17117   0.31997   0.00000  Uiso   1.00
O92    O     0.54819   0.16216   0.18002   0.00000  Uiso   1.00
O93    O     0.54819   0.16219   0.31217   0.00000  Uiso   1.00
O94    O     0.45181   0.17115   0.18782   0.00000  Uiso   1.00
Zn95   Zn    0.43565   0.17266   0.25521   0.00000  Uiso   1.00
Zn96   Zn    0.56435   0.16067   0.24479   0.00000  Uiso   1.00
C97    C     0.57177   0.30731   0.45466   0.00000  Uiso   1.00
H98    H     0.56741   0.01201   0.47157   0.00000  Uiso   1.00
O99    O     0.60240   0.30558   0.41969   0.00000  Uiso   1.00
C100   C     0.42829   0.02591   0.04553   0.00000  Uiso   1.00
H101   H     0.43248   0.32124   0.02853   0.00000  Uiso   1.00
O102   O     0.39793   0.02757   0.08065   0.00000  Uiso   1.00
C103   C     0.57695   0.00222   0.20013   0.00000  Uiso   1.00
H104   H     0.61488   0.31371   0.20354   0.00000  Uiso   1.00
O105   O     0.58019   0.03906   0.17369   0.00000  Uiso   1.00
C106   C     0.41502   0.32674   0.22169   0.00000  Uiso   1.00
H107   H     0.40832   0.29348   0.19873   0.00000  Uiso   1.00
O108   O     0.37295   0.01242   0.24087   0.00000  Uiso   1.00
C109   C     0.84800   0.26442   0.24181   0.00000  Uiso   1.00
C110   C     0.81780   0.06865   0.24448   0.00000  Uiso   1.00
C111   C     0.87777   0.25846   0.47636   0.00000  Uiso   1.00
C112   C     0.78886   0.07480   0.02379   0.00000  Uiso   1.00
C113   C     0.85433   0.31763   0.22445   0.00000  Uiso   1.00
C114   C     0.80835   0.01452   0.22964   0.00000  Uiso   1.00
C115   C     0.83414   0.16664   0.33639   0.00000  Uiso   1.00
C116   C     0.83252   0.16665   0.16363   0.00000  Uiso   1.00
C117   C     0.81037   0.12141   0.09437   0.00000  Uiso   1.00
C118   C     0.85645   0.21180   0.40574   0.00000  Uiso   1.00
C119   C     0.83064   0.16704   0.11620   0.00000  Uiso   1.00
C120   C     0.83601   0.16623   0.38388   0.00000  Uiso   1.00
C121   C     0.85043   0.21264   0.09319   0.00000  Uiso   1.00
C122   C     0.81602   0.12071   0.40693   0.00000  Uiso   1.00
C123   C     0.85150   0.21276   0.04668   0.00000  Uiso   1.00
C124   C     0.81499   0.12056   0.45345   0.00000  Uiso   1.00
C125   C     0.83176   0.16662   0.02355   0.00000  Uiso   1.00
C126   C     0.83481   0.16666   0.47658   0.00000  Uiso   1.00
C127   C     0.80936   0.12052   0.04754   0.00000  Uiso   1.00
C128   C     0.85732   0.21272   0.45259   0.00000  Uiso   1.00
C129   C     0.87335   0.25803   0.02331   0.00000  Uiso   1.00
C130   C     0.79313   0.07528   0.47684   0.00000  Uiso   1.00
H131   H     0.79764   0.08679   0.11451   0.00000  Uiso   1.00
H132   H     0.86940   0.24638   0.38562   0.00000  Uiso   1.00
H133   H     0.86587   0.24751   0.11163   0.00000  Uiso   1.00
H134   H     0.80043   0.08588   0.38852   0.00000  Uiso   1.00
H135   H     0.88862   0.29286   0.04186   0.00000  Uiso   1.00
H136   H     0.77780   0.04047   0.45830   0.00000  Uiso   1.00
H137   H     0.67115   0.12722   0.21597   0.00000  Uiso   1.00
H138   H     0.99552   0.20614   0.28400   0.00000  Uiso   1.00
N139   N     0.98344   0.15265   0.23783   0.00000  Uiso   1.00
N140   N     0.68322   0.18068   0.26217   0.00000  Uiso   1.00
O141   O     0.79642   0.24619   0.25298   0.00000  Uiso   1.00
O142   O     0.87025   0.08714   0.24701   0.00000  Uiso   1.00
O143   O     0.89280   0.23721   0.24518   0.00000  Uiso   1.00
O144   O     0.77387   0.09613   0.25481   0.00000  Uiso   1.00
O145   O     0.78514   0.17117   0.31997   0.00000  Uiso   1.00
O146   O     0.88153   0.16216   0.18002   0.00000  Uiso   1.00
O147   O     0.88152   0.16219   0.31217   0.00000  Uiso   1.00
O148   O     0.78515   0.17115   0.18782   0.00000  Uiso   1.00
Zn149  Zn    0.76898   0.17266   0.25521   0.00000  Uiso   1.00
Zn150  Zn    0.89769   0.16067   0.24479   0.00000  Uiso   1.00
C151   C     0.90510   0.30731   0.45466   0.00000  Uiso   1.00
H152   H     0.90074   0.01201   0.47157   0.00000  Uiso   1.00
O153   O     0.93574   0.30558   0.41969   0.00000  Uiso   1.00
C154   C     0.76162   0.02591   0.04553   0.00000  Uiso   1.00
H155   H     0.76581   0.32124   0.02853   0.00000  Uiso   1.00
O156   O     0.73126   0.02757   0.08065   0.00000  Uiso   1.00
C157   C     0.91028   0.00222   0.20013   0.00000  Uiso   1.00
H158   H     0.94821   0.31371   0.20354   0.00000  Uiso   1.00
O159   O     0.91352   0.03906   0.17369   0.00000  Uiso   1.00
C160   C     0.74835   0.32674   0.22169   0.00000  Uiso   1.00
H161   H     0.74166   0.29348   0.19873   0.00000  Uiso   1.00
O162   O     0.70628   0.01242   0.24087   0.00000  Uiso   1.00
C163   C     0.18133   0.59775   0.24181   0.00000  Uiso   1.00
C164   C     0.15113   0.40198   0.24448   0.00000  Uiso   1.00
C165   C     0.21110   0.59179   0.47636   0.00000  Uiso   1.00
C166   C     0.12220   0.40813   0.02379   0.00000  Uiso   1.00
C167   C     0.18766   0.65096   0.22445   0.00000  Uiso   1.00
C168   C     0.14168   0.34785   0.22964   0.00000  Uiso   1.00
C169   C     0.16747   0.49997   0.33639   0.00000  Uiso   1.00
C170   C     0.16586   0.49998   0.16363   0.00000  Uiso   1.00
C171   C     0.14371   0.45474   0.09437   0.00000  Uiso   1.00
C172   C     0.18978   0.54513   0.40574   0.00000  Uiso   1.00
C173   C     0.16397   0.50038   0.11620   0.00000  Uiso   1.00
C174   C     0.16934   0.49957   0.38388   0.00000  Uiso   1.00
C175   C     0.18376   0.54597   0.09319   0.00000  Uiso   1.00
C176   C     0.14935   0.45404   0.40693   0.00000  Uiso   1.00
C177   C     0.18483   0.54609   0.04668   0.00000  Uiso   1.00
C178   C     0.14833   0.45389   0.45345   0.00000  Uiso   1.00
C179   C     0.16509   0.49996   0.02355   0.00000  Uiso   1.00
C180   C     0.16814   0.49999   0.47658   0.00000  Uiso   1.00
C181   C     0.14269   0.45386   0.04754   0.00000  Uiso   1.00
C182   C     0.19065   0.54605   0.45259   0.00000  Uiso   1.00
C183   C     0.20668   0.59136   0.02331   0.00000  Uiso   1.00
C184   C     0.12647   0.40862   0.47684   0.00000  Uiso   1.00
H185   H     0.13097   0.42012   0.11451   0.00000  Uiso   1.00
H186   H     0.20274   0.57971   0.38562   0.00000  Uiso   1.00
H187   H     0.19920   0.58085   0.11163   0.00000  Uiso   1.00
H188   H     0.13377   0.41921   0.38852   0.00000  Uiso   1.00
H189   H     0.22195   0.62619   0.04186   0.00000  Uiso   1.00
H190   H     0.11114   0.37381   0.45830   0.00000  Uiso   1.00
H191   H     0.00449   0.46055   0.21597   0.00000  Uiso   1.00
H192   H     0.32885   0.53948   0.28400   0.00000  Uiso   1.00
N193   N     0.31678   0.48598   0.23783   0.00000  Uiso   1.00
N194   N     0.01656   0.51402   0.26217   0.00000  Uiso   1.00
O195   O     0.12975   0.57952   0.25298   0.00000  Uiso   1.00
O196   O     0.20358   0.42048   0.24701   0.00000  Uiso   1.00
O197   O     0.22613   0.57054   0.24518   0.00000  Uiso   1.00
O198   O     0.10720   0.42946   0.25481   0.00000  Uiso   1.00
O199   O     0.11847   0.50450   0.31997   0.00000  Uiso   1.00
O200   O     0.21486   0.49550   0.18002   0.00000  Uiso   1.00
O201   O     0.21485   0.49552   0.31217   0.00000  Uiso   1.00
O202   O     0.11848   0.50448   0.18782   0.00000  Uiso   1.00
Zn203  Zn    0.10231   0.50600   0.25521   0.00000  Uiso   1.00
Zn204  Zn    0.23102   0.49400   0.24479   0.00000  Uiso   1.00
C205   C     0.23843   0.64064   0.45466   0.00000  Uiso   1.00
H206   H     0.23407   0.34535   0.47157   0.00000  Uiso   1.00
O207   O     0.26907   0.63891   0.41969   0.00000  Uiso   1.00
C208   C     0.09495   0.35924   0.04553   0.00000  Uiso   1.00
H209   H     0.09914   0.65458   0.02853   0.00000  Uiso   1.00
O210   O     0.06460   0.36090   0.08065   0.00000  Uiso   1.00
C211   C     0.24361   0.33555   0.20013   0.00000  Uiso   1.00
H212   H     0.28155   0.64704   0.20354   0.00000  Uiso   1.00
O213   O     0.24686   0.37239   0.17369   0.00000  Uiso   1.00
C214   C     0.08168   0.66008   0.22169   0.00000  Uiso   1.00
H215   H     0.07499   0.62681   0.19873   0.00000  Uiso   1.00
O216   O     0.03962   0.34575   0.24087   0.00000  Uiso   1.00
C217   C     0.51466   0.59775   0.24181   0.00000  Uiso   1.00
C218   C     0.48447   0.40198   0.24448   0.00000  Uiso   1.00
C219   C     0.54443   0.59179   0.47636   0.00000  Uiso   1.00
C220   C     0.45553   0.40813   0.02379   0.00000  Uiso   1.00
C221   C     0.52100   0.65096   0.22445   0.00000  Uiso   1.00
C222   C     0.47501   0.34785   0.22964   0.00000  Uiso   1.00
C223   C     0.50080   0.49997   0.33639   0.00000  Uiso   1.00
C224   C     0.49919   0.49998   0.16363   0.00000  Uiso   1.00
C225   C     0.47704   0.45474   0.09437   0.00000  Uiso   1.00
C226   C     0.52312   0.54513   0.40574   0.00000  Uiso   1.00
C227   C     0.49731   0.50038   0.11620   0.00000  Uiso   1.00
C228   C     0.50268   0.49957   0.38388   0.00000  Uiso   1.00
C229   C     0.51709   0.54597   0.09319   0.00000  Uiso   1.00
C230   C     0.48268   0.45404   0.40693   0.00000  Uiso   1.00
C231   C     0.51816   0.54609   0.04668   0.00000  Uiso   1.00
C232   C     0.48166   0.45389   0.45345   0.00000  Uiso   1.00
C233   C     0.49843   0.49996   0.02355   0.00000  Uiso   1.00
C234   C     0.50148   0.49999   0.47658   0.00000  Uiso   1.00
C235   C     0.47602   0.45386   0.04754   0.00000  Uiso   1.00
C236   C     0.52398   0.54605   0.45259   0.00000  Uiso   1.00
C237   C     0.54002   0.59136   0.02331   0.00000  Uiso   1.00
C238   C     0.45980   0.40862   0.47684   0.00000  Uiso   1.00
H239   H     0.46430   0.42012   0.11451   0.00000  Uiso   1.00
H240   H     0.53607   0.57971   0.38562   0.00000  Uiso   1.00
H241   H     0.53253   0.58085   0.11163   0.00000  Uiso   1.00
H242   H     0.46710   0.41921   0.38852   0.00000  Uiso   1.00
H243   H     0.55528   0.62619   0.04186   0.00000  Uiso   1.00
H244   H     0.44447   0.37381   0.45830   0.00000  Uiso   1.00
H245   H     0.33782   0.46055   0.21597   0.00000  Uiso   1.00
H246   H     0.66218   0.53948   0.28400   0.00000  Uiso   1.00
N247   N     0.65011   0.48598   0.23783   0.00000  Uiso   1.00
N248   N     0.34989   0.51402   0.26217   0.00000  Uiso   1.00
O249   O     0.46308   0.57952   0.25298   0.00000  Uiso   1.00
O250   O     0.53692   0.42048   0.24701   0.00000  Uiso   1.00
O251   O     0.55946   0.57054   0.24518   0.00000  Uiso   1.00
O252   O     0.44054   0.42946   0.25481   0.00000  Uiso   1.00
O253   O     0.45181   0.50450   0.31997   0.00000  Uiso   1.00
O254   O     0.54819   0.49550   0.18002   0.00000  Uiso   1.00
O255   O     0.54819   0.49552   0.31217   0.00000  Uiso   1.00
O256   O     0.45181   0.50448   0.18782   0.00000  Uiso   1.00
Zn257  Zn    0.43565   0.50600   0.25521   0.00000  Uiso   1.00
Zn258  Zn    0.56435   0.49400   0.24479   0.00000  Uiso   1.00
C259   C     0.57177   0.64064   0.45466   0.00000  Uiso   1.00
H260   H     0.56741   0.34535   0.47157   0.00000  Uiso   1.00
O261   O     0.60240   0.63891   0.41969   0.00000  Uiso   1.00
C262   C     0.42829   0.35924   0.04553   0.00000  Uiso   1.00
H263   H     0.43248   0.65458   0.02853   0.00000  Uiso   1.00
O264   O     0.39793   0.36090   0.08065   0.00000  Uiso   1.00
C265   C     0.57695   0.33555   0.20013   0.00000  Uiso   1.00
H266   H     0.61488   0.64704   0.20354   0.00000  Uiso   1.00
O267   O     0.58019   0.37239   0.17369   0.00000  Uiso   1.00
C268   C     0.41502   0.66008   0.22169   0.00000  Uiso   1.00
H269   H     0.40832   0.62681   0.19873   0.00000  Uiso   1.00
O270   O     0.37295   0.34575   0.24087   0.00000  Uiso   1.00
C271   C     0.84800   0.59775   0.24181   0.00000  Uiso   1.00
C272   C     0.81780   0.40198   0.24448   0.00000  Uiso   1.00
C273   C     0.87777   0.59179   0.47636   0.00000  Uiso   1.00
C274   C     0.78886   0.40813   0.02379   0.00000  Uiso   1.00
C275   C     0.85433   0.65096   0.22445   0.00000  Uiso   1.00
C276   C     0.80835   0.34785   0.22964   0.00000  Uiso   1.00
C277   C     0.83414   0.49997   0.33639   0.00000  Uiso   1.00
C278   C     0.83252   0.49998   0.16363   0.00000  Uiso   1.00
C279   C     0.81037   0.45474   0.09437   0.00000  Uiso   1.00
C280   C     0.85645   0.54513   0.40574   0.00000  Uiso   1.00
C281   C     0.83064   0.50038   0.11620   0.00000  Uiso   1.00
C282   C     0.83601   0.49957   0.38388   0.00000  Uiso   1.00
C283   C     0.85043   0.54597   0.09319   0.00000  Uiso   1.00
C284   C     0.81602   0.45404   0.40693   0.00000  Uiso   1.00
C285   C     0.85150   0.54609   0.04668   0.00000  Uiso   1.00
C286   C     0.81499   0.45389   0.45345   0.00000  Uiso   1.00
C287   C     0.83176   0.49996   0.02355   0.00000  Uiso   1.00
C288   C     0.83481   0.49999   0.47658   0.00000  Uiso   1.00
C289   C     0.80936   0.45386   0.04754   0.00000  Uiso   1.00
C290   C     0.85732   0.54605   0.45259   0.00000  Uiso   1.00
C291   C     0.87335   0.59136   0.02331   0.00000  Uiso   1.00
C292   C     0.79313   0.40862   0.47684   0.00000  Uiso   1.00
H293   H     0.79764   0.42012   0.11451   0.00000  Uiso   1.00
H294   H     0.86940   0.57971   0.38562   0.00000  Uiso   1.00
H295   H     0.86587   0.58085   0.11163   0.00000  Uiso   1.00
H296   H     0.80043   0.41921   0.38852   0.00000  Uiso   1.00
H297   H     0.88862   0.62619   0.04186   0.00000  Uiso   1.00
H298   H     0.77780   0.37381   0.45830   0.00000  Uiso   1.00
H299   H     0.67115   0.46055   0.21597   0.00000  Uiso   1.00
H300   H     0.99552   0.53948   0.28400   0.00000  Uiso   1.00
N301   N     0.98344   0.48598   0.23783   0.00000  Uiso   1.00
N302   N     0.68322   0.51402   0.26217   0.00000  Uiso   1.00
O303   O     0.79642   0.57952   0.25298   0.00000  Uiso   1.00
O304   O     0.87025   0.42048   0.24701   0.00000  Uiso   1.00
O305   O     0.89280   0.57054   0.24518   0.00000  Uiso   1.00
O306   O     0.77387   0.42946   0.25481   0.00000  Uiso   1.00
O307   O     0.78514   0.50450   0.31997   0.00000  Uiso   1.00
O308   O     0.88153   0.49550   0.18002   0.00000  Uiso   1.00
O309   O     0.88152   0.49552   0.31217   0.00000  Uiso   1.00
O310   O     0.78515   0.50448   0.18782   0.00000  Uiso   1.00
Zn311  Zn    0.76898   0.50600   0.25521   0.00000  Uiso   1.00
Zn312  Zn    0.89769   0.49400   0.24479   0.00000  Uiso   1.00
C313   C     0.90510   0.64064   0.45466   0.00000  Uiso   1.00
H314   H     0.90074   0.34535   0.47157   0.00000  Uiso   1.00
O315   O     0.93574   0.63891   0.41969   0.00000  Uiso   1.00
C316   C     0.76162   0.35924   0.04553   0.00000  Uiso   1.00
H317   H     0.76581   0.65458   0.02853   0.00000  Uiso   1.00
O318   O     0.73126   0.36090   0.08065   0.00000  Uiso   1.00
C319   C     0.91028   0.33555   0.20013   0.00000  Uiso   1.00
H320   H     0.94821   0.64704   0.20354   0.00000  Uiso   1.00
O321   O     0.91352   0.37239   0.17369   0.00000  Uiso   1.00
C322   C     0.74835   0.66008   0.22169   0.00000  Uiso   1.00
H323   H     0.74166   0.62681   0.19873   0.00000  Uiso   1.00
O324   O     0.70628   0.34575   0.24087   0.00000  Uiso   1.00
C325   C     0.18133   0.93108   0.24181   0.00000  Uiso   1.00
C326   C     0.15113   0.73532   0.24448   0.00000  Uiso   1.00
C327   C     0.21110   0.92512   0.47636   0.00000  Uiso   1.00
C328   C     0.12220   0.74147   0.02379   0.00000  Uiso   1.00
C329   C     0.18766   0.98430   0.22445   0.00000  Uiso   1.00
C330   C     0.14168   0.68119   0.22964   0.00000  Uiso   1.00
C331   C     0.16747   0.83330   0.33639   0.00000  Uiso   1.00
C332   C     0.16586   0.83331   0.16363   0.00000  Uiso   1.00
C333   C     0.14371   0.78808   0.09437   0.00000  Uiso   1.00
C334   C     0.18978   0.87847   0.40574   0.00000  Uiso   1.00
C335   C     0.16397   0.83371   0.11620   0.00000  Uiso   1.00
C336   C     0.16934   0.83290   0.38388   0.00000  Uiso   1.00
C337   C     0.18376   0.87931   0.09319   0.00000  Uiso   1.00
C338   C     0.14935   0.78737   0.40693   0.00000  Uiso   1.00
C339   C     0.18483   0.87942   0.04668   0.00000  Uiso   1.00
C340   C     0.14833   0.78723   0.45345   0.00000  Uiso   1.00
C341   C     0.16509   0.83329   0.02355   0.00000  Uiso   1.00
C342   C     0.16814   0.83332   0.47658   0.00000  Uiso   1.00
C343   C     0.14269   0.78719   0.04754   0.00000  Uiso   1.00
C344   C     0.19065   0.87939   0.45259   0.00000  Uiso   1.00
C345   C     0.20668   0.92469   0.02331   0.00000  Uiso   1.00
C346   C     0.12647   0.74195   0.47684   0.00000  Uiso   1.00
H347   H     0.13097   0.75345   0.11451   0.00000  Uiso   1.00
H348   H     0.20274   0.91304   0.38562   0.00000  Uiso   1.00
H349   H     0.19920   0.91418   0.11163   0.00000  Uiso   1.00
H350   H     0.13377   0.75255   0.38852   0.00000  Uiso   1.00
H351   H     0.22195   0.95952   0.04186   0.00000  Uiso   1.00
H352   H     0.11114   0.70714   0.45830   0.00000  Uiso   1.00
H353   H     0.00449   0.79389   0.21597   0.00000  Uiso   1.00
H354   H     0.32885   0.87281   0.28400   0.00000  Uiso   1.00
N355   N     0.31678   0.81932   0.23783   0.00000  Uiso   1.00
N356   N     0.01656   0.84735   0.26217   0.00000  Uiso   1.00
O357   O     0.12975   0.91286   0.25298   0.00000  Uiso   1.00
O358   O     0.20358   0.75381   0.24701   0.00000  Uiso   1.00
O359   O     0.22613   0.90387   0.24518   0.00000  Uiso   1.00
O360   O     0.10720   0.76279   0.25481   0.00000  Uiso   1.00
O361   O     0.11847   0.83784   0.31997   0.00000  Uiso   1.00
O362   O     0.21486   0.82883   0.18002   0.00000  Uiso   1.00
O363   O     0.21485   0.82885   0.31217   0.00000  Uiso   1.00
O364   O     0.11848   0.83781   0.18782   0.00000  Uiso   1.00
Zn365  Zn    0.10231   0.83933   0.25521   0.00000  Uiso   1.00
Zn366  Zn    0.23102   0.82734   0.24479   0.00000  Uiso   1.00
C367   C     0.23843   0.97398   0.45466   0.00000  Uiso   1.00
H368   H     0.23407   0.67868   0.47157   0.00000  Uiso   1.00
O369   O     0.26907   0.97225   0.41969   0.00000  Uiso   1.00
C370   C     0.09495   0.69258   0.04553   0.00000  Uiso   1.00
H371   H     0.09914   0.98791   0.02853   0.00000  Uiso   1.00
O372   O     0.06460   0.69424   0.08065   0.00000  Uiso   1.00
C373   C     0.24361   0.66888   0.20013   0.00000  Uiso   1.00
H374   H     0.28155   0.98038   0.20354   0.00000  Uiso   1.00
O375   O     0.24686   0.70573   0.17369   0.00000  Uiso   1.00
C376   C     0.08168   0.99341   0.22169   0.00000  Uiso   1.00
H377   H     0.07499   0.96014   0.19873   0.00000  Uiso   1.00
O378   O     0.03962   0.67908   0.24087   0.00000  Uiso   1.00
C379   C     0.51466   0.93108   0.24181   0.00000  Uiso   1.00
C380   C     0.48447   0.73532   0.24448   0.00000  Uiso   1.00
C381   C     0.54443   0.92512   0.47636   0.00000  Uiso   1.00
C382   C     0.45553   0.74147   0.02379   0.00000  Uiso   1.00
C383   C     0.52100   0.98430   0.22445   0.00000  Uiso   1.00
C384   C     0.47501   0.68119   0.22964   0.00000  Uiso   1.00
C385   C     0.50080   0.83330   0.33639   0.00000  Uiso   1.00
C386   C     0.49919   0.83331   0.16363   0.00000  Uiso   1.00
C387   C     0.47704   0.78808   0.09437   0.00000  Uiso   1.00
C388   C     0.52312   0.87847   0.40574   0.00000  Uiso   1.00
C389   C     0.49731   0.83371   0.11620   0.00000  Uiso   1.00
C390   C     0.50268   0.83290   0.38388   0.00000  Uiso   1.00
C391   C     0.51709   0.87931   0.09319   0.00000  Uiso   1.00
C392   C     0.48268   0.78737   0.40693   0.00000  Uiso   1.00
C393   C     0.51816   0.87942   0.04668   0.00000  Uiso   1.00
C394   C     0.48166   0.78723   0.45345   0.00000  Uiso   1.00
C395   C     0.49843   0.83329   0.02355   0.00000  Uiso   1.00
C396   C     0.50148   0.83332   0.47658   0.00000  Uiso   1.00
C397   C     0.47602   0.78719   0.04754   0.00000  Uiso   1.00
C398   C     0.52398   0.87939   0.45259   0.00000  Uiso   1.00
C399   C     0.54002   0.92469   0.02331   0.00000  Uiso   1.00
C400   C     0.45980   0.74195   0.47684   0.00000  Uiso   1.00
H401   H     0.46430   0.75345   0.11451   0.00000  Uiso   1.00
H402   H     0.53607   0.91304   0.38562   0.00000  Uiso   1.00
H403   H     0.53253   0.91418   0.11163   0.00000  Uiso   1.00
H404   H     0.46710   0.75255   0.38852   0.00000  Uiso   1.00
H405   H     0.55528   0.95952   0.04186   0.00000  Uiso   1.00
H406   H     0.44447   0.70714   0.45830   0.00000  Uiso   1.00
H407   H     0.33782   0.79389   0.21597   0.00000  Uiso   1.00
H408   H     0.66218   0.87281   0.28400   0.00000  Uiso   1.00
N409   N     0.65011   0.81932   0.23783   0.00000  Uiso   1.00
N410   N     0.34989   0.84735   0.26217   0.00000  Uiso   1.00
O411   O     0.46308   0.91286   0.25298   0.00000  Uiso   1.00
O412   O     0.53692   0.75381   0.24701   0.00000  Uiso   1.00
O413   O     0.55946   0.90387   0.24518   0.00000  Uiso   1.00
O414   O     0.44054   0.76279   0.25481   0.00000  Uiso   1.00
O415   O     0.45181   0.83784   0.31997   0.00000  Uiso   1.00
O416   O     0.54819   0.82883   0.18002   0.00000  Uiso   1.00
O417   O     0.54819   0.82885   0.31217   0.00000  Uiso   1.00
O418   O     0.45181   0.83781   0.18782   0.00000  Uiso   1.00
Zn419  Zn    0.43565   0.83933   0.25521   0.00000  Uiso   1.00
Zn420  Zn    0.56435   0.82734   0.24479   0.00000  Uiso   1.00
C421   C     0.57177   0.97398   0.45466   0.00000  Uiso   1.00
H422   H     0.56741   0.67868   0.47157   0.00000  Uiso   1.00
O423   O     0.60240   0.97225   0.41969   0.00000  Uiso   1.00
C424   C     0.42829   0.69258   0.04553   0.00000  Uiso   1.00
H425   H     0.43248   0.98791   0.02853   0.00000  Uiso   1.00
O426   O     0.39793   0.69424   0.08065   0.00000  Uiso   1.00
C427   C     0.57695   0.66888   0.20013   0.00000  Uiso   1.00
H428   H     0.61488   0.98038   0.20354   0.00000  Uiso   1.00
O429   O     0.58019   0.70573   0.17369   0.00000  Uiso   1.00
C430   C     0.41502   0.99341   0.22169   0.00000  Uiso   1.00
H431   H     0.40832   0.96014   0.19873   0.00000  Uiso   1.00
O432   O     0.37295   0.67908   0.24087   0.00000  Uiso   1.00
C433   C     0.84800   0.93108   0.24181   0.00000  Uiso   1.00
C434   C     0.81780   0.73532   0.24448   0.00000  Uiso   1.00
C435   C     0.87777   0.92512   0.47636   0.00000  Uiso   1.00
C436   C     0.78886   0.74147   0.02379   0.00000  Uiso   1.00
C437   C     0.85433   0.98430   0.22445   0.00000  Uiso   1.00
C438   C     0.80835   0.68119   0.22964   0.00000  Uiso   1.00
C439   C     0.83414   0.83330   0.33639   0.00000  Uiso   1.00
C440   C     0.83252   0.83331   0.16363   0.00000  Uiso   1.00
C441   C     0.81037   0.78808   0.09437   0.00000  Uiso   1.00
C442   C     0.85645   0.87847   0.40574   0.00000  Uiso   1.00
C443   C     0.83064   0.83371   0.11620   0.00000  Uiso   1.00
C444   C     0.83601   0.83290   0.38388   0.00000  Uiso   1.00
C445   C     0.85043   0.87931   0.09319   0.00000  Uiso   1.00
C446   C     0.81602   0.78737   0.40693   0.00000  Uiso   1.00
C447   C     0.85150   0.87942   0.04668   0.00000  Uiso   1.00
C448   C     0.81499   0.78723   0.45345   0.00000  Uiso   1.00
C449   C     0.83176   0.83329   0.02355   0.00000  Uiso   1.00
C450   C     0.83481   0.83332   0.47658   0.00000  Uiso   1.00
C451   C     0.80936   0.78719   0.04754   0.00000  Uiso   1.00
C452   C     0.85732   0.87939   0.45259   0.00000  Uiso   1.00
C453   C     0.87335   0.92469   0.02331   0.00000  Uiso   1.00
C454   C     0.79313   0.74195   0.47684   0.00000  Uiso   1.00
H455   H     0.79764   0.75345   0.11451   0.00000  Uiso   1.00
H456   H     0.86940   0.91304   0.38562   0.00000  Uiso   1.00
H457   H     0.86587   0.91418   0.11163   0.00000  Uiso   1.00
H458   H     0.80043   0.75255   0.38852   0.00000  Uiso   1.00
H459   H     0.88862   0.95952   0.04186   0.00000  Uiso   1.00
H460   H     0.77780   0.70714   0.45830   0.00000  Uiso   1.00
H461   H     0.67115   0.79389   0.21597   0.00000  Uiso   1.00
H462   H     0.99552   0.87281   0.28400   0.00000  Uiso   1.00
N463   N     0.98344   0.81932   0.23783   0.00000  Uiso   1.00
N464   N     0.68322   0.84735   0.26217   0.00000  Uiso   1.00
O465   O     0.79642   0.91286   0.25298   0.00000  Uiso   1.00
O466   O     0.87025   0.75381   0.24701   0.00000  Uiso   1.00
O467   O     0.89280   0.90387   0.24518   0.00000  Uiso   1.00
O468   O     0.77387   0.76279   0.25481   0.00000  Uiso   1.00
O469   O     0.78514   0.83784   0.31997   0.00000  Uiso   1.00
O470   O     0.88153   0.82883   0.18002   0.00000  Uiso   1.00
O471   O     0.88152   0.82885   0.31217   0.00000  Uiso   1.00
O472   O     0.78515   0.83781   0.18782   0.00000  Uiso   1.00
Zn473  Zn    0.76898   0.83933   0.25521   0.00000  Uiso   1.00
Zn474  Zn    0.89769   0.82734   0.24479   0.00000  Uiso   1.00
C475   C     0.90510   0.97398   0.45466   0.00000  Uiso   1.00
H476   H     0.90074   0.67868   0.47157   0.00000  Uiso   1.00
O477   O     0.93574   0.97225   0.41969   0.00000  Uiso   1.00
C478   C     0.76162   0.69258   0.04553   0.00000  Uiso   1.00
H479   H     0.76581   0.98791   0.02853   0.00000  Uiso   1.00
O480   O     0.73126   0.69424   0.08065   0.00000  Uiso   1.00
C481   C     0.91028   0.66888   0.20013   0.00000  Uiso   1.00
H482   H     0.94821   0.98038   0.20354   0.00000  Uiso   1.00
O483   O     0.91352   0.70573   0.17369   0.00000  Uiso   1.00
C484   C     0.74835   0.99341   0.22169   0.00000  Uiso   1.00
H485   H     0.74166   0.96014   0.19873   0.00000  Uiso   1.00
O486   O     0.70628   0.67908   0.24087   0.00000  Uiso   1.00
C487   C     0.18133   0.26442   0.74181   0.00000  Uiso   1.00
C488   C     0.15113   0.06865   0.74448   0.00000  Uiso   1.00
C489   C     0.21110   0.25846   0.97636   0.00000  Uiso   1.00
C490   C     0.12220   0.07480   0.52379   0.00000  Uiso   1.00
C491   C     0.18766   0.31763   0.72445   0.00000  Uiso   1.00
C492   C     0.14168   0.01452   0.72964   0.00000  Uiso   1.00
C493   C     0.16747   0.16664   0.83639   0.00000  Uiso   1.00
C494   C     0.16586   0.16665   0.66363   0.00000  Uiso   1.00
C495   C     0.14371   0.12141   0.59437   0.00000  Uiso   1.00
C496   C     0.18978   0.21180   0.90574   0.00000  Uiso   1.00
C497   C     0.16397   0.16704   0.61620   0.00000  Uiso   1.00
C498   C     0.16934   0.16623   0.88388   0.00000  Uiso   1.00
C499   C     0.18376   0.21264   0.59319   0.00000  Uiso   1.00
C500   C     0.14935   0.12071   0.90693   0.00000  Uiso   1.00
C501   C     0.18483   0.21276   0.54668   0.00000  Uiso   1.00
C502   C     0.14833   0.12056   0.95345   0.00000  Uiso   1.00
C503   C     0.16509   0.16662   0.52355   0.00000  Uiso   1.00
C504   C     0.16814   0.16666   0.97658   0.00000  Uiso   1.00
C505   C     0.14269   0.12052   0.54754   0.00000  Uiso   1.00
C506   C     0.19065   0.21272   0.95259   0.00000  Uiso   1.00
C507   C     0.20668   0.25803   0.52331   0.00000  Uiso   1.00
C508   C     0.12647   0.07528   0.97684   0.00000  Uiso   1.00
H509   H     0.13097   0.08679   0.61451   0.00000  Uiso   1.00
H510   H     0.20274   0.24638   0.88562   0.00000  Uiso   1.00
H511   H     0.19920   0.24751   0.61163   0.00000  Uiso   1.00
H512   H     0.13377   0.08588   0.88852   0.00000  Uiso   1.00
H513   H     0.22195   0.29286   0.54186   0.00000  Uiso   1.00
H514   H     0.11114   0.04047   0.95830   0.00000  Uiso   1.00
H515   H     0.00449   0.12722   0.71597   0.00000  Uiso   1.00
H516   H     0.32885   0.20614   0.78400   0.00000  Uiso   1.00
N517   N     0.31678   0.15265   0.73783   0.00000  Uiso   1.00
N518   N     0.01656   0.18068   0.76217   0.00000  Uiso   1.00
O519   O     0.12975   0.24619   0.75298   0.00000  Uiso   1.00
O520   O     0.20358   0.08714   0.74701   0.00000  Uiso   1.00
O521   O     0.22613   0.23721   0.74518   0.00000  Uiso   1.00
O522   O     0.10720   0.09613   0.75481   0.00000  Uiso   1.00
O523   O     0.11847   0.17117   0.81997   0.00000  Uiso   1.00
O524   O     0.21486   0.16216   0.68002   0.00000  Uiso   1.00
O525   O     0.21485   0.16219   0.81217   0.00000  Uiso   1.00
O526   O     0.11848   0.17115   0.68782   0.00000  Uiso   1.00
Zn527  Zn    0.10231   0.17266   0.75521   0.00000  Uiso   1.00
Zn528  Zn    0.23102   0.16067   0.74479   0.00000  Uiso   1.00
C529   C     0.23843   0.30731   0.95466   0.00000  Uiso   1.00
H530   H     0.23407   0.01201   0.97157   0.00000  Uiso   1.00
O531   O     0.26907   0.30558   0.91969   0.00000  Uiso   1.00
C532   C     0.09495   0.02591   0.54553   0.00000  Uiso   1.00
H533   H     0.09914   0.32124   0.52853   0.00000  Uiso   1.00
O534   O     0.06460   0.02757   0.58065   0.00000  Uiso   1.00
C535   C     0.24361   0.00222   0.70013   0.00000  Uiso   1.00
H536   H     0.28155   0.31371   0.70354   0.00000  Uiso   1.00
O537   O     0.24686   0.03906   0.67369   0.00000  Uiso   1.00
C538   C     0.08168   0.32674   0.72169   0.00000  Uiso   1.00
H539   H     0.07499   0.29348   0.69873   0.00000  Uiso   1.00
O540   O     0.03962   0.01242   0.74087   0.00000  Uiso   1.00
C541   C     0.51466   0.26442   0.74181   0.00000  Uiso   1.00
C542   C     0.48447   0.06865   0.74448   0.00000  Uiso   1.00
C543   C     0.54443   0.25846   0.97636   0.00000  Uiso   1.00
C544   C     0.45553   0.07480   0.52379   0.00000  Uiso   1.00
C545   C     0.52100   0.31763   0.72445   0.00000  Uiso   1.00
C546   C     0.47501   0.01452   0.72964   0.00000  Uiso   1.00
C547   C     0.50080   0.16664   0.83639   0.00000  Uiso   1.00
C548   C     0.49919   0.16665   0.66363   0.00000  Uiso   1.00
C549   C     0.47704   0.12141   0.59437   0.00000  Uiso   1.00
C550   C     0.52312   0.21180   0.90574   0.00000  Uiso   1.00
C551   C     0.49731   0.16704   0.61620   0.00000  Uiso   1.00
C552   C     0.50268   0.16623   0.88388   0.00000  Uiso   1.00
C553   C     0.51709   0.21264   0.59319   0.00000  Uiso   1.00
C554   C     0.48268   0.12071   0.90693   0.00000  Uiso   1.00
C555   C     0.51816   0.21276   0.54668   0.00000  Uiso   1.00
C556   C     0.48166   0.12056   0.95345   0.00000  Uiso   1.00
C557   C     0.49843   0.16662   0.52355   0.00000  Uiso   1.00
C558   C     0.50148   0.16666   0.97658   0.00000  Uiso   1.00
C559   C     0.47602   0.12052   0.54754   0.00000  Uiso   1.00
C560   C     0.52398   0.21272   0.95259   0.00000  Uiso   1.00
C561   C     0.54002   0.25803   0.52331   0.00000  Uiso   1.00
C562   C     0.45980   0.07528   0.97684   0.00000  Uiso   1.00
H563   H     0.46430   0.08679   0.61451   0.00000  Uiso   1.00
H564   H     0.53607   0.24638   0.88562   0.00000  Uiso   1.00
H565   H     0.53253   0.24751   0.61163   0.00000  Uiso   1.00
H566   H     0.46710   0.08588   0.88852   0.00000  Uiso   1.00
H567   H     0.55528   0.29286   0.54186   0.00000  Uiso   1.00
H568   H     0.44447   0.04047   0.95830   0.00000  Uiso   1.00
H569   H     0.33782   0.12722   0.71597   0.00000  Uiso   1.00
H570   H     0.66218   0.20614   0.78400   0.00000  Uiso   1.00
N571   N     0.65011   0.15265   0.73783   0.00000  Uiso   1.00
N572   N     0.34989   0.18068   0.76217   0.00000  Uiso   1.00
O573   O     0.46308   0.24619   0.75298   0.00000  Uiso   1.00
O574   O     0.53692   0.08714   0.74701   0.00000  Uiso   1.00
O575   O     0.55946   0.23721   0.74518   0.00000  Uiso   1.00
O576   O     0.44054   0.09613   0.75481   0.00000  Uiso   1.00
O577   O     0.45181   0.17117   0.81997   0.00000  Uiso   1.00
O578   O     0.54819   0.16216   0.68002   0.00000  Uiso   1.00
O579   O     0.54819   0.16219   0.81217   0.00000  Uiso   1.00
O580   O     0.45181   0.17115   0.68782   0.00000  Uiso   1.00
Zn581  Zn    0.43565   0.17266   0.75521   0.00000  Uiso   1.00
Zn582  Zn    0.56435   0.16067   0.74479   0.00000  Uiso   1.00
C583   C     0.57177   0.30731   0.95466   0.00000  Uiso   1.00
H584   H     0.56741   0.01201   0.97157   0.00000  Uiso   1.00
O585   O     0.60240   0.30558   0.91969   0.00000  Uiso   1.00
C586   C     0.42829   0.02591   0.54553   0.00000  Uiso   1.00
H587   H     0.43248   0.32124   0.52853   0.00000  Uiso   1.00
O588   O     0.39793   0.02757   0.58065   0.00000  Uiso   1.00
C589   C     0.57695   0.00222   0.70013   0.00000  Uiso   1.00
H590   H     0.61488   0.31371   0.70354   0.00000  Uiso   1.00
O591   O     0.58019   0.03906   0.67369   0.00000  Uiso   1.00
C592   C     0.41502   0.32674   0.72169   0.00000  Uiso   1.00
H593   H     0.40832   0.29348   0.69873   0.00000  Uiso   1.00
O594   O     0.37295   0.01242   0.74087   0.00000  Uiso   1.00
C595   C     0.84800   0.26442   0.74181   0.00000  Uiso   1.00
C596   C     0.81780   0.06865   0.74448   0.00000  Uiso   1.00
C597   C     0.87777   0.25846   0.97636   0.00000  Uiso   1.00
C598   C     0.78886   0.07480   0.52379   0.00000  Uiso   1.00
C599   C     0.85433   0.31763   0.72445   0.00000  Uiso   1.00
C600   C     0.80835   0.01452   0.72964   0.00000  Uiso   1.00
C601   C     0.83414   0.16664   0.83639   0.00000  Uiso   1.00
C602   C     0.83252   0.16665   0.66363   0.00000  Uiso   1.00
C603   C     0.81037   0.12141   0.59437   0.00000  Uiso   1.00
C604   C     0.85645   0.21180   0.90574   0.00000  Uiso   1.00
C605   C     0.83064   0.16704   0.61620   0.00000  Uiso   1.00
C606   C     0.83601   0.16623   0.88388   0.00000  Uiso   1.00
C607   C     0.85043   0.21264   0.59319   0.00000  Uiso   1.00
C608   C     0.81602   0.12071   0.90693   0.00000  Uiso   1.00
C609   C     0.85150   0.21276   0.54668   0.00000  Uiso   1.00
C610   C     0.81499   0.12056   0.95345   0.00000  Uiso   1.00
C611   C     0.83176   0.16662   0.52355   0.00000  Uiso   1.00
C612   C     0.83481   0.16666   0.97658   0.00000  Uiso   1.00
C613   C     0.80936   0.12052   0.54754   0.00000  Uiso   1.00
C614   C     0.85732   0.21272   0.95259   0.00000  Uiso   1.00
C615   C     0.87335   0.25803   0.52331   0.00000  Uiso   1.00
C616   C     0.79313   0.07528   0.97684   0.00000  Uiso   1.00
H617   H     0.79764   0.08679   0.61451   0.00000  Uiso   1.00
H618   H     0.86940   0.24638   0.88562   0.00000  Uiso   1.00
H619   H     0.86587   0.24751   0.61163   0.00000  Uiso   1.00
H620   H     0.80043   0.08588   0.88852   0.00000  Uiso   1.00
H621   H     0.88862   0.29286   0.54186   0.00000  Uiso   1.00
H622   H     0.77780   0.04047   0.95830   0.00000  Uiso   1.00
H623   H     0.67115   0.12722   0.71597   0.00000  Uiso   1.00
H624   H     0.99552   0.20614   0.78400   0.00000  Uiso   1.00
N625   N     0.98344   0.15265   0.73783   0.00000  Uiso   1.00
N626   N     0.68322   0.18068   0.76217   0.00000  Uiso   1.00
O627   O     0.79642   0.24619   0.75298   0.00000  Uiso   1.00
O628   O     0.87025   0.08714   0.74701   0.00000  Uiso   1.00
O629   O     0.89280   0.23721   0.74518   0.00000  Uiso   1.00
O630   O     0.77387   0.09613   0.75481   0.00000  Uiso   1.00
O631   O     0.78514   0.17117   0.81997   0.00000  Uiso   1.00
O632   O     0.88153   0.16216   0.68002   0.00000  Uiso   1.00
O633   O     0.88152   0.16219   0.81217   0.00000  Uiso   1.00
O634   O     0.78515   0.17115   0.68782   0.00000  Uiso   1.00
Zn635  Zn    0.76898   0.17266   0.75521   0.00000  Uiso   1.00
Zn636  Zn    0.89769   0.16067   0.74479   0.00000  Uiso   1.00
C637   C     0.90510   0.30731   0.95466   0.00000  Uiso   1.00
H638   H     0.90074   0.01201   0.97157   0.00000  Uiso   1.00
O639   O     0.93574   0.30558   0.91969   0.00000  Uiso   1.00
C640   C     0.76162   0.02591   0.54553   0.00000  Uiso   1.00
H641   H     0.76581   0.32124   0.52853   0.00000  Uiso   1.00
O642   O     0.73126   0.02757   0.58065   0.00000  Uiso   1.00
C643   C     0.91028   0.00222   0.70013   0.00000  Uiso   1.00
H644   H     0.94821   0.31371   0.70354   0.00000  Uiso   1.00
O645   O     0.91352   0.03906   0.67369   0.00000  Uiso   1.00
C646   C     0.74835   0.32674   0.72169   0.00000  Uiso   1.00
H647   H     0.74166   0.29348   0.69873   0.00000  Uiso   1.00
O648   O     0.70628   0.01242   0.74087   0.00000  Uiso   1.00
C649   C     0.18133   0.59775   0.74181   0.00000  Uiso   1.00
C650   C     0.15113   0.40198   0.74448   0.00000  Uiso   1.00
C651   C     0.21110   0.59179   0.97636   0.00000  Uiso   1.00
C652   C     0.12220   0.40813   0.52379   0.00000  Uiso   1.00
C653   C     0.18766   0.65096   0.72445   0.00000  Uiso   1.00
C654   C     0.14168   0.34785   0.72964   0.00000  Uiso   1.00
C655   C     0.16747   0.49997   0.83639   0.00000  Uiso   1.00
C656   C     0.16586   0.49998   0.66363   0.00000  Uiso   1.00
C657   C     0.14371   0.45474   0.59437   0.00000  Uiso   1.00
C658   C     0.18978   0.54513   0.90574   0.00000  Uiso   1.00
C659   C     0.16397   0.50038   0.61620   0.00000  Uiso   1.00
C660   C     0.16934   0.49957   0.88388   0.00000  Uiso   1.00
C661   C     0.18376   0.54597   0.59319   0.00000  Uiso   1.00
C662   C     0.14935   0.45404   0.90693   0.00000  Uiso   1.00
C663   C     0.18483   0.54609   0.54668   0.00000  Uiso   1.00
C664   C     0.14833   0.45389   0.95345   0.00000  Uiso   1.00
C665   C     0.16509   0.49996   0.52355   0.00000  Uiso   1.00
C666   C     0.16814   0.49999   0.97658   0.00000  Uiso   1.00
C667   C     0.14269   0.45386   0.54754   0.00000  Uiso   1.00
C668   C     0.19065   0.54605   0.95259   0.00000  Uiso   1.00
C669   C     0.20668   0.59136   0.52331   0.00000  Uiso   1.00
C670   C     0.12647   0.40862   0.97684   0.00000  Uiso   1.00
H671   H     0.13097   0.42012   0.61451   0.00000  Uiso   1.00
H672   H     0.20274   0.57971   0.88562   0.00000  Uiso   1.00
H673   H     0.19920   0.58085   0.61163   0.00000  Uiso   1.00
H674   H     0.13377   0.41921   0.88852   0.00000  Uiso   1.00
H675   H     0.22195   0.62619   0.54186   0.00000  Uiso   1.00
H676   H     0.11114   0.37381   0.95830   0.00000  Uiso   1.00
H677   H     0.00449   0.46055   0.71597   0.00000  Uiso   1.00
H678   H     0.32885   0.53948   0.78400   0.00000  Uiso   1.00
N679   N     0.31678   0.48598   0.73783   0.00000  Uiso   1.00
N680   N     0.01656   0.51402   0.76217   0.00000  Uiso   1.00
O681   O     0.12975   0.57952   0.75298   0.00000  Uiso   1.00
O682   O     0.20358   0.42048   0.74701   0.00000  Uiso   1.00
O683   O     0.22613   0.57054   0.74518   0.00000  Uiso   1.00
O684   O     0.10720   0.42946   0.75481   0.00000  Uiso   1.00
O685   O     0.11847   0.50450   0.81997   0.00000  Uiso   1.00
O686   O     0.21486   0.49550   0.68002   0.00000  Uiso   1.00
O687   O     0.21485   0.49552   0.81217   0.00000  Uiso   1.00
O688   O     0.11848   0.50448   0.68782   0.00000  Uiso   1.00
Zn689  Zn    0.10231   0.50600   0.75521   0.00000  Uiso   1.00
Zn690  Zn    0.23102   0.49400   0.74479   0.00000  Uiso   1.00
C691   C     0.23843   0.64064   0.95466   0.00000  Uiso   1.00
H692   H     0.23407   0.34535   0.97157   0.00000  Uiso   1.00
O693   O     0.26907   0.63891   0.91969   0.00000  Uiso   1.00
C694   C     0.09495   0.35924   0.54553   0.00000  Uiso   1.00
H695   H     0.09914   0.65458   0.52853   0.00000  Uiso   1.00
O696   O     0.06460   0.36090   0.58065   0.00000  Uiso   1.00
C697   C     0.24361   0.33555   0.70013   0.00000  Uiso   1.00
H698   H     0.28155   0.64704   0.70354   0.00000  Uiso   1.00
O699   O     0.24686   0.37239   0.67369   0.00000  Uiso   1.00
C700   C     0.08168   0.66008   0.72169   0.00000  Uiso   1.00
H701   H     0.07499   0.62681   0.69873   0.00000  Uiso   1.00
O702   O     0.03962   0.34575   0.74087   0.00000  Uiso   1.00
C703   C     0.51466   0.59775   0.74181   0.00000  Uiso   1.00
C704   C     0.48447   0.40198   0.74448   0.00000  Uiso   1.00
C705   C     0.54443   0.59179   0.97636   0.00000  Uiso   1.00
C706   C     0.45553   0.40813   0.52379   0.00000  Uiso   1.00
C707   C     0.52100   0.65096   0.72445   0.00000  Uiso   1.00
C708   C     0.47501   0.34785   0.72964   0.00000  Uiso   1.00
C709   C     0.50080   0.49997   0.83639   0.00000  Uiso   1.00
C710   C     0.49919   0.49998   0.66363   0.00000  Uiso   1.00
C711   C     0.47704   0.45474   0.59437   0.00000  Uiso   1.00
C712   C     0.52312   0.54513   0.90574   0.00000  Uiso   1.00
C713   C     0.49731   0.50038   0.61620   0.00000  Uiso   1.00
C714   C     0.50268   0.49957   0.88388   0.00000  Uiso   1.00
C715   C     0.51709   0.54597   0.59319   0.00000  Uiso   1.00
C716   C     0.48268   0.45404   0.90693   0.00000  Uiso   1.00
C717   C     0.51816   0.54609   0.54668   0.00000  Uiso   1.00
C718   C     0.48166   0.45389   0.95345   0.00000  Uiso   1.00
C719   C     0.49843   0.49996   0.52355   0.00000  Uiso   1.00
C720   C     0.50148   0.49999   0.97658   0.00000  Uiso   1.00
C721   C     0.47602   0.45386   0.54754   0.00000  Uiso   1.00
C722   C     0.52398   0.54605   0.95259   0.00000  Uiso   1.00
C723   C     0.54002   0.59136   0.52331   0.00000  Uiso   1.00
C724   C     0.45980   0.40862   0.97684   0.00000  Uiso   1.00
H725   H     0.46430   0.42012   0.61451   0.00000  Uiso   1.00
H726   H     0.53607   0.57971   0.88562   0.00000  Uiso   1.00
H727   H     0.53253   0.58085   0.61163   0.00000  Uiso   1.00
H728   H     0.46710   0.41921   0.88852   0.00000  Uiso   1.00
H729   H     0.55528   0.62619   0.54186   0.00000  Uiso   1.00
H730   H     0.44447   0.37381   0.95830   0.00000  Uiso   1.00
H731   H     0.33782   0.46055   0.71597   0.00000  Uiso   1.00
H732   H     0.66218   0.53948   0.78400   0.00000  Uiso   1.00
N733   N     0.65011   0.48598   0.73783   0.00000  Uiso   1.00
N734   N     0.34989   0.51402   0.76217   0.00000  Uiso   1.00
O735   O     0.46308   0.57952   0.75298   0.00000  Uiso   1.00
O736   O     0.53692   0.42048   0.74701   0.00000  Uiso   1.00
O737   O     0.55946   0.57054   0.74518   0.00000  Uiso   1.00
O738   O     0.44054   0.42946   0.75481   0.00000  Uiso   1.00
O739   O     0.45181   0.50450   0.81997   0.00000  Uiso   1.00
O740   O     0.54819   0.49550   0.68002   0.00000  Uiso   1.00
O741   O     0.54819   0.49552   0.81217   0.00000  Uiso   1.00
O742   O     0.45181   0.50448   0.68782   0.00000  Uiso   1.00
Zn743  Zn    0.43565   0.50600   0.75521   0.00000  Uiso   1.00
Zn744  Zn    0.56435   0.49400   0.74479   0.00000  Uiso   1.00
C745   C     0.57177   0.64064   0.95466   0.00000  Uiso   1.00
H746   H     0.56741   0.34535   0.97157   0.00000  Uiso   1.00
O747   O     0.60240   0.63891   0.91969   0.00000  Uiso   1.00
C748   C     0.42829   0.35924   0.54553   0.00000  Uiso   1.00
H749   H     0.43248   0.65458   0.52853   0.00000  Uiso   1.00
O750   O     0.39793   0.36090   0.58065   0.00000  Uiso   1.00
C751   C     0.57695   0.33555   0.70013   0.00000  Uiso   1.00
H752   H     0.61488   0.64704   0.70354   0.00000  Uiso   1.00
O753   O     0.58019   0.37239   0.67369   0.00000  Uiso   1.00
C754   C     0.41502   0.66008   0.72169   0.00000  Uiso   1.00
H755   H     0.40832   0.62681   0.69873   0.00000  Uiso   1.00
O756   O     0.37295   0.34575   0.74087   0.00000  Uiso   1.00
C757   C     0.84800   0.59775   0.74181   0.00000  Uiso   1.00
C758   C     0.81780   0.40198   0.74448   0.00000  Uiso   1.00
C759   C     0.87777   0.59179   0.97636   0.00000  Uiso   1.00
C760   C     0.78886   0.40813   0.52379   0.00000  Uiso   1.00
C761   C     0.85433   0.65096   0.72445   0.00000  Uiso   1.00
C762   C     0.80835   0.34785   0.72964   0.00000  Uiso   1.00
C763   C     0.83414   0.49997   0.83639   0.00000  Uiso   1.00
C764   C     0.83252   0.49998   0.66363   0.00000  Uiso   1.00
C765   C     0.81037   0.45474   0.59437   0.00000  Uiso   1.00
C766   C     0.85645   0.54513   0.90574   0.00000  Uiso   1.00
C767   C     0.83064   0.50038   0.61620   0.00000  Uiso   1.00
C768   C     0.83601   0.49957   0.88388   0.00000  Uiso   1.00
C769   C     0.85043   0.54597   0.59319   0.00000  Uiso   1.00
C770   C     0.81602   0.45404   0.90693   0.00000  Uiso   1.00
C771   C     0.85150   0.54609   0.54668   0.00000  Uiso   1.00
C772   C     0.81499   0.45389   0.95345   0.00000  Uiso   1.00
C773   C     0.83176   0.49996   0.52355   0.00000  Uiso   1.00
C774   C     0.83481   0.49999   0.97658   0.00000  Uiso   1.00
C775   C     0.80936   0.45386   0.54754   0.00000  Uiso   1.00
C776   C     0.85732   0.54605   0.95259   0.00000  Uiso   1.00
C777   C     0.87335   0.59136   0.52331   0.00000  Uiso   1.00
C778   C     0.79313   0.40862   0.97684   0.00000  Uiso   1.00
H779   H     0.79764   0.42012   0.61451   0.00000  Uiso   1.00
H780   H     0.86940   0.57971   0.88562   0.00000  Uiso   1.00
H781   H     0.86587   0.58085   0.61163   0.00000  Uiso   1.00
H782   H     0.80043   0.41921   0.88852   0.00000  Uiso   1.00
H783   H     0.88862   0.62619   0.54186   0.00000  Uiso   1.00
H784   H     0.77780   0.37381   0.95830   0.00000  Uiso   1.00
H785   H     0.67115   0.46055   0.71597   0.00000  Uiso   1.00
H786   H     0.99552   0.53948   0.78400   0.00000  Uiso   1.00
N787   N     0.98344   0.48598   0.73783   0.00000  Uiso   1.00
N788   N     0.68322   0.51402   0.76217   0.00000  Uiso   1.00
O789   O     0.79642   0.57952   0.75298   0.00000  Uiso   1.00
O790   O     0.87025   0.42048   0.74701   0.00000  Uiso   1.00
O791   O     0.89280   0.57054   0.74518   0.00000  Uiso   1.00
O792   O     0.77387   0.42946   0.75481   0.00000  Uiso   1.00
O793   O     0.78514   0.50450   0.81997   0.00000  Uiso   1.00
O794   O     0.88153   0.49550   0.68002   0.00000  Uiso   1.00
O795   O     0.88152   0.49552   0.81217   0.00000  Uiso   1.00
O796   O     0.78515   0.50448   0.68782   0.00000  Uiso   1.00
Zn797  Zn    0.76898   0.50600   0.75521   0.00000  Uiso   1.00
Zn798  Zn    0.89769   0.49400   0.74479   0.00000  Uiso   1.00
C799   C     0.90510   0.64064   0.95466   0.00000  Uiso   1.00
H800   H     0.90074   0.34535   0.97157   0.00000  Uiso   1.00
O801   O     0.93574   0.63891   0.91969   0.00000  Uiso   1.00
C802   C     0.76162   0.35924   0.54553   0.00000  Uiso   1.00
H803   H     0.76581   0.65458   0.52853   0.00000  Uiso   1.00
O804   O     0.73126   0.36090   0.58065   0.00000  Uiso   1.00
C805   C     0.91028   0.33555   0.70013   0.00000  Uiso   1.00
H806   H     0.94821   0.64704   0.70354   0.00000  Uiso   1.00
O807   O     0.91352   0.37239   0.67369   0.00000  Uiso   1.00
C808   C     0.74835   0.66008   0.72169   0.00000  Uiso   1.00
H809   H     0.74166   0.62681   0.69873   0.00000  Uiso   1.00
O810   O     0.70628   0.34575   0.74087   0.00000  Uiso   1.00
C811   C     0.18133   0.93108   0.74181   0.00000  Uiso   1.00
C812   C     0.15113   0.73532   0.74448   0.00000  Uiso   1.00
C813   C     0.21110   0.92512   0.97636   0.00000  Uiso   1.00
C814   C     0.12220   0.74147   0.52379   0.00000  Uiso   1.00
C815   C     0.18766   0.98430   0.72445   0.00000  Uiso   1.00
C816   C     0.14168   0.68119   0.72964   0.00000  Uiso   1.00
C817   C     0.16747   0.83330   0.83639   0.00000  Uiso   1.00
C818   C     0.16586   0.83331   0.66363   0.00000  Uiso   1.00
C819   C     0.14371   0.78808   0.59437   0.00000  Uiso   1.00
C820   C     0.18978   0.87847   0.90574   0.00000  Uiso   1.00
C821   C     0.16397   0.83371   0.61620   0.00000  Uiso   1.00
C822   C     0.16934   0.83290   0.88388   0.00000  Uiso   1.00
C823   C     0.18376   0.87931   0.59319   0.00000  Uiso   1.00
C824   C     0.14935   0.78737   0.90693   0.00000  Uiso   1.00
C825   C     0.18483   0.87942   0.54668   0.00000  Uiso   1.00
C826   C     0.14833   0.78723   0.95345   0.00000  Uiso   1.00
C827   C     0.16509   0.83329   0.52355   0.00000  Uiso   1.00
C828   C     0.16814   0.83332   0.97658   0.00000  Uiso   1.00
C829   C     0.14269   0.78719   0.54754   0.00000  Uiso   1.00
C830   C     0.19065   0.87939   0.95259   0.00000  Uiso   1.00
C831   C     0.20668   0.92469   0.52331   0.00000  Uiso   1.00
C832   C     0.12647   0.74195   0.97684   0.00000  Uiso   1.00
H833   H     0.13097   0.75345   0.61451   0.00000  Uiso   1.00
H834   H     0.20274   0.91304   0.88562   0.00000  Uiso   1.00
H835   H     0.19920   0.91418   0.61163   0.00000  Uiso   1.00
H836   H     0.13377   0.75255   0.88852   0.00000  Uiso   1.00
H837   H     0.22195   0.95952   0.54186   0.00000  Uiso   1.00
H838   H     0.11114   0.70714   0.95830   0.00000  Uiso   1.00
H839   H     0.00449   0.79389   0.71597   0.00000  Uiso   1.00
H840   H     0.32885   0.87281   0.78400   0.00000  Uiso   1.00
N841   N     0.31678   0.81932   0.73783   0.00000  Uiso   1.00
N842   N     0.01656   0.84735   0.76217   0.00000  Uiso   1.00
O843   O     0.12975   0.91286   0.75298   0.00000  Uiso   1.00
O844   O     0.20358   0.75381   0.74701   0.00000  Uiso   1.00
O845   O     0.22613   0.90387   0.74518   0.00000  Uiso   1.00
O846   O     0.10720   0.76279   0.75481   0.00000  Uiso   1.00
O847   O     0.11847   0.83784   0.81997   0.00000  Uiso   1.00
O848   O     0.21486   0.82883   0.68002   0.00000  Uiso   1.00
O849   O     0.21485   0.82885   0.81217   0.00000  Uiso   1.00
O850   O     0.11848   0.83781   0.68782   0.00000  Uiso   1.00
Zn851  Zn    0.10231   0.83933   0.75521   0.00000  Uiso   1.00
Zn852  Zn    0.23102   0.82734   0.74479   0.00000  Uiso   1.00
C853   C     0.23843   0.97398   0.95466   0.00000  Uiso   1.00
H854   H     0.23407   0.67868   0.97157   0.00000  Uiso   1.00
O855   O     0.26907   0.97225   0.91969   0.00000  Uiso   1.00
C856   C     0.09495   0.69258   0.54553   0.00000  Uiso   1.00
H857   H     0.09914   0.98791   0.52853   0.00000  Uiso   1.00
O858   O     0.06460   0.69424   0.58065   0.00000  Uiso   1.00
C859   C     0.24361   0.66888   0.70013   0.00000  Uiso   1.00
H860   H     0.28155   0.98038   0.70354   0.00000  Uiso   1.00
O861   O     0.24686   0.70573   0.67369   0.00000  Uiso   1.00
C862   C     0.08168   0.99341   0.72169   0.00000  Uiso   1.00
H863   H     0.07499   0.96014   0.69873   0.00000  Uiso   1.00
O864   O     0.03962   0.67908   0.74087   0.00000  Uiso   1.00
C865   C     0.51466   0.93108   0.74181   0.00000  Uiso   1.00
C866   C     0.48447   0.73532   0.74448   0.00000  Uiso   1.00
C867   C     0.54443   0.92512   0.97636   0.00000  Uiso   1.00
C868   C     0.45553   0.74147   0.52379   0.00000  Uiso   1.00
C869   C     0.52100   0.98430   0.72445   0.00000  Uiso   1.00
C870   C     0.47501   0.68119   0.72964   0.00000  Uiso   1.00
C871   C     0.50080   0.83330   0.83639   0.00000  Uiso   1.00
C872   C     0.49919   0.83331   0.66363   0.00000  Uiso   1.00
C873   C     0.47704   0.78808   0.59437   0.00000  Uiso   1.00
C874   C     0.52312   0.87847   0.90574   0.00000  Uiso   1.00
C875   C     0.49731   0.83371   0.61620   0.00000  Uiso   1.00
C876   C     0.50268   0.83290   0.88388   0.00000  Uiso   1.00
C877   C     0.51709   0.87931   0.59319   0.00000  Uiso   1.00
C878   C     0.48268   0.78737   0.90693   0.00000  Uiso   1.00
C879   C     0.51816   0.87942   0.54668   0.00000  Uiso   1.00
C880   C     0.48166   0.78723   0.95345   0.00000  Uiso   1.00
C881   C     0.49843   0.83329   0.52355   0.00000  Uiso   1.00
C882   C     0.50148   0.83332   0.97658   0.00000  Uiso   1.00
C883   C     0.47602   0.78719   0.54754   0.00000  Uiso   1.00
C884   C     0.52398   0.87939   0.95259   0.00000  Uiso   1.00
C885   C     0.54002   0.92469   0.52331   0.00000  Uiso   1.00
C886   C     0.45980   0.74195   0.97684   0.00000  Uiso   1.00
H887   H     0.46430   0.75345   0.61451   0.00000  Uiso   1.00
H888   H     0.53607   0.91304   0.88562   0.00000  Uiso   1.00
H889   H     0.53253   0.91418   0.61163   0.00000  Uiso   1.00
H890   H     0.46710   0.75255   0.88852   0.00000  Uiso   1.00
H891   H     0.55528   0.95952   0.54186   0.00000  Uiso   1.00
H892   H     0.44447   0.70714   0.95830   0.00000  Uiso   1.00
H893   H     0.33782   0.79389   0.71597   0.00000  Uiso   1.00
H894   H     0.66218   0.87281   0.78400   0.00000  Uiso   1.00
N895   N     0.65011   0.81932   0.73783   0.00000  Uiso   1.00
N896   N     0.34989   0.84735   0.76217   0.00000  Uiso   1.00
O897   O     0.46308   0.91286   0.75298   0.00000  Uiso   1.00
O898   O     0.53692   0.75381   0.74701   0.00000  Uiso   1.00
O899   O     0.55946   0.90387   0.74518   0.00000  Uiso   1.00
O900   O     0.44054   0.76279   0.75481   0.00000  Uiso   1.00
O901   O     0.45181   0.83784   0.81997   0.00000  Uiso   1.00
O902   O     0.54819   0.82883   0.68002   0.00000  Uiso   1.00
O903   O     0.54819   0.82885   0.81217   0.00000  Uiso   1.00
O904   O     0.45181   0.83781   0.68782   0.00000  Uiso   1.00
Zn905  Zn    0.43565   0.83933   0.75521   0.00000  Uiso   1.00
Zn906  Zn    0.56435   0.82734   0.74479   0.00000  Uiso   1.00
C907   C     0.57177   0.97398   0.95466   0.00000  Uiso   1.00
H908   H     0.56741   0.67868   0.97157   0.00000  Uiso   1.00
O909   O     0.60240   0.97225   0.91969   0.00000  Uiso   1.00
C910   C     0.42829   0.69258   0.54553   0.00000  Uiso   1.00
H911   H     0.43248   0.98791   0.52853   0.00000  Uiso   1.00
O912   O     0.39793   0.69424   0.58065   0.00000  Uiso   1.00
C913   C     0.57695   0.66888   0.70013   0.00000  Uiso   1.00
H914   H     0.61488   0.98038   0.70354   0.00000  Uiso   1.00
O915   O     0.58019   0.70573   0.67369   0.00000  Uiso   1.00
C916   C     0.41502   0.99341   0.72169   0.00000  Uiso   1.00
H917   H     0.40832   0.96014   0.69873   0.00000  Uiso   1.00
O918   O     0.37295   0.67908   0.74087   0.00000  Uiso   1.00
C919   C     0.84800   0.93108   0.74181   0.00000  Uiso   1.00
C920   C     0.81780   0.73532   0.74448   0.00000  Uiso   1.00
C921   C     0.87777   0.92512   0.97636   0.00000  Uiso   1.00
C922   C     0.78886   0.74147   0.52379   0.00000  Uiso   1.00
C923   C     0.85433   0.98430   0.72445   0.00000  Uiso   1.00
C924   C     0.80835   0.68119   0.72964   0.00000  Uiso   1.00
C925   C     0.83414   0.83330   0.83639   0.00000  Uiso   1.00
C926   C     0.83252   0.83331   0.66363   0.00000  Uiso   1.00
C927   C     0.81037   0.78808   0.59437   0.00000  Uiso   1.00
C928   C     0.85645   0.87847   0.90574   0.00000  Uiso   1.00
C929   C     0.83064   0.83371   0.61620   0.00000  Uiso   1.00
C930   C     0.83601   0.83290   0.88388   0.00000  Uiso   1.00
C931   C     0.85043   0.87931   0.59319   0.00000  Uiso   1.00
C932   C     0.81602   0.78737   0.90693   0.00000  Uiso   1.00
C933   C     0.85150   0.87942   0.54668   0.00000  Uiso   1.00
C934   C     0.81499   0.78723   0.95345   0.00000  Uiso   1.00
C935   C     0.83176   0.83329   0.52355   0.00000  Uiso   1.00
C936   C     0.83481   0.83332   0.97658   0.00000  Uiso   1.00
C937   C     0.80936   0.78719   0.54754   0.00000  Uiso   1.00
C938   C     0.85732   0.87939   0.95259   0.00000  Uiso   1.00
C939   C     0.87335   0.92469   0.52331   0.00000  Uiso   1.00
C940   C     0.79313   0.74195   0.97684   0.00000  Uiso   1.00
H941   H     0.79764   0.75345   0.61451   0.00000  Uiso   1.00
H942   H     0.86940   0.91304   0.88562   0.00000  Uiso   1.00
H943   H     0.86587   0.91418   0.61163   0.00000  Uiso   1.00
H944   H     0.80043   0.75255   0.88852   0.00000  Uiso   1.00
H945   H     0.88862   0.95952   0.54186   0.00000  Uiso   1.00
H946   H     0.77780   0.70714   0.95830   0.00000  Uiso   1.00
H947   H     0.67115   0.79389   0.71597   0.00000  Uiso   1.00
H948   H     0.99552   0.87281   0.78400   0.00000  Uiso   1.00
N949   N     0.98344   0.81932   0.73783   0.00000  Uiso   1.00
N950   N     0.68322   0.84735   0.76217   0.00000  Uiso   1.00
O951   O     0.79642   0.91286   0.75298   0.00000  Uiso   1.00
O952   O     0.87025   0.75381   0.74701   0.00000  Uiso   1.00
O953   O     0.89280   0.90387   0.74518   0.00000  Uiso   1.00
O954   O     0.77387   0.76279   0.75481   0.00000  Uiso   1.00
O955   O     0.78514   0.83784   0.81997   0.00000  Uiso   1.00
O956   O     0.88153   0.82883   0.68002   0.00000  Uiso   1.00
O957   O     0.88152   0.82885   0.81217   0.00000  Uiso   1.00
O958   O     0.78515   0.83781   0.68782   0.00000  Uiso   1.00
Zn959  Zn    0.76898   0.83933   0.75521   0.00000  Uiso   1.00
Zn960  Zn    0.89769   0.82734   0.74479   0.00000  Uiso   1.00
C961   C     0.90510   0.97398   0.95466   0.00000  Uiso   1.00
H962   H     0.90074   0.67868   0.97157   0.00000  Uiso   1.00
O963   O     0.93574   0.97225   0.91969   0.00000  Uiso   1.00
C964   C     0.76162   0.69258   0.54553   0.00000  Uiso   1.00
H965   H     0.76581   0.98791   0.52853   0.00000  Uiso   1.00
O966   O     0.73126   0.69424   0.58065   0.00000  Uiso   1.00
C967   C     0.91028   0.66888   0.70013   0.00000  Uiso   1.00
H968   H     0.94821   0.98038   0.70354   0.00000  Uiso   1.00
O969   O     0.91352   0.70573   0.67369   0.00000  Uiso   1.00
C970   C     0.74835   0.99341   0.72169   0.00000  Uiso   1.00
H971   H     0.74166   0.96014   0.69873   0.00000  Uiso   1.00
O972   O     0.70628   0.67908   0.74087   0.00000  Uiso   1.00
loop_
_geom_bond_atom_site_label_1
_geom_bond_atom_site_label_2
_geom_bond_distance
_geom_bond_site_symmetry_2
_ccdc_geom_bond_type
C1     O33     1.281   .     A
C1     C5      1.442   .     S
C1     O35     1.297   .     A
C2     O34     1.286   .     A
C2     C6      1.440   .     S
C2     O36     1.290   .     A
C3     C20     1.420   .     A
C3     C43     1.486   .     S
C3     C507    1.393   .     S
C4     C46     1.486   .     S
C4     C19     1.420   .     A
C4     C508    1.393   1_554 S
C5     C168    1.354   .     S
C5     C211    1.491   .     S
C6     C329    1.354   1_545 S
C6     C376    1.496   1_545 S
C7     O37     1.285   .     A
C7     C12     1.416   .     S
C7     O39     1.284   .     A
C8     C11     1.414   .     S
C8     O38     1.284   .     A
C8     O40     1.284   .     A
C9     C11     1.388   .     A
C9     H23     1.081   .     S
C9     C19     1.394   .     A
C10    C12     1.388   .     A
C10    H24     1.080   .     S
C10    C20     1.394   .     A
C11    C13     1.384   .     A
C12    C14     1.385   .     A
C13    C15     1.381   .     A
C13    H25     1.086   .     S
C14    H26     1.086   .     S
C14    C16     1.382   .     A
C15    C21     1.395   .     A
C15    C17     1.413   .     A
C16    C18     1.413   .     A
C16    C22     1.396   .     A
C17    C19     1.424   .     A
C17    C504    1.393   1_554 S
C18    C20     1.424   .     A
C18    C503    1.393   .     S
C21    H27     1.086   .     S
C21    C489    1.393   1_554 S
C22    H28     1.086   .     S
C22    C490    1.393   .     S
H29    N139    1.029   1_455 S
H30    N86     1.029   .     S
N31    Zn42    2.016   .     S
N31    H83     1.029   .     S
N31    N86     1.271   .     S
N32    Zn41    2.016   .     S
N32    N139    1.271   1_455 S
N32    H138    1.029   1_455 S
O33    Zn41    1.926   .     S
O34    Zn42    1.926   .     S
O35    Zn42    1.945   .     S
O36    Zn41    1.945   .     S
O37    Zn41    1.989   .     S
O38    Zn42    1.989   .     S
O39    Zn42    2.012   .     S
O40    Zn41    2.012   .     S
C43    O45     1.220   .     D
C43    H206    1.086   .     S
H44    C367    1.086   1_545 S
C46    O48     1.220   .     D
C46    H371    1.086   1_545 S
H47    C208    1.086   .     S
C49    O51     1.222   .     D
C49    C329    1.491   1_545 S
C49    H374    1.083   1_545 S
H50    C211    1.083   .     S
C52    H53     1.086   .     S
C52    C168    1.496   .     S
C52    O216    1.220   .     S
O54    C376    1.220   1_545 S
C55    O87     1.281   .     A
C55    C59     1.442   .     S
C55    O89     1.297   .     A
C56    O88     1.286   .     A
C56    C60     1.440   .     S
C56    O90     1.290   .     A
C57    C74     1.420   .     A
C57    C97     1.486   .     S
C57    C561    1.393   .     S
C58    C100    1.486   .     S
C58    C73     1.420   .     A
C58    C562    1.393   1_554 S
C59    C222    1.354   .     S
C59    C265    1.491   .     S
C60    C383    1.354   1_545 S
C60    C430    1.496   1_545 S
C61    O91     1.285   .     A
C61    C66     1.416   .     S
C61    O93     1.284   .     A
C62    C65     1.414   .     S
C62    O92     1.284   .     A
C62    O94     1.284   .     A
C63    C65     1.388   .     A
C63    H77     1.081   .     S
C63    C73     1.394   .     A
C64    C66     1.388   .     A
C64    H78     1.080   .     S
C64    C74     1.394   .     A
C65    C67     1.384   .     A
C66    C68     1.385   .     A
C67    C69     1.381   .     A
C67    H79     1.086   .     S
C68    H80     1.086   .     S
C68    C70     1.382   .     A
C69    C75     1.395   .     A
C69    C71     1.413   .     A
C70    C72     1.413   .     A
C70    C76     1.396   .     A
C71    C73     1.424   .     A
C71    C558    1.393   1_554 S
C72    C74     1.424   .     A
C72    C557    1.393   .     S
C75    H81     1.086   .     S
C75    C543    1.393   1_554 S
C76    H82     1.086   .     S
C76    C544    1.393   .     S
H84    N140    1.029   .     S
N85    Zn96    2.016   .     S
N85    H137    1.029   .     S
N85    N140    1.271   .     S
N86    Zn95    2.016   .     S
O87    Zn95    1.926   .     S
O88    Zn96    1.926   .     S
O89    Zn96    1.945   .     S
O90    Zn95    1.945   .     S
O91    Zn95    1.989   .     S
O92    Zn96    1.989   .     S
O93    Zn96    2.012   .     S
O94    Zn95    2.012   .     S
C97    O99     1.220   .     D
C97    H260    1.086   .     S
H98    C421    1.086   1_545 S
C100   O102    1.220   .     D
C100   H425    1.086   1_545 S
H101   C262    1.086   .     S
C103   O105    1.222   .     D
C103   C383    1.491   1_545 S
C103   H428    1.083   1_545 S
H104   C265    1.083   .     S
C106   H107    1.086   .     S
C106   C222    1.496   .     S
C106   O270    1.220   .     S
O108   C430    1.220   1_545 S
C109   O141    1.281   .     A
C109   C113    1.442   .     S
C109   O143    1.297   .     A
C110   O142    1.286   .     A
C110   C114    1.440   .     S
C110   O144    1.290   .     A
C111   C128    1.420   .     A
C111   C151    1.486   .     S
C111   C615    1.393   .     S
C112   C154    1.486   .     S
C112   C127    1.420   .     A
C112   C616    1.393   1_554 S
C113   C276    1.354   .     S
C113   C319    1.491   .     S
C114   C437    1.354   1_545 S
C114   C484    1.496   1_545 S
C115   O145    1.285   .     A
C115   C120    1.416   .     S
C115   O147    1.284   .     A
C116   C119    1.414   .     S
C116   O146    1.284   .     A
C116   O148    1.284   .     A
C117   C119    1.388   .     A
C117   H131    1.081   .     S
C117   C127    1.394   .     A
C118   C120    1.388   .     A
C118   H132    1.080   .     S
C118   C128    1.394   .     A
C119   C121    1.384   .     A
C120   C122    1.385   .     A
C121   C123    1.381   .     A
C121   H133    1.086   .     S
C122   H134    1.086   .     S
C122   C124    1.382   .     A
C123   C129    1.395   .     A
C123   C125    1.413   .     A
C124   C126    1.413   .     A
C124   C130    1.396   .     A
C125   C127    1.424   .     A
C125   C612    1.393   1_554 S
C126   C128    1.424   .     A
C126   C611    1.393   .     S
C129   H135    1.086   .     S
C129   C597    1.393   1_554 S
C130   H136    1.086   .     S
C130   C598    1.393   .     S
H138   N32     1.029   1_655 S
N139   Zn150   2.016   .     S
N139   H29     1.029   1_655 S
N139   N32     1.271   1_655 S
N140   Zn149   2.016   .     S
O141   Zn149   1.926   .     S
O142   Zn150   1.926   .     S
O143   Zn150   1.945   .     S
O144   Zn149   1.945   .     S
O145   Zn149   1.989   .     S
O146   Zn150   1.989   .     S
O147   Zn150   2.012   .     S
O148   Zn149   2.012   .     S
C151   O153    1.220   .     D
C151   H314    1.086   .     S
H152   C475    1.086   1_545 S
C154   O156    1.220   .     D
C154   H479    1.086   1_545 S
H155   C316    1.086   .     S
C157   O159    1.222   .     D
C157   C437    1.491   1_545 S
C157   H482    1.083   1_545 S
H158   C319    1.083   .     S
C160   H161    1.086   .     S
C160   C276    1.496   .     S
C160   O324    1.220   .     S
O162   C484    1.220   1_545 S
C163   O195    1.281   .     A
C163   C167    1.442   .     S
C163   O197    1.297   .     A
C164   O196    1.286   .     A
C164   C168    1.440   .     S
C164   O198    1.290   .     A
C165   C182    1.420   .     A
C165   C205    1.486   .     S
C165   C669    1.393   .     S
C166   C208    1.486   .     S
C166   C181    1.420   .     A
C166   C670    1.393   1_554 S
C167   C330    1.354   .     S
C167   C373    1.491   .     S
C169   O199    1.285   .     A
C169   C174    1.416   .     S
C169   O201    1.284   .     A
C170   C173    1.414   .     S
C170   O200    1.284   .     A
C170   O202    1.284   .     A
C171   C173    1.388   .     A
C171   H185    1.081   .     S
C171   C181    1.394   .     A
C172   C174    1.388   .     A
C172   H186    1.080   .     S
C172   C182    1.394   .     A
C173   C175    1.384   .     A
C174   C176    1.385   .     A
C175   C177    1.381   .     A
C175   H187    1.086   .     S
C176   H188    1.086   .     S
C176   C178    1.382   .     A
C177   C183    1.395   .     A
C177   C179    1.413   .     A
C178   C180    1.413   .     A
C178   C184    1.396   .     A
C179   C181    1.424   .     A
C179   C666    1.393   1_554 S
C180   C182    1.424   .     A
C180   C665    1.393   .     S
C183   H189    1.086   .     S
C183   C651    1.393   1_554 S
C184   H190    1.086   .     S
C184   C652    1.393   .     S
H191   N301    1.029   1_455 S
H192   N248    1.029   .     S
N193   Zn204   2.016   .     S
N193   H245    1.029   .     S
N193   N248    1.271   .     S
N194   Zn203   2.016   .     S
N194   N301    1.271   1_455 S
N194   H300    1.029   1_455 S
O195   Zn203   1.926   .     S
O196   Zn204   1.926   .     S
O197   Zn204   1.945   .     S
O198   Zn203   1.945   .     S
O199   Zn203   1.989   .     S
O200   Zn204   1.989   .     S
O201   Zn204   2.012   .     S
O202   Zn203   2.012   .     S
C205   O207    1.220   .     D
C205   H368    1.086   .     S
C208   O210    1.220   .     D
H209   C370    1.086   .     S
C211   O213    1.222   .     D
H212   C373    1.083   .     S
C214   H215    1.086   .     S
C214   C330    1.496   .     S
C214   O378    1.220   .     S
C217   O249    1.281   .     A
C217   C221    1.442   .     S
C217   O251    1.297   .     A
C218   O250    1.286   .     A
C218   C222    1.440   .     S
C218   O252    1.290   .     A
C219   C236    1.420   .     A
C219   C259    1.486   .     S
C219   C723    1.393   .     S
C220   C262    1.486   .     S
C220   C235    1.420   .     A
C220   C724    1.393   1_554 S
C221   C384    1.354   .     S
C221   C427    1.491   .     S
C223   O253    1.285   .     A
C223   C228    1.416   .     S
C223   O255    1.284   .     A
C224   C227    1.414   .     S
C224   O254    1.284   .     A
C224   O256    1.284   .     A
C225   C227    1.388   .     A
C225   H239    1.081   .     S
C225   C235    1.394   .     A
C226   C228    1.388   .     A
C226   H240    1.080   .     S
C226   C236    1.394   .     A
C227   C229    1.384   .     A
C228   C230    1.385   .     A
C229   C231    1.381   .     A
C229   H241    1.086   .     S
C230   H242    1.086   .     S
C230   C232    1.382   .     A
C231   C237    1.395   .     A
C231   C233    1.413   .     A
C232   C234    1.413   .     A
C232   C238    1.396   .     A
C233   C235    1.424   .     A
C233   C720    1.393   1_554 S
C234   C236    1.424   .     A
C234   C719    1.393   .     S
C237   H243    1.086   .     S
C237   C705    1.393   1_554 S
C238   H244    1.086   .     S
C238   C706    1.393   .     S
H246   N302    1.029   .     S
N247   Zn258   2.016   .     S
N247   H299    1.029   .     S
N247   N302    1.271   .     S
N248   Zn257   2.016   .     S
O249   Zn257   1.926   .     S
O250   Zn258   1.926   .     S
O251   Zn258   1.945   .     S
O252   Zn257   1.945   .     S
O253   Zn257   1.989   .     S
O254   Zn258   1.989   .     S
O255   Zn258   2.012   .     S
O256   Zn257   2.012   .     S
C259   O261    1.220   .     D
C259   H422    1.086   .     S
C262   O264    1.220   .     D
H263   C424    1.086   .     S
C265   O267    1.222   .     D
H266   C427    1.083   .     S
C268   H269    1.086   .     S
C268   C384    1.496   .     S
C268   O432    1.220   .     S
C271   O303    1.281   .     A
C271   C275    1.442   .     S
C271   O305    1.297   .     A
C272   O304    1.286   .     A
C272   C276    1.440   .     S
C272   O306    1.290   .     A
C273   C290    1.420   .     A
C273   C313    1.486   .     S
C273   C777    1.393   .     S
C274   C316    1.486   .     S
C274   C289    1.420   .     A
C274   C778    1.393   1_554 S
C275   C438    1.354   .     S
C275   C481    1.491   .     S
C277   O307    1.285   .     A
C277   C282    1.416   .     S
C277   O309    1.284   .     A
C278   C281    1.414   .     S
C278   O308    1.284   .     A
C278   O310    1.284   .     A
C279   C281    1.388   .     A
C279   H293    1.081   .     S
C279   C289    1.394   .     A
C280   C282    1.388   .     A
C280   H294    1.080   .     S
C280   C290    1.394   .     A
C281   C283    1.384   .     A
C282   C284    1.385   .     A
C283   C285    1.381   .     A
C283   H295    1.086   .     S
C284   H296    1.086   .     S
C284   C286    1.382   .     A
C285   C291    1.395   .     A
C285   C287    1.413   .     A
C286   C288    1.413   .     A
C286   C292    1.396   .     A
C287   C289    1.424   .     A
C287   C774    1.393   1_554 S
C288   C290    1.424   .     A
C288   C773    1.393   .     S
C291   H297    1.086   .     S
C291   C759    1.393   1_554 S
C292   H298    1.086   .     S
C292   C760    1.393   .     S
H300   N194    1.029   1_655 S
N301   Zn312   2.016   .     S
N301   H191    1.029   1_655 S
N301   N194    1.271   1_655 S
N302   Zn311   2.016   .     S
O303   Zn311   1.926   .     S
O304   Zn312   1.926   .     S
O305   Zn312   1.945   .     S
O306   Zn311   1.945   .     S
O307   Zn311   1.989   .     S
O308   Zn312   1.989   .     S
O309   Zn312   2.012   .     S
O310   Zn311   2.012   .     S
C313   O315    1.220   .     D
C313   H476    1.086   .     S
C316   O318    1.220   .     D
H317   C478    1.086   .     S
C319   O321    1.222   .     D
H320   C481    1.083   .     S
C322   H323    1.086   .     S
C322   C438    1.496   .     S
C322   O486    1.220   .     S
C325   O357    1.281   .     A
C325   C329    1.442   .     S
C325   O359    1.297   .     A
C326   O358    1.286   .     A
C326   C330    1.440   .     S
C326   O360    1.290   .     A
C327   C344    1.420   .     A
C327   C367    1.486   .     S
C327   C831    1.393   .     S
C328   C370    1.486   .     S
C328   C343    1.420   .     A
C328   C832    1.393   1_554 S
C329   C6      1.354   1_565 S
C329   C49     1.491   1_565 S
C331   O361    1.285   .     A
C331   C336    1.416   .     S
C331   O363    1.284   .     A
C332   C335    1.414   .     S
C332   O362    1.284   .     A
C332   O364    1.284   .     A
C333   C335    1.388   .     A
C333   H347    1.081   .     S
C333   C343    1.394   .     A
C334   C336    1.388   .     A
C334   H348    1.080   .     S
C334   C344    1.394   .     A
C335   C337    1.384   .     A
C336   C338    1.385   .     A
C337   C339    1.381   .     A
C337   H349    1.086   .     S
C338   H350    1.086   .     S
C338   C340    1.382   .     A
C339   C345    1.395   .     A
C339   C341    1.413   .     A
C340   C342    1.413   .     A
C340   C346    1.396   .     A
C341   C343    1.424   .     A
C341   C828    1.393   1_554 S
C342   C344    1.424   .     A
C342   C827    1.393   .     S
C345   H351    1.086   .     S
C345   C813    1.393   1_554 S
C346   H352    1.086   .     S
C346   C814    1.393   .     S
H353   N463    1.029   1_455 S
H354   N410    1.029   .     S
N355   Zn366   2.016   .     S
N355   H407    1.029   .     S
N355   N410    1.271   .     S
N356   Zn365   2.016   .     S
N356   N463    1.271   1_455 S
N356   H462    1.029   1_455 S
O357   Zn365   1.926   .     S
O358   Zn366   1.926   .     S
O359   Zn366   1.945   .     S
O360   Zn365   1.945   .     S
O361   Zn365   1.989   .     S
O362   Zn366   1.989   .     S
O363   Zn366   2.012   .     S
O364   Zn365   2.012   .     S
C367   O369    1.220   .     D
C367   H44     1.086   1_565 S
C370   O372    1.220   .     D
H371   C46     1.086   1_565 S
C373   O375    1.222   .     D
H374   C49     1.083   1_565 S
C376   H377    1.086   .     S
C376   C6      1.496   1_565 S
C376   O54     1.220   1_565 S
C379   O411    1.281   .     A
C379   C383    1.442   .     S
C379   O413    1.297   .     A
C380   O412    1.286   .     A
C380   C384    1.440   .     S
C380   O414    1.290   .     A
C381   C398    1.420   .     A
C381   C421    1.486   .     S
C381   C885    1.393   .     S
C382   C424    1.486   .     S
C382   C397    1.420   .     A
C382   C886    1.393   1_554 S
C383   C60     1.354   1_565 S
C383   C103    1.491   1_565 S
C385   O415    1.285   .     A
C385   C390    1.416   .     S
C385   O417    1.284   .     A
C386   C389    1.414   .     S
C386   O416    1.284   .     A
C386   O418    1.284   .     A
C387   C389    1.388   .     A
C387   H401    1.081   .     S
C387   C397    1.394   .     A
C388   C390    1.388   .     A
C388   H402    1.080   .     S
C388   C398    1.394   .     A
C389   C391    1.384   .     A
C390   C392    1.385   .     A
C391   C393    1.381   .     A
C391   H403    1.086   .     S
C392   H404    1.086   .     S
C392   C394    1.382   .     A
C393   C399    1.395   .     A
C393   C395    1.413   .     A
C394   C396    1.413   .     A
C394   C400    1.396   .     A
C395   C397    1.424   .     A
C395   C882    1.393   1_554 S
C396   C398    1.424   .     A
C396   C881    1.393   .     S
C399   H405    1.086   .     S
C399   C867    1.393   1_554 S
C400   H406    1.086   .     S
C400   C868    1.393   .     S
H408   N464    1.029   .     S
N409   Zn420   2.016   .     S
N409   H461    1.029   .     S
N409   N464    1.271   .     S
N410   Zn419   2.016   .     S
O411   Zn419   1.926   .     S
O412   Zn420   1.926   .     S
O413   Zn420   1.945   .     S
O414   Zn419   1.945   .     S
O415   Zn419   1.989   .     S
O416   Zn420   1.989   .     S
O417   Zn420   2.012   .     S
O418   Zn419   2.012   .     S
C421   O423    1.220   .     D
C421   H98     1.086   1_565 S
C424   O426    1.220   .     D
H425   C100    1.086   1_565 S
C427   O429    1.222   .     D
H428   C103    1.083   1_565 S
C430   H431    1.086   .     S
C430   C60     1.496   1_565 S
C430   O108    1.220   1_565 S
C433   O465    1.281   .     A
C433   C437    1.442   .     S
C433   O467    1.297   .     A
C434   O466    1.286   .     A
C434   C438    1.440   .     S
C434   O468    1.290   .     A
C435   C452    1.420   .     A
C435   C475    1.486   .     S
C435   C939    1.393   .     S
C436   C478    1.486   .     S
C436   C451    1.420   .     A
C436   C940    1.393   1_554 S
C437   C114    1.354   1_565 S
C437   C157    1.491   1_565 S
C439   O469    1.285   .     A
C439   C444    1.416   .     S
C439   O471    1.284   .     A
C440   C443    1.414   .     S
C440   O470    1.284   .     A
C440   O472    1.284   .     A
C441   C443    1.388   .     A
C441   H455    1.081   .     S
C441   C451    1.394   .     A
C442   C444    1.388   .     A
C442   H456    1.080   .     S
C442   C452    1.394   .     A
C443   C445    1.384   .     A
C444   C446    1.385   .     A
C445   C447    1.381   .     A
C445   H457    1.086   .     S
C446   H458    1.086   .     S
C446   C448    1.382   .     A
C447   C453    1.395   .     A
C447   C449    1.413   .     A
C448   C450    1.413   .     A
C448   C454    1.396   .     A
C449   C451    1.424   .     A
C449   C936    1.393   1_554 S
C450   C452    1.424   .     A
C450   C935    1.393   .     S
C453   H459    1.086   .     S
C453   C921    1.393   1_554 S
C454   H460    1.086   .     S
C454   C922    1.393   .     S
H462   N356    1.029   1_655 S
N463   Zn474   2.016   .     S
N463   H353    1.029   1_655 S
N463   N356    1.271   1_655 S
N464   Zn473   2.016   .     S
O465   Zn473   1.926   .     S
O466   Zn474   1.926   .     S
O467   Zn474   1.945   .     S
O468   Zn473   1.945   .     S
O469   Zn473   1.989   .     S
O470   Zn474   1.989   .     S
O471   Zn474   2.012   .     S
O472   Zn473   2.012   .     S
C475   O477    1.220   .     D
C475   H152    1.086   1_565 S
C478   O480    1.220   .     D
H479   C154    1.086   1_565 S
C481   O483    1.222   .     D
H482   C157    1.083   1_565 S
C484   H485    1.086   .     S
C484   C114    1.496   1_565 S
C484   O162    1.220   1_565 S
C487   O519    1.281   .     A
C487   C491    1.442   .     S
C487   O521    1.297   .     A
C488   O520    1.286   .     A
C488   C492    1.440   .     S
C488   O522    1.290   .     A
C489   C506    1.420   .     A
C489   C529    1.486   .     S
C489   C21     1.393   1_556 S
C490   C532    1.486   .     S
C490   C505    1.420   .     A
C491   C654    1.354   .     S
C491   C697    1.491   .     S
C492   C815    1.354   1_545 S
C492   C862    1.496   1_545 S
C493   O523    1.285   .     A
C493   C498    1.416   .     S
C493   O525    1.284   .     A
C494   C497    1.414   .     S
C494   O524    1.284   .     A
C494   O526    1.284   .     A
C495   C497    1.388   .     A
C495   H509    1.081   .     S
C495   C505    1.394   .     A
C496   C498    1.388   .     A
C496   H510    1.080   .     S
C496   C506    1.394   .     A
C497   C499    1.384   .     A
C498   C500    1.385   .     A
C499   C501    1.381   .     A
C499   H511    1.086   .     S
C500   H512    1.086   .     S
C500   C502    1.382   .     A
C501   C507    1.395   .     A
C501   C503    1.413   .     A
C502   C504    1.413   .     A
C502   C508    1.396   .     A
C503   C505    1.424   .     A
C504   C506    1.424   .     A
C504   C17     1.393   1_556 S
C507   H513    1.086   .     S
C508   H514    1.086   .     S
C508   C4      1.393   1_556 S
H515   N625    1.029   1_455 S
H516   N572    1.029   .     S
N517   Zn528   2.016   .     S
N517   H569    1.029   .     S
N517   N572    1.271   .     S
N518   Zn527   2.016   .     S
N518   N625    1.271   1_455 S
N518   H624    1.029   1_455 S
O519   Zn527   1.926   .     S
O520   Zn528   1.926   .     S
O521   Zn528   1.945   .     S
O522   Zn527   1.945   .     S
O523   Zn527   1.989   .     S
O524   Zn528   1.989   .     S
O525   Zn528   2.012   .     S
O526   Zn527   2.012   .     S
C529   O531    1.220   .     D
C529   H692    1.086   .     S
H530   C853    1.086   1_545 S
C532   O534    1.220   .     D
C532   H857    1.086   1_545 S
H533   C694    1.086   .     S
C535   O537    1.222   .     D
C535   C815    1.491   1_545 S
C535   H860    1.083   1_545 S
H536   C697    1.083   .     S
C538   H539    1.086   .     S
C538   C654    1.496   .     S
C538   O702    1.220   .     S
O540   C862    1.220   1_545 S
C541   O573    1.281   .     A
C541   C545    1.442   .     S
C541   O575    1.297   .     A
C542   O574    1.286   .     A
C542   C546    1.440   .     S
C542   O576    1.290   .     A
C543   C560    1.420   .     A
C543   C583    1.486   .     S
C543   C75     1.393   1_556 S
C544   C586    1.486   .     S
C544   C559    1.420   .     A
C545   C708    1.354   .     S
C545   C751    1.491   .     S
C546   C869    1.354   1_545 S
C546   C916    1.496   1_545 S
C547   O577    1.285   .     A
C547   C552    1.416   .     S
C547   O579    1.284   .     A
C548   C551    1.414   .     S
C548   O578    1.284   .     A
C548   O580    1.284   .     A
C549   C551    1.388   .     A
C549   H563    1.081   .     S
C549   C559    1.394   .     A
C550   C552    1.388   .     A
C550   H564    1.080   .     S
C550   C560    1.394   .     A
C551   C553    1.384   .     A
C552   C554    1.385   .     A
C553   C555    1.381   .     A
C553   H565    1.086   .     S
C554   H566    1.086   .     S
C554   C556    1.382   .     A
C555   C561    1.395   .     A
C555   C557    1.413   .     A
C556   C558    1.413   .     A
C556   C562    1.396   .     A
C557   C559    1.424   .     A
C558   C560    1.424   .     A
C558   C71     1.393   1_556 S
C561   H567    1.086   .     S
C562   H568    1.086   .     S
C562   C58     1.393   1_556 S
H570   N626    1.029   .     S
N571   Zn582   2.016   .     S
N571   H623    1.029   .     S
N571   N626    1.271   .     S
N572   Zn581   2.016   .     S
O573   Zn581   1.926   .     S
O574   Zn582   1.926   .     S
O575   Zn582   1.945   .     S
O576   Zn581   1.945   .     S
O577   Zn581   1.989   .     S
O578   Zn582   1.989   .     S
O579   Zn582   2.012   .     S
O580   Zn581   2.012   .     S
C583   O585    1.220   .     D
C583   H746    1.086   .     S
H584   C907    1.086   1_545 S
C586   O588    1.220   .     D
C586   H911    1.086   1_545 S
H587   C748    1.086   .     S
C589   O591    1.222   .     D
C589   C869    1.491   1_545 S
C589   H914    1.083   1_545 S
H590   C751    1.083   .     S
C592   H593    1.086   .     S
C592   C708    1.496   .     S
C592   O756    1.220   .     S
O594   C916    1.220   1_545 S
C595   O627    1.281   .     A
C595   C599    1.442   .     S
C595   O629    1.297   .     A
C596   O628    1.286   .     A
C596   C600    1.440   .     S
C596   O630    1.290   .     A
C597   C614    1.420   .     A
C597   C637    1.486   .     S
C597   C129    1.393   1_556 S
C598   C640    1.486   .     S
C598   C613    1.420   .     A
C599   C762    1.354   .     S
C599   C805    1.491   .     S
C600   C923    1.354   1_545 S
C600   C970    1.496   1_545 S
C601   O631    1.285   .     A
C601   C606    1.416   .     S
C601   O633    1.284   .     A
C602   C605    1.414   .     S
C602   O632    1.284   .     A
C602   O634    1.284   .     A
C603   C605    1.388   .     A
C603   H617    1.081   .     S
C603   C613    1.394   .     A
C604   C606    1.388   .     A
C604   H618    1.080   .     S
C604   C614    1.394   .     A
C605   C607    1.384   .     A
C606   C608    1.385   .     A
C607   C609    1.381   .     A
C607   H619    1.086   .     S
C608   H620    1.086   .     S
C608   C610    1.382   .     A
C609   C615    1.395   .     A
C609   C611    1.413   .     A
C610   C612    1.413   .     A
C610   C616    1.396   .     A
C611   C613    1.424   .     A
C612   C614    1.424   .     A
C612   C125    1.393   1_556 S
C615   H621    1.086   .     S
C616   H622    1.086   .     S
C616   C112    1.393   1_556 S
H624   N518    1.029   1_655 S
N625   Zn636   2.016   .     S
N625   H515    1.029   1_655 S
N625   N518    1.271   1_655 S
N626   Zn635   2.016   .     S
O627   Zn635   1.926   .     S
O628   Zn636   1.926   .     S
O629   Zn636   1.945   .     S
O630   Zn635   1.945   .     S
O631   Zn635   1.989   .     S
O632   Zn636   1.989   .     S
O633   Zn636   2.012   .     S
O634   Zn635   2.012   .     S
C637   O639    1.220   .     D
C637   H800    1.086   .     S
H638   C961    1.086   1_545 S
C640   O642    1.220   .     D
C640   H965    1.086   1_545 S
H641   C802    1.086   .     S
C643   O645    1.222   .     D
C643   C923    1.491   1_545 S
C643   H968    1.083   1_545 S
H644   C805    1.083   .     S
C646   H647    1.086   .     S
C646   C762    1.496   .     S
C646   O810    1.220   .     S
O648   C970    1.220   1_545 S
C649   O681    1.281   .     A
C649   C653    1.442   .     S
C649   O683    1.297   .     A
C650   O682    1.286   .     A
C650   C654    1.440   .     S
C650   O684    1.290   .     A
C651   C668    1.420   .     A
C651   C691    1.486   .     S
C651   C183    1.393   1_556 S
C652   C694    1.486   .     S
C652   C667    1.420   .     A
C653   C816    1.354   .     S
C653   C859    1.491   .     S
C655   O685    1.285   .     A
C655   C660    1.416   .     S
C655   O687    1.284   .     A
C656   C659    1.414   .     S
C656   O686    1.284   .     A
C656   O688    1.284   .     A
C657   C659    1.388   .     A
C657   H671    1.081   .     S
C657   C667    1.394   .     A
C658   C660    1.388   .     A
C658   H672    1.080   .     S
C658   C668    1.394   .     A
C659   C661    1.384   .     A
C660   C662    1.385   .     A
C661   C663    1.381   .     A
C661   H673    1.086   .     S
C662   H674    1.086   .     S
C662   C664    1.382   .     A
C663   C669    1.395   .     A
C663   C665    1.413   .     A
C664   C666    1.413   .     A
C664   C670    1.396   .     A
C665   C667    1.424   .     A
C666   C668    1.424   .     A
C666   C179    1.393   1_556 S
C669   H675    1.086   .     S
C670   H676    1.086   .     S
C670   C166    1.393   1_556 S
H677   N787    1.029   1_455 S
H678   N734    1.029   .     S
N679   Zn690   2.016   .     S
N679   H731    1.029   .     S
N679   N734    1.271   .     S
N680   Zn689   2.016   .     S
N680   N787    1.271   1_455 S
N680   H786    1.029   1_455 S
O681   Zn689   1.926   .     S
O682   Zn690   1.926   .     S
O683   Zn690   1.945   .     S
O684   Zn689   1.945   .     S
O685   Zn689   1.989   .     S
O686   Zn690   1.989   .     S
O687   Zn690   2.012   .     S
O688   Zn689   2.012   .     S
C691   O693    1.220   .     D
C691   H854    1.086   .     S
C694   O696    1.220   .     D
H695   C856    1.086   .     S
C697   O699    1.222   .     D
H698   C859    1.083   .     S
C700   H701    1.086   .     S
C700   C816    1.496   .     S
C700   O864    1.220   .     S
C703   O735    1.281   .     A
C703   C707    1.442   .     S
C703   O737    1.297   .     A
C704   O736    1.286   .     A
C704   C708    1.440   .     S
C704   O738    1.290   .     A
C705   C722    1.420   .     A
C705   C745    1.486   .     S
C705   C237    1.393   1_556 S
C706   C748    1.486   .     S
C706   C721    1.420   .     A
C707   C870    1.354   .     S
C707   C913    1.491   .     S
C709   O739    1.285   .     A
C709   C714    1.416   .     S
C709   O741    1.284   .     A
C710   C713    1.414   .     S
C710   O740    1.284   .     A
C710   O742    1.284   .     A
C711   C713    1.388   .     A
C711   H725    1.081   .     S
C711   C721    1.394   .     A
C712   C714    1.388   .     A
C712   H726    1.080   .     S
C712   C722    1.394   .     A
C713   C715    1.384   .     A
C714   C716    1.385   .     A
C715   C717    1.381   .     A
C715   H727    1.086   .     S
C716   H728    1.086   .     S
C716   C718    1.382   .     A
C717   C723    1.395   .     A
C717   C719    1.413   .     A
C718   C720    1.413   .     A
C718   C724    1.396   .     A
C719   C721    1.424   .     A
C720   C722    1.424   .     A
C720   C233    1.393   1_556 S
C723   H729    1.086   .     S
C724   H730    1.086   .     S
C724   C220    1.393   1_556 S
H732   N788    1.029   .     S
N733   Zn744   2.016   .     S
N733   H785    1.029   .     S
N733   N788    1.271   .     S
N734   Zn743   2.016   .     S
O735   Zn743   1.926   .     S
O736   Zn744   1.926   .     S
O737   Zn744   1.945   .     S
O738   Zn743   1.945   .     S
O739   Zn743   1.989   .     S
O740   Zn744   1.989   .     S
O741   Zn744   2.012   .     S
O742   Zn743   2.012   .     S
C745   O747    1.220   .     D
C745   H908    1.086   .     S
C748   O750    1.220   .     D
H749   C910    1.086   .     S
C751   O753    1.222   .     D
H752   C913    1.083   .     S
C754   H755    1.086   .     S
C754   C870    1.496   .     S
C754   O918    1.220   .     S
C757   O789    1.281   .     A
C757   C761    1.442   .     S
C757   O791    1.297   .     A
C758   O790    1.286   .     A
C758   C762    1.440   .     S
C758   O792    1.290   .     A
C759   C776    1.420   .     A
C759   C799    1.486   .     S
C759   C291    1.393   1_556 S
C760   C802    1.486   .     S
C760   C775    1.420   .     A
C761   C924    1.354   .     S
C761   C967    1.491   .     S
C763   O793    1.285   .     A
C763   C768    1.416   .     S
C763   O795    1.284   .     A
C764   C767    1.414   .     S
C764   O794    1.284   .     A
C764   O796    1.284   .     A
C765   C767    1.388   .     A
C765   H779    1.081   .     S
C765   C775    1.394   .     A
C766   C768    1.388   .     A
C766   H780    1.080   .     S
C766   C776    1.394   .     A
C767   C769    1.384   .     A
C768   C770    1.385   .     A
C769   C771    1.381   .     A
C769   H781    1.086   .     S
C770   H782    1.086   .     S
C770   C772    1.382   .     A
C771   C777    1.395   .     A
C771   C773    1.413   .     A
C772   C774    1.413   .     A
C772   C778    1.396   .     A
C773   C775    1.424   .     A
C774   C776    1.424   .     A
C774   C287    1.393   1_556 S
C777   H783    1.086   .     S
C778   H784    1.086   .     S
C778   C274    1.393   1_556 S
H786   N680    1.029   1_655 S
N787   Zn798   2.016   .     S
N787   H677    1.029   1_655 S
N787   N680    1.271   1_655 S
N788   Zn797   2.016   .     S
O789   Zn797   1.926   .     S
O790   Zn798   1.926   .     S
O791   Zn798   1.945   .     S
O792   Zn797   1.945   .     S
O793   Zn797   1.989   .     S
O794   Zn798   1.989   .     S
O795   Zn798   2.012   .     S
O796   Zn797   2.012   .     S
C799   O801    1.220   .     D
C799   H962    1.086   .     S
C802   O804    1.220   .     D
H803   C964    1.086   .     S
C805   O807    1.222   .     D
H806   C967    1.083   .     S
C808   H809    1.086   .     S
C808   C924    1.496   .     S
C808   O972    1.220   .     S
C811   O843    1.281   .     A
C811   C815    1.442   .     S
C811   O845    1.297   .     A
C812   O844    1.286   .     A
C812   C816    1.440   .     S
C812   O846    1.290   .     A
C813   C830    1.420   .     A
C813   C853    1.486   .     S
C813   C345    1.393   1_556 S
C814   C856    1.486   .     S
C814   C829    1.420   .     A
C815   C492    1.354   1_565 S
C815   C535    1.491   1_565 S
C817   O847    1.285   .     A
C817   C822    1.416   .     S
C817   O849    1.284   .     A
C818   C821    1.414   .     S
C818   O848    1.284   .     A
C818   O850    1.284   .     A
C819   C821    1.388   .     A
C819   H833    1.081   .     S
C819   C829    1.394   .     A
C820   C822    1.388   .     A
C820   H834    1.080   .     S
C820   C830    1.394   .     A
C821   C823    1.384   .     A
C822   C824    1.385   .     A
C823   C825    1.381   .     A
C823   H835    1.086   .     S
C824   H836    1.086   .     S
C824   C826    1.382   .     A
C825   C831    1.395   .     A
C825   C827    1.413   .     A
C826   C828    1.413   .     A
C826   C832    1.396   .     A
C827   C829    1.424   .     A
C828   C830    1.424   .     A
C828   C341    1.393   1_556 S
C831   H837    1.086   .     S
C832   H838    1.086   .     S
C832   C328    1.393   1_556 S
H839   N949    1.029   1_455 S
H840   N896    1.029   .     S
N841   Zn852   2.016   .     S
N841   H893    1.029   .     S
N841   N896    1.271   .     S
N842   Zn851   2.016   .     S
N842   N949    1.271   1_455 S
N842   H948    1.029   1_455 S
O843   Zn851   1.926   .     S
O844   Zn852   1.926   .     S
O845   Zn852   1.945   .     S
O846   Zn851   1.945   .     S
O847   Zn851   1.989   .     S
O848   Zn852   1.989   .     S
O849   Zn852   2.012   .     S
O850   Zn851   2.012   .     S
C853   O855    1.220   .     D
C853   H530    1.086   1_565 S
C856   O858    1.220   .     D
H857   C532    1.086   1_565 S
C859   O861    1.222   .     D
H860   C535    1.083   1_565 S
C862   H863    1.086   .     S
C862   C492    1.496   1_565 S
C862   O540    1.220   1_565 S
C865   O897    1.281   .     A
C865   C869    1.442   .     S
C865   O899    1.297   .     A
C866   O898    1.286   .     A
C866   C870    1.440   .     S
C866   O900    1.290   .     A
C867   C884    1.420   .     A
C867   C907    1.486   .     S
C867   C399    1.393   1_556 S
C868   C910    1.486   .     S
C868   C883    1.420   .     A
C869   C546    1.354   1_565 S
C869   C589    1.491   1_565 S
C871   O901    1.285   .     A
C871   C876    1.416   .     S
C871   O903    1.284   .     A
C872   C875    1.414   .     S
C872   O902    1.284   .     A
C872   O904    1.284   .     A
C873   C875    1.388   .     A
C873   H887    1.081   .     S
C873   C883    1.394   .     A
C874   C876    1.388   .     A
C874   H888    1.080   .     S
C874   C884    1.394   .     A
C875   C877    1.384   .     A
C876   C878    1.385   .     A
C877   C879    1.381   .     A
C877   H889    1.086   .     S
C878   H890    1.086   .     S
C878   C880    1.382   .     A
C879   C885    1.395   .     A
C879   C881    1.413   .     A
C880   C882    1.413   .     A
C880   C886    1.396   .     A
C881   C883    1.424   .     A
C882   C884    1.424   .     A
C882   C395    1.393   1_556 S
C885   H891    1.086   .     S
C886   H892    1.086   .     S
C886   C382    1.393   1_556 S
H894   N950    1.029   .     S
N895   Zn906   2.016   .     S
N895   H947    1.029   .     S
N895   N950    1.271   .     S
N896   Zn905   2.016   .     S
O897   Zn905   1.926   .     S
O898   Zn906   1.926   .     S
O899   Zn906   1.945   .     S
O900   Zn905   1.945   .     S
O901   Zn905   1.989   .     S
O902   Zn906   1.989   .     S
O903   Zn906   2.012   .     S
O904   Zn905   2.012   .     S
C907   O909    1.220   .     D
C907   H584    1.086   1_565 S
C910   O912    1.220   .     D
H911   C586    1.086   1_565 S
C913   O915    1.222   .     D
H914   C589    1.083   1_565 S
C916   H917    1.086   .     S
C916   C546    1.496   1_565 S
C916   O594    1.220   1_565 S
C919   O951    1.281   .     A
C919   C923    1.442   .     S
C919   O953    1.297   .     A
C920   O952    1.286   .     A
C920   C924    1.440   .     S
C920   O954    1.290   .     A
C921   C938    1.420   .     A
C921   C961    1.486   .     S
C921   C453    1.393   1_556 S
C922   C964    1.486   .     S
C922   C937    1.420   .     A
C923   C600    1.354   1_565 S
C923   C643    1.491   1_565 S
C925   O955    1.285   .     A
C925   C930    1.416   .     S
C925   O957    1.284   .     A
C926   C929    1.414   .     S
C926   O956    1.284   .     A
C926   O958    1.284   .     A
C927   C929    1.388   .     A
C927   H941    1.081   .     S
C927   C937    1.394   .     A
C928   C930    1.388   .     A
C928   H942    1.080   .     S
C928   C938    1.394   .     A
C929   C931    1.384   .     A
C930   C932    1.385   .     A
C931   C933    1.381   .     A
C931   H943    1.086   .     S
C932   H944    1.086   .     S
C932   C934    1.382   .     A
C933   C939    1.395   .     A
C933   C935    1.413   .     A
C934   C936    1.413   .     A
C934   C940    1.396   .     A
C935   C937    1.424   .     A
C936   C938    1.424   .     A
C936   C449    1.393   1_556 S
C939   H945    1.086   .     S
C940   H946    1.086   .     S
C940   C436    1.393   1_556 S
H948   N842    1.029   1_655 S
N949   Zn960   2.016   .     S
N949   H839    1.029   1_655 S
N949   N842    1.271   1_655 S
N950   Zn959   2.016   .     S
O951   Zn959   1.926   .     S
O952   Zn960   1.926   .     S
O953   Zn960   1.945   .     S
O954   Zn959   1.945   .     S
O955   Zn959   1.989   .     S
O956   Zn960   1.989   .     S
O957   Zn960   2.012   .     S
O958   Zn959   2.012   .     S
C961   O963    1.220   .     D
C961   H638    1.086   1_565 S
C964   O966    1.220   .     D
H965   C640    1.086   1_565 S
C967   O969    1.222   .     D
H968   C643    1.083   1_565 S
C970   H971    1.086   .     S
C970   C600    1.496   1_565 S
C970   O648    1.220   1_565 S
