data_str_m3_o1_o18_pcu_sym.18
_audit_creation_date              2020-01-03
_audit_creation_method            'Materials Studio'
_symmetry_space_group_name_H-M    'P1'
_symmetry_Int_Tables_number       1
_symmetry_cell_setting            triclinic
loop_
_symmetry_equiv_pos_as_xyz
  x,y,z
_cell_length_a                    29.7080
_cell_length_b                    32.0216
_cell_length_c                    31.2395
_cell_angle_alpha                 90.4191
_cell_angle_beta                  69.2307
_cell_angle_gamma                 89.0156
loop_
_atom_site_label
_atom_site_type_symbol
_atom_site_fract_x
_atom_site_fract_y
_atom_site_fract_z
_atom_site_U_iso_or_equiv
_atom_site_adp_type
_atom_site_occupancy
C1     C     0.16630   0.24662   0.25032   0.00000  Uiso   1.00
C2     C     0.13628   0.31231   0.23191   0.00000  Uiso   1.00
C3     C     0.16739   0.04254   0.24936   0.00000  Uiso   1.00
C4     C     0.16594   0.29080   0.25064   0.00000  Uiso   1.00
C5     C     0.31921   0.13610   0.22685   0.00000  Uiso   1.00
C6     C     0.01412   0.19723   0.27315   0.00000  Uiso   1.00
C7     C     0.03338   0.13619   0.22752   0.00000  Uiso   1.00
C8     C     0.29994   0.19713   0.27250   0.00000  Uiso   1.00
C9     C     0.13706   0.16985   0.33735   0.00000  Uiso   1.00
C10    C     0.19627   0.16345   0.16266   0.00000  Uiso   1.00
C11    C     0.12038   0.17753   0.38676   0.00000  Uiso   1.00
C12    C     0.16704   0.08671   0.24968   0.00000  Uiso   1.00
C13    C     0.21294   0.15562   0.11327   0.00000  Uiso   1.00
C14    C     0.05707   0.18646   0.46043   0.00000  Uiso   1.00
C15    C     0.27622   0.14652   0.03961   0.00000  Uiso   1.00
C16    C     0.07123   0.17998   0.41330   0.00000  Uiso   1.00
C17    C     0.26208   0.15317   0.08671   0.00000  Uiso   1.00
C18    C     0.15450   0.18417   0.40788   0.00000  Uiso   1.00
C19    C     0.17882   0.14881   0.09221   0.00000  Uiso   1.00
C20    C     0.14058   0.17719   0.45493   0.00000  Uiso   1.00
C21    C     0.19268   0.15564   0.04513   0.00000  Uiso   1.00
C22    C     0.09124   0.18277   0.48181   0.00000  Uiso   1.00
C23    C     0.11130   0.17994   0.04991   0.00000  Uiso   1.00
C24    C     0.24202   0.15007   0.01825   0.00000  Uiso   1.00
C25    C     0.17423   0.16617   0.47592   0.00000  Uiso   1.00
C26    C     0.15900   0.16658   0.02416   0.00000  Uiso   1.00
C27    C     0.13499   0.12253   0.11581   0.00000  Uiso   1.00
C28    C     0.19840   0.21039   0.38439   0.00000  Uiso   1.00
C29    C     0.30682   0.10144   0.20067   0.00000  Uiso   1.00
C30    C     0.02651   0.23189   0.29934   0.00000  Uiso   1.00
C31    C     0.22192   0.15277   0.45016   0.00000  Uiso   1.00
C32    C     0.07730   0.18585   0.02921   0.00000  Uiso   1.00
C33    C     0.25593   0.14690   0.47085   0.00000  Uiso   1.00
C34    C     0.19630   0.31157   0.26876   0.00000  Uiso   1.00
C35    C     0.13703   0.02176   0.23123   0.00000  Uiso   1.00
C36    C     0.19706   0.02102   0.26808   0.00000  Uiso   1.00
H37    H     0.04028   0.19333   0.05024   0.00000  Uiso   1.00
H38    H     0.11433   0.03853   0.21631   0.00000  Uiso   1.00
H39    H     0.22000   0.03720   0.28277   0.00000  Uiso   1.00
H40    H     0.11333   0.29613   0.21722   0.00000  Uiso   1.00
H41    H     0.05896   0.11162   0.21024   0.00000  Uiso   1.00
H42    H     0.27435   0.22168   0.28982   0.00000  Uiso   1.00
H43    H     0.10441   0.14201   0.13806   0.00000  Uiso   1.00
H44    H     0.12324   0.10562   0.09053   0.00000  Uiso   1.00
H45    H     0.14388   0.09823   0.13695   0.00000  Uiso   1.00
H46    H     0.21017   0.22717   0.40973   0.00000  Uiso   1.00
H47    H     0.22896   0.19089   0.36209   0.00000  Uiso   1.00
H48    H     0.29295   0.13942   0.44981   0.00000  Uiso   1.00
H49    H     0.18960   0.23479   0.36330   0.00000  Uiso   1.00
H50    H     0.00646   0.08595   0.17628   0.00000  Uiso   1.00
H51    H     0.28669   0.07727   0.22469   0.00000  Uiso   1.00
H52    H     0.28610   0.11339   0.18005   0.00000  Uiso   1.00
H53    H     0.32687   0.24739   0.32372   0.00000  Uiso   1.00
H54    H     0.04723   0.21994   0.31996   0.00000  Uiso   1.00
H55    H     0.04665   0.25606   0.27532   0.00000  Uiso   1.00
H56    H     0.28919   0.15453   0.10243   0.00000  Uiso   1.00
H57    H     0.04414   0.17875   0.39755   0.00000  Uiso   1.00
H58    H     0.01957   0.19299   0.48002   0.00000  Uiso   1.00
H59    H     0.31372   0.14000   0.02001   0.00000  Uiso   1.00
H60    H     0.09963   0.18606   0.08623   0.00000  Uiso   1.00
H61    H     0.23356   0.14664   0.41385   0.00000  Uiso   1.00
H62    H     0.21901   0.29480   0.28369   0.00000  Uiso   1.00
N63    N     0.04759   0.16668   0.25001   0.00000  Uiso   1.00
N64    N     0.28574   0.16666   0.24999   0.00000  Uiso   1.00
O65    O     0.12846   0.22775   0.25001   0.00000  Uiso   1.00
O66    O     0.20488   0.10558   0.25000   0.00000  Uiso   1.00
O67    O     0.20490   0.22774   0.25000   0.00000  Uiso   1.00
O68    O     0.12843   0.10559   0.25000   0.00000  Uiso   1.00
O69    O     0.10661   0.16667   0.31613   0.00000  Uiso   1.00
O70    O     0.22672   0.16666   0.18388   0.00000  Uiso   1.00
O71    O     0.18305   0.16666   0.31612   0.00000  Uiso   1.00
O72    O     0.15028   0.16667   0.18388   0.00000  Uiso   1.00
Zn73   Zn    0.11562   0.16667   0.25000   0.00000  Uiso   1.00
Zn74   Zn    0.21771   0.16666   0.25000   0.00000  Uiso   1.00
C75    C     0.49963   0.24662   0.25032   0.00000  Uiso   1.00
C76    C     0.46961   0.31231   0.23191   0.00000  Uiso   1.00
C77    C     0.50073   0.04254   0.24936   0.00000  Uiso   1.00
C78    C     0.49927   0.29080   0.25064   0.00000  Uiso   1.00
C79    C     0.65255   0.13610   0.22685   0.00000  Uiso   1.00
C80    C     0.34745   0.19723   0.27315   0.00000  Uiso   1.00
C81    C     0.36671   0.13619   0.22752   0.00000  Uiso   1.00
C82    C     0.63328   0.19713   0.27250   0.00000  Uiso   1.00
C83    C     0.47040   0.16985   0.33735   0.00000  Uiso   1.00
C84    C     0.52960   0.16345   0.16266   0.00000  Uiso   1.00
C85    C     0.45372   0.17753   0.38676   0.00000  Uiso   1.00
C86    C     0.50037   0.08671   0.24968   0.00000  Uiso   1.00
C87    C     0.54627   0.15562   0.11327   0.00000  Uiso   1.00
C88    C     0.39040   0.18646   0.46043   0.00000  Uiso   1.00
C89    C     0.60955   0.14652   0.03961   0.00000  Uiso   1.00
C90    C     0.40457   0.17998   0.41330   0.00000  Uiso   1.00
C91    C     0.59542   0.15317   0.08671   0.00000  Uiso   1.00
C92    C     0.48783   0.18417   0.40788   0.00000  Uiso   1.00
C93    C     0.51215   0.14881   0.09221   0.00000  Uiso   1.00
C94    C     0.47392   0.17719   0.45493   0.00000  Uiso   1.00
C95    C     0.52601   0.15564   0.04513   0.00000  Uiso   1.00
C96    C     0.42457   0.18277   0.48181   0.00000  Uiso   1.00
C97    C     0.44463   0.17994   0.04991   0.00000  Uiso   1.00
C98    C     0.57536   0.15007   0.01825   0.00000  Uiso   1.00
C99    C     0.50757   0.16617   0.47592   0.00000  Uiso   1.00
C100   C     0.49233   0.16658   0.02416   0.00000  Uiso   1.00
C101   C     0.46833   0.12253   0.11581   0.00000  Uiso   1.00
C102   C     0.53174   0.21039   0.38439   0.00000  Uiso   1.00
C103   C     0.64015   0.10144   0.20067   0.00000  Uiso   1.00
C104   C     0.35984   0.23189   0.29934   0.00000  Uiso   1.00
C105   C     0.55525   0.15277   0.45016   0.00000  Uiso   1.00
C106   C     0.41064   0.18585   0.02921   0.00000  Uiso   1.00
C107   C     0.58926   0.14690   0.47085   0.00000  Uiso   1.00
C108   C     0.52964   0.31157   0.26876   0.00000  Uiso   1.00
C109   C     0.47037   0.02176   0.23123   0.00000  Uiso   1.00
C110   C     0.53039   0.02102   0.26808   0.00000  Uiso   1.00
H111   H     0.37362   0.19333   0.05024   0.00000  Uiso   1.00
H112   H     0.44766   0.03853   0.21631   0.00000  Uiso   1.00
H113   H     0.55334   0.03720   0.28277   0.00000  Uiso   1.00
H114   H     0.44667   0.29613   0.21722   0.00000  Uiso   1.00
H115   H     0.39229   0.11162   0.21024   0.00000  Uiso   1.00
H116   H     0.60768   0.22168   0.28982   0.00000  Uiso   1.00
H117   H     0.43774   0.14201   0.13806   0.00000  Uiso   1.00
H118   H     0.45657   0.10562   0.09053   0.00000  Uiso   1.00
H119   H     0.47721   0.09823   0.13695   0.00000  Uiso   1.00
H120   H     0.54351   0.22717   0.40973   0.00000  Uiso   1.00
H121   H     0.56229   0.19089   0.36209   0.00000  Uiso   1.00
H122   H     0.62628   0.13942   0.44981   0.00000  Uiso   1.00
H123   H     0.52294   0.23479   0.36330   0.00000  Uiso   1.00
H124   H     0.33980   0.08595   0.17628   0.00000  Uiso   1.00
H125   H     0.62002   0.07727   0.22469   0.00000  Uiso   1.00
H126   H     0.61943   0.11339   0.18005   0.00000  Uiso   1.00
H127   H     0.66020   0.24739   0.32372   0.00000  Uiso   1.00
H128   H     0.38056   0.21994   0.31996   0.00000  Uiso   1.00
H129   H     0.37998   0.25606   0.27532   0.00000  Uiso   1.00
H130   H     0.62252   0.15453   0.10243   0.00000  Uiso   1.00
H131   H     0.37748   0.17875   0.39755   0.00000  Uiso   1.00
H132   H     0.35290   0.19299   0.48002   0.00000  Uiso   1.00
H133   H     0.64705   0.14000   0.02001   0.00000  Uiso   1.00
H134   H     0.43296   0.18606   0.08623   0.00000  Uiso   1.00
H135   H     0.56690   0.14664   0.41385   0.00000  Uiso   1.00
H136   H     0.55234   0.29480   0.28369   0.00000  Uiso   1.00
N137   N     0.38093   0.16668   0.25001   0.00000  Uiso   1.00
N138   N     0.61907   0.16666   0.24999   0.00000  Uiso   1.00
O139   O     0.46179   0.22775   0.25001   0.00000  Uiso   1.00
O140   O     0.53821   0.10558   0.25000   0.00000  Uiso   1.00
O141   O     0.53823   0.22774   0.25000   0.00000  Uiso   1.00
O142   O     0.46177   0.10559   0.25000   0.00000  Uiso   1.00
O143   O     0.43994   0.16667   0.31613   0.00000  Uiso   1.00
O144   O     0.56006   0.16666   0.18388   0.00000  Uiso   1.00
O145   O     0.51639   0.16666   0.31612   0.00000  Uiso   1.00
O146   O     0.48361   0.16667   0.18388   0.00000  Uiso   1.00
Zn147  Zn    0.44896   0.16667   0.25000   0.00000  Uiso   1.00
Zn148  Zn    0.55104   0.16666   0.25000   0.00000  Uiso   1.00
C149   C     0.83296   0.24662   0.25032   0.00000  Uiso   1.00
C150   C     0.80294   0.31231   0.23191   0.00000  Uiso   1.00
C151   C     0.83406   0.04254   0.24936   0.00000  Uiso   1.00
C152   C     0.83261   0.29080   0.25064   0.00000  Uiso   1.00
C153   C     0.98588   0.13610   0.22685   0.00000  Uiso   1.00
C154   C     0.68078   0.19723   0.27315   0.00000  Uiso   1.00
C155   C     0.70005   0.13619   0.22752   0.00000  Uiso   1.00
C156   C     0.96661   0.19713   0.27250   0.00000  Uiso   1.00
C157   C     0.80373   0.16985   0.33735   0.00000  Uiso   1.00
C158   C     0.86294   0.16345   0.16266   0.00000  Uiso   1.00
C159   C     0.78705   0.17753   0.38676   0.00000  Uiso   1.00
C160   C     0.83370   0.08671   0.24968   0.00000  Uiso   1.00
C161   C     0.87961   0.15562   0.11327   0.00000  Uiso   1.00
C162   C     0.72373   0.18646   0.46043   0.00000  Uiso   1.00
C163   C     0.94289   0.14652   0.03961   0.00000  Uiso   1.00
C164   C     0.73790   0.17998   0.41330   0.00000  Uiso   1.00
C165   C     0.92875   0.15317   0.08671   0.00000  Uiso   1.00
C166   C     0.82116   0.18417   0.40788   0.00000  Uiso   1.00
C167   C     0.84548   0.14881   0.09221   0.00000  Uiso   1.00
C168   C     0.80725   0.17719   0.45493   0.00000  Uiso   1.00
C169   C     0.85935   0.15564   0.04513   0.00000  Uiso   1.00
C170   C     0.75791   0.18277   0.48181   0.00000  Uiso   1.00
C171   C     0.77796   0.17994   0.04991   0.00000  Uiso   1.00
C172   C     0.90869   0.15007   0.01825   0.00000  Uiso   1.00
C173   C     0.84090   0.16617   0.47592   0.00000  Uiso   1.00
C174   C     0.82567   0.16658   0.02416   0.00000  Uiso   1.00
C175   C     0.80166   0.12253   0.11581   0.00000  Uiso   1.00
C176   C     0.86507   0.21039   0.38439   0.00000  Uiso   1.00
C177   C     0.97349   0.10144   0.20067   0.00000  Uiso   1.00
C178   C     0.69318   0.23189   0.29934   0.00000  Uiso   1.00
C179   C     0.88859   0.15277   0.45016   0.00000  Uiso   1.00
C180   C     0.74397   0.18585   0.02921   0.00000  Uiso   1.00
C181   C     0.92260   0.14690   0.47085   0.00000  Uiso   1.00
C182   C     0.86297   0.31157   0.26876   0.00000  Uiso   1.00
C183   C     0.80370   0.02176   0.23123   0.00000  Uiso   1.00
C184   C     0.86372   0.02102   0.26808   0.00000  Uiso   1.00
H185   H     0.70695   0.19333   0.05024   0.00000  Uiso   1.00
H186   H     0.78099   0.03853   0.21631   0.00000  Uiso   1.00
H187   H     0.88667   0.03720   0.28277   0.00000  Uiso   1.00
H188   H     0.78000   0.29613   0.21722   0.00000  Uiso   1.00
H189   H     0.72563   0.11162   0.21024   0.00000  Uiso   1.00
H190   H     0.94101   0.22168   0.28982   0.00000  Uiso   1.00
H191   H     0.77107   0.14201   0.13806   0.00000  Uiso   1.00
H192   H     0.78991   0.10562   0.09053   0.00000  Uiso   1.00
H193   H     0.81054   0.09823   0.13695   0.00000  Uiso   1.00
H194   H     0.87684   0.22717   0.40973   0.00000  Uiso   1.00
H195   H     0.89562   0.19089   0.36209   0.00000  Uiso   1.00
H196   H     0.95961   0.13942   0.44981   0.00000  Uiso   1.00
H197   H     0.85627   0.23479   0.36330   0.00000  Uiso   1.00
H198   H     0.67313   0.08595   0.17628   0.00000  Uiso   1.00
H199   H     0.95336   0.07727   0.22469   0.00000  Uiso   1.00
H200   H     0.95277   0.11339   0.18005   0.00000  Uiso   1.00
H201   H     0.99354   0.24739   0.32372   0.00000  Uiso   1.00
H202   H     0.71389   0.21994   0.31996   0.00000  Uiso   1.00
H203   H     0.71331   0.25606   0.27532   0.00000  Uiso   1.00
H204   H     0.95586   0.15453   0.10243   0.00000  Uiso   1.00
H205   H     0.71081   0.17875   0.39755   0.00000  Uiso   1.00
H206   H     0.68624   0.19299   0.48002   0.00000  Uiso   1.00
H207   H     0.98039   0.14000   0.02001   0.00000  Uiso   1.00
H208   H     0.76630   0.18606   0.08623   0.00000  Uiso   1.00
H209   H     0.90023   0.14664   0.41385   0.00000  Uiso   1.00
H210   H     0.88568   0.29480   0.28369   0.00000  Uiso   1.00
N211   N     0.71426   0.16668   0.25001   0.00000  Uiso   1.00
N212   N     0.95241   0.16666   0.24999   0.00000  Uiso   1.00
O213   O     0.79512   0.22775   0.25001   0.00000  Uiso   1.00
O214   O     0.87154   0.10558   0.25000   0.00000  Uiso   1.00
O215   O     0.87157   0.22774   0.25000   0.00000  Uiso   1.00
O216   O     0.79510   0.10559   0.25000   0.00000  Uiso   1.00
O217   O     0.77328   0.16667   0.31613   0.00000  Uiso   1.00
O218   O     0.89339   0.16666   0.18388   0.00000  Uiso   1.00
O219   O     0.84972   0.16666   0.31612   0.00000  Uiso   1.00
O220   O     0.81695   0.16667   0.18388   0.00000  Uiso   1.00
Zn221  Zn    0.78229   0.16667   0.25000   0.00000  Uiso   1.00
Zn222  Zn    0.88438   0.16666   0.25000   0.00000  Uiso   1.00
C223   C     0.16630   0.57996   0.25032   0.00000  Uiso   1.00
C224   C     0.13628   0.64565   0.23191   0.00000  Uiso   1.00
C225   C     0.16739   0.37587   0.24936   0.00000  Uiso   1.00
C226   C     0.16594   0.62413   0.25064   0.00000  Uiso   1.00
C227   C     0.31921   0.46944   0.22685   0.00000  Uiso   1.00
C228   C     0.01412   0.53056   0.27315   0.00000  Uiso   1.00
C229   C     0.03338   0.46952   0.22752   0.00000  Uiso   1.00
C230   C     0.29994   0.53046   0.27250   0.00000  Uiso   1.00
C231   C     0.13706   0.50319   0.33735   0.00000  Uiso   1.00
C232   C     0.19627   0.49678   0.16266   0.00000  Uiso   1.00
C233   C     0.12038   0.51087   0.38676   0.00000  Uiso   1.00
C234   C     0.16704   0.42004   0.24968   0.00000  Uiso   1.00
C235   C     0.21294   0.48896   0.11327   0.00000  Uiso   1.00
C236   C     0.05707   0.51980   0.46043   0.00000  Uiso   1.00
C237   C     0.27622   0.47985   0.03961   0.00000  Uiso   1.00
C238   C     0.07123   0.51331   0.41330   0.00000  Uiso   1.00
C239   C     0.26208   0.48650   0.08671   0.00000  Uiso   1.00
C240   C     0.15450   0.51750   0.40788   0.00000  Uiso   1.00
C241   C     0.17882   0.48214   0.09221   0.00000  Uiso   1.00
C242   C     0.14058   0.51052   0.45493   0.00000  Uiso   1.00
C243   C     0.19268   0.48897   0.04513   0.00000  Uiso   1.00
C244   C     0.09124   0.51611   0.48181   0.00000  Uiso   1.00
C245   C     0.11130   0.51328   0.04991   0.00000  Uiso   1.00
C246   C     0.24202   0.48340   0.01825   0.00000  Uiso   1.00
C247   C     0.17423   0.49950   0.47592   0.00000  Uiso   1.00
C248   C     0.15900   0.49991   0.02416   0.00000  Uiso   1.00
C249   C     0.13499   0.45586   0.11581   0.00000  Uiso   1.00
C250   C     0.19840   0.54373   0.38439   0.00000  Uiso   1.00
C251   C     0.30682   0.43477   0.20067   0.00000  Uiso   1.00
C252   C     0.02651   0.56522   0.29934   0.00000  Uiso   1.00
C253   C     0.22192   0.48610   0.45016   0.00000  Uiso   1.00
C254   C     0.07730   0.51918   0.02921   0.00000  Uiso   1.00
C255   C     0.25593   0.48023   0.47085   0.00000  Uiso   1.00
C256   C     0.19630   0.64490   0.26876   0.00000  Uiso   1.00
C257   C     0.13703   0.35510   0.23123   0.00000  Uiso   1.00
C258   C     0.19706   0.35435   0.26808   0.00000  Uiso   1.00
H259   H     0.04028   0.52666   0.05024   0.00000  Uiso   1.00
H260   H     0.11433   0.37187   0.21631   0.00000  Uiso   1.00
H261   H     0.22000   0.37053   0.28277   0.00000  Uiso   1.00
H262   H     0.11333   0.62947   0.21722   0.00000  Uiso   1.00
H263   H     0.05896   0.44495   0.21024   0.00000  Uiso   1.00
H264   H     0.27435   0.55502   0.28982   0.00000  Uiso   1.00
H265   H     0.10441   0.47535   0.13806   0.00000  Uiso   1.00
H266   H     0.12324   0.43896   0.09053   0.00000  Uiso   1.00
H267   H     0.14388   0.43157   0.13695   0.00000  Uiso   1.00
H268   H     0.21017   0.56051   0.40973   0.00000  Uiso   1.00
H269   H     0.22896   0.52423   0.36209   0.00000  Uiso   1.00
H270   H     0.29295   0.47275   0.44981   0.00000  Uiso   1.00
H271   H     0.18960   0.56812   0.36330   0.00000  Uiso   1.00
H272   H     0.00646   0.41928   0.17628   0.00000  Uiso   1.00
H273   H     0.28669   0.41060   0.22469   0.00000  Uiso   1.00
H274   H     0.28610   0.44672   0.18005   0.00000  Uiso   1.00
H275   H     0.32687   0.58072   0.32372   0.00000  Uiso   1.00
H276   H     0.04723   0.55327   0.31996   0.00000  Uiso   1.00
H277   H     0.04665   0.58940   0.27532   0.00000  Uiso   1.00
H278   H     0.28919   0.48786   0.10243   0.00000  Uiso   1.00
H279   H     0.04414   0.51208   0.39755   0.00000  Uiso   1.00
H280   H     0.01957   0.52633   0.48002   0.00000  Uiso   1.00
H281   H     0.31372   0.47333   0.02001   0.00000  Uiso   1.00
H282   H     0.09963   0.51939   0.08623   0.00000  Uiso   1.00
H283   H     0.23356   0.47997   0.41385   0.00000  Uiso   1.00
H284   H     0.21901   0.62813   0.28369   0.00000  Uiso   1.00
N285   N     0.04759   0.50001   0.25001   0.00000  Uiso   1.00
N286   N     0.28574   0.49999   0.24999   0.00000  Uiso   1.00
O287   O     0.12846   0.56108   0.25001   0.00000  Uiso   1.00
O288   O     0.20488   0.43892   0.25000   0.00000  Uiso   1.00
O289   O     0.20490   0.56107   0.25000   0.00000  Uiso   1.00
O290   O     0.12843   0.43893   0.25000   0.00000  Uiso   1.00
O291   O     0.10661   0.50001   0.31613   0.00000  Uiso   1.00
O292   O     0.22672   0.49999   0.18388   0.00000  Uiso   1.00
O293   O     0.18305   0.50000   0.31612   0.00000  Uiso   1.00
O294   O     0.15028   0.50000   0.18388   0.00000  Uiso   1.00
Zn295  Zn    0.11562   0.50001   0.25000   0.00000  Uiso   1.00
Zn296  Zn    0.21771   0.49999   0.25000   0.00000  Uiso   1.00
C297   C     0.49963   0.57996   0.25032   0.00000  Uiso   1.00
C298   C     0.46961   0.64565   0.23191   0.00000  Uiso   1.00
C299   C     0.50073   0.37587   0.24936   0.00000  Uiso   1.00
C300   C     0.49927   0.62413   0.25064   0.00000  Uiso   1.00
C301   C     0.65255   0.46944   0.22685   0.00000  Uiso   1.00
C302   C     0.34745   0.53056   0.27315   0.00000  Uiso   1.00
C303   C     0.36671   0.46952   0.22752   0.00000  Uiso   1.00
C304   C     0.63328   0.53046   0.27250   0.00000  Uiso   1.00
C305   C     0.47040   0.50319   0.33735   0.00000  Uiso   1.00
C306   C     0.52960   0.49678   0.16266   0.00000  Uiso   1.00
C307   C     0.45372   0.51087   0.38676   0.00000  Uiso   1.00
C308   C     0.50037   0.42004   0.24968   0.00000  Uiso   1.00
C309   C     0.54627   0.48896   0.11327   0.00000  Uiso   1.00
C310   C     0.39040   0.51980   0.46043   0.00000  Uiso   1.00
C311   C     0.60955   0.47985   0.03961   0.00000  Uiso   1.00
C312   C     0.40457   0.51331   0.41330   0.00000  Uiso   1.00
C313   C     0.59542   0.48650   0.08671   0.00000  Uiso   1.00
C314   C     0.48783   0.51750   0.40788   0.00000  Uiso   1.00
C315   C     0.51215   0.48214   0.09221   0.00000  Uiso   1.00
C316   C     0.47392   0.51052   0.45493   0.00000  Uiso   1.00
C317   C     0.52601   0.48897   0.04513   0.00000  Uiso   1.00
C318   C     0.42457   0.51611   0.48181   0.00000  Uiso   1.00
C319   C     0.44463   0.51328   0.04991   0.00000  Uiso   1.00
C320   C     0.57536   0.48340   0.01825   0.00000  Uiso   1.00
C321   C     0.50757   0.49950   0.47592   0.00000  Uiso   1.00
C322   C     0.49233   0.49991   0.02416   0.00000  Uiso   1.00
C323   C     0.46833   0.45586   0.11581   0.00000  Uiso   1.00
C324   C     0.53174   0.54373   0.38439   0.00000  Uiso   1.00
C325   C     0.64015   0.43477   0.20067   0.00000  Uiso   1.00
C326   C     0.35984   0.56522   0.29934   0.00000  Uiso   1.00
C327   C     0.55525   0.48610   0.45016   0.00000  Uiso   1.00
C328   C     0.41064   0.51918   0.02921   0.00000  Uiso   1.00
C329   C     0.58926   0.48023   0.47085   0.00000  Uiso   1.00
C330   C     0.52964   0.64490   0.26876   0.00000  Uiso   1.00
C331   C     0.47037   0.35510   0.23123   0.00000  Uiso   1.00
C332   C     0.53039   0.35435   0.26808   0.00000  Uiso   1.00
H333   H     0.37362   0.52666   0.05024   0.00000  Uiso   1.00
H334   H     0.44766   0.37187   0.21631   0.00000  Uiso   1.00
H335   H     0.55334   0.37053   0.28277   0.00000  Uiso   1.00
H336   H     0.44667   0.62947   0.21722   0.00000  Uiso   1.00
H337   H     0.39229   0.44495   0.21024   0.00000  Uiso   1.00
H338   H     0.60768   0.55502   0.28982   0.00000  Uiso   1.00
H339   H     0.43774   0.47535   0.13806   0.00000  Uiso   1.00
H340   H     0.45657   0.43896   0.09053   0.00000  Uiso   1.00
H341   H     0.47721   0.43157   0.13695   0.00000  Uiso   1.00
H342   H     0.54351   0.56051   0.40973   0.00000  Uiso   1.00
H343   H     0.56229   0.52423   0.36209   0.00000  Uiso   1.00
H344   H     0.62628   0.47275   0.44981   0.00000  Uiso   1.00
H345   H     0.52294   0.56812   0.36330   0.00000  Uiso   1.00
H346   H     0.33980   0.41928   0.17628   0.00000  Uiso   1.00
H347   H     0.62002   0.41060   0.22469   0.00000  Uiso   1.00
H348   H     0.61943   0.44672   0.18005   0.00000  Uiso   1.00
H349   H     0.66020   0.58072   0.32372   0.00000  Uiso   1.00
H350   H     0.38056   0.55327   0.31996   0.00000  Uiso   1.00
H351   H     0.37998   0.58940   0.27532   0.00000  Uiso   1.00
H352   H     0.62252   0.48786   0.10243   0.00000  Uiso   1.00
H353   H     0.37748   0.51208   0.39755   0.00000  Uiso   1.00
H354   H     0.35290   0.52633   0.48002   0.00000  Uiso   1.00
H355   H     0.64705   0.47333   0.02001   0.00000  Uiso   1.00
H356   H     0.43296   0.51939   0.08623   0.00000  Uiso   1.00
H357   H     0.56690   0.47997   0.41385   0.00000  Uiso   1.00
H358   H     0.55234   0.62813   0.28369   0.00000  Uiso   1.00
N359   N     0.38093   0.50001   0.25001   0.00000  Uiso   1.00
N360   N     0.61907   0.49999   0.24999   0.00000  Uiso   1.00
O361   O     0.46179   0.56108   0.25001   0.00000  Uiso   1.00
O362   O     0.53821   0.43892   0.25000   0.00000  Uiso   1.00
O363   O     0.53823   0.56107   0.25000   0.00000  Uiso   1.00
O364   O     0.46177   0.43893   0.25000   0.00000  Uiso   1.00
O365   O     0.43994   0.50001   0.31613   0.00000  Uiso   1.00
O366   O     0.56006   0.49999   0.18388   0.00000  Uiso   1.00
O367   O     0.51639   0.50000   0.31612   0.00000  Uiso   1.00
O368   O     0.48361   0.50000   0.18388   0.00000  Uiso   1.00
Zn369  Zn    0.44896   0.50001   0.25000   0.00000  Uiso   1.00
Zn370  Zn    0.55104   0.49999   0.25000   0.00000  Uiso   1.00
C371   C     0.83296   0.57996   0.25032   0.00000  Uiso   1.00
C372   C     0.80294   0.64565   0.23191   0.00000  Uiso   1.00
C373   C     0.83406   0.37587   0.24936   0.00000  Uiso   1.00
C374   C     0.83261   0.62413   0.25064   0.00000  Uiso   1.00
C375   C     0.98588   0.46944   0.22685   0.00000  Uiso   1.00
C376   C     0.68078   0.53056   0.27315   0.00000  Uiso   1.00
C377   C     0.70005   0.46952   0.22752   0.00000  Uiso   1.00
C378   C     0.96661   0.53046   0.27250   0.00000  Uiso   1.00
C379   C     0.80373   0.50319   0.33735   0.00000  Uiso   1.00
C380   C     0.86294   0.49678   0.16266   0.00000  Uiso   1.00
C381   C     0.78705   0.51087   0.38676   0.00000  Uiso   1.00
C382   C     0.83370   0.42004   0.24968   0.00000  Uiso   1.00
C383   C     0.87961   0.48896   0.11327   0.00000  Uiso   1.00
C384   C     0.72373   0.51980   0.46043   0.00000  Uiso   1.00
C385   C     0.94289   0.47985   0.03961   0.00000  Uiso   1.00
C386   C     0.73790   0.51331   0.41330   0.00000  Uiso   1.00
C387   C     0.92875   0.48650   0.08671   0.00000  Uiso   1.00
C388   C     0.82116   0.51750   0.40788   0.00000  Uiso   1.00
C389   C     0.84548   0.48214   0.09221   0.00000  Uiso   1.00
C390   C     0.80725   0.51052   0.45493   0.00000  Uiso   1.00
C391   C     0.85935   0.48897   0.04513   0.00000  Uiso   1.00
C392   C     0.75791   0.51611   0.48181   0.00000  Uiso   1.00
C393   C     0.77796   0.51328   0.04991   0.00000  Uiso   1.00
C394   C     0.90869   0.48340   0.01825   0.00000  Uiso   1.00
C395   C     0.84090   0.49950   0.47592   0.00000  Uiso   1.00
C396   C     0.82567   0.49991   0.02416   0.00000  Uiso   1.00
C397   C     0.80166   0.45586   0.11581   0.00000  Uiso   1.00
C398   C     0.86507   0.54373   0.38439   0.00000  Uiso   1.00
C399   C     0.97349   0.43477   0.20067   0.00000  Uiso   1.00
C400   C     0.69318   0.56522   0.29934   0.00000  Uiso   1.00
C401   C     0.88859   0.48610   0.45016   0.00000  Uiso   1.00
C402   C     0.74397   0.51918   0.02921   0.00000  Uiso   1.00
C403   C     0.92260   0.48023   0.47085   0.00000  Uiso   1.00
C404   C     0.86297   0.64490   0.26876   0.00000  Uiso   1.00
C405   C     0.80370   0.35510   0.23123   0.00000  Uiso   1.00
C406   C     0.86372   0.35435   0.26808   0.00000  Uiso   1.00
H407   H     0.70695   0.52666   0.05024   0.00000  Uiso   1.00
H408   H     0.78099   0.37187   0.21631   0.00000  Uiso   1.00
H409   H     0.88667   0.37053   0.28277   0.00000  Uiso   1.00
H410   H     0.78000   0.62947   0.21722   0.00000  Uiso   1.00
H411   H     0.72563   0.44495   0.21024   0.00000  Uiso   1.00
H412   H     0.94101   0.55502   0.28982   0.00000  Uiso   1.00
H413   H     0.77107   0.47535   0.13806   0.00000  Uiso   1.00
H414   H     0.78991   0.43896   0.09053   0.00000  Uiso   1.00
H415   H     0.81054   0.43157   0.13695   0.00000  Uiso   1.00
H416   H     0.87684   0.56051   0.40973   0.00000  Uiso   1.00
H417   H     0.89562   0.52423   0.36209   0.00000  Uiso   1.00
H418   H     0.95961   0.47275   0.44981   0.00000  Uiso   1.00
H419   H     0.85627   0.56812   0.36330   0.00000  Uiso   1.00
H420   H     0.67313   0.41928   0.17628   0.00000  Uiso   1.00
H421   H     0.95336   0.41060   0.22469   0.00000  Uiso   1.00
H422   H     0.95277   0.44672   0.18005   0.00000  Uiso   1.00
H423   H     0.99354   0.58072   0.32372   0.00000  Uiso   1.00
H424   H     0.71389   0.55327   0.31996   0.00000  Uiso   1.00
H425   H     0.71331   0.58940   0.27532   0.00000  Uiso   1.00
H426   H     0.95586   0.48786   0.10243   0.00000  Uiso   1.00
H427   H     0.71081   0.51208   0.39755   0.00000  Uiso   1.00
H428   H     0.68624   0.52633   0.48002   0.00000  Uiso   1.00
H429   H     0.98039   0.47333   0.02001   0.00000  Uiso   1.00
H430   H     0.76630   0.51939   0.08623   0.00000  Uiso   1.00
H431   H     0.90023   0.47997   0.41385   0.00000  Uiso   1.00
H432   H     0.88568   0.62813   0.28369   0.00000  Uiso   1.00
N433   N     0.71426   0.50001   0.25001   0.00000  Uiso   1.00
N434   N     0.95241   0.49999   0.24999   0.00000  Uiso   1.00
O435   O     0.79512   0.56108   0.25001   0.00000  Uiso   1.00
O436   O     0.87154   0.43892   0.25000   0.00000  Uiso   1.00
O437   O     0.87157   0.56107   0.25000   0.00000  Uiso   1.00
O438   O     0.79510   0.43893   0.25000   0.00000  Uiso   1.00
O439   O     0.77328   0.50001   0.31613   0.00000  Uiso   1.00
O440   O     0.89339   0.49999   0.18388   0.00000  Uiso   1.00
O441   O     0.84972   0.50000   0.31612   0.00000  Uiso   1.00
O442   O     0.81695   0.50000   0.18388   0.00000  Uiso   1.00
Zn443  Zn    0.78229   0.50001   0.25000   0.00000  Uiso   1.00
Zn444  Zn    0.88438   0.49999   0.25000   0.00000  Uiso   1.00
C445   C     0.16630   0.91329   0.25032   0.00000  Uiso   1.00
C446   C     0.13628   0.97898   0.23191   0.00000  Uiso   1.00
C447   C     0.16739   0.70920   0.24936   0.00000  Uiso   1.00
C448   C     0.16594   0.95746   0.25064   0.00000  Uiso   1.00
C449   C     0.31921   0.80277   0.22685   0.00000  Uiso   1.00
C450   C     0.01412   0.86390   0.27315   0.00000  Uiso   1.00
C451   C     0.03338   0.80286   0.22752   0.00000  Uiso   1.00
C452   C     0.29994   0.86380   0.27250   0.00000  Uiso   1.00
C453   C     0.13706   0.83652   0.33735   0.00000  Uiso   1.00
C454   C     0.19627   0.83011   0.16266   0.00000  Uiso   1.00
C455   C     0.12038   0.84420   0.38676   0.00000  Uiso   1.00
C456   C     0.16704   0.75338   0.24968   0.00000  Uiso   1.00
C457   C     0.21294   0.82229   0.11327   0.00000  Uiso   1.00
C458   C     0.05707   0.85313   0.46043   0.00000  Uiso   1.00
C459   C     0.27622   0.81319   0.03961   0.00000  Uiso   1.00
C460   C     0.07123   0.84664   0.41330   0.00000  Uiso   1.00
C461   C     0.26208   0.81984   0.08671   0.00000  Uiso   1.00
C462   C     0.15450   0.85083   0.40788   0.00000  Uiso   1.00
C463   C     0.17882   0.81547   0.09221   0.00000  Uiso   1.00
C464   C     0.14058   0.84386   0.45493   0.00000  Uiso   1.00
C465   C     0.19268   0.82231   0.04513   0.00000  Uiso   1.00
C466   C     0.09124   0.84944   0.48181   0.00000  Uiso   1.00
C467   C     0.11130   0.84661   0.04991   0.00000  Uiso   1.00
C468   C     0.24202   0.81674   0.01825   0.00000  Uiso   1.00
C469   C     0.17423   0.83283   0.47592   0.00000  Uiso   1.00
C470   C     0.15900   0.83325   0.02416   0.00000  Uiso   1.00
C471   C     0.13499   0.78919   0.11581   0.00000  Uiso   1.00
C472   C     0.19840   0.87706   0.38439   0.00000  Uiso   1.00
C473   C     0.30682   0.76811   0.20067   0.00000  Uiso   1.00
C474   C     0.02651   0.89856   0.29934   0.00000  Uiso   1.00
C475   C     0.22192   0.81943   0.45016   0.00000  Uiso   1.00
C476   C     0.07730   0.85251   0.02921   0.00000  Uiso   1.00
C477   C     0.25593   0.81356   0.47085   0.00000  Uiso   1.00
C478   C     0.19630   0.97824   0.26876   0.00000  Uiso   1.00
C479   C     0.13703   0.68843   0.23123   0.00000  Uiso   1.00
C480   C     0.19706   0.68769   0.26808   0.00000  Uiso   1.00
H481   H     0.04028   0.85999   0.05024   0.00000  Uiso   1.00
H482   H     0.11433   0.70520   0.21631   0.00000  Uiso   1.00
H483   H     0.22000   0.70387   0.28277   0.00000  Uiso   1.00
H484   H     0.11333   0.96280   0.21722   0.00000  Uiso   1.00
H485   H     0.05896   0.77828   0.21024   0.00000  Uiso   1.00
H486   H     0.27435   0.88835   0.28982   0.00000  Uiso   1.00
H487   H     0.10441   0.80868   0.13806   0.00000  Uiso   1.00
H488   H     0.12324   0.77229   0.09053   0.00000  Uiso   1.00
H489   H     0.14388   0.76490   0.13695   0.00000  Uiso   1.00
H490   H     0.21017   0.89384   0.40973   0.00000  Uiso   1.00
H491   H     0.22896   0.85756   0.36209   0.00000  Uiso   1.00
H492   H     0.29295   0.80608   0.44981   0.00000  Uiso   1.00
H493   H     0.18960   0.90145   0.36330   0.00000  Uiso   1.00
H494   H     0.00646   0.75261   0.17628   0.00000  Uiso   1.00
H495   H     0.28669   0.74393   0.22469   0.00000  Uiso   1.00
H496   H     0.28610   0.78006   0.18005   0.00000  Uiso   1.00
H497   H     0.32687   0.91406   0.32372   0.00000  Uiso   1.00
H498   H     0.04723   0.88661   0.31996   0.00000  Uiso   1.00
H499   H     0.04665   0.92273   0.27532   0.00000  Uiso   1.00
H500   H     0.28919   0.82120   0.10243   0.00000  Uiso   1.00
H501   H     0.04414   0.84541   0.39755   0.00000  Uiso   1.00
H502   H     0.01957   0.85966   0.48002   0.00000  Uiso   1.00
H503   H     0.31372   0.80666   0.02001   0.00000  Uiso   1.00
H504   H     0.09963   0.85272   0.08623   0.00000  Uiso   1.00
H505   H     0.23356   0.81330   0.41385   0.00000  Uiso   1.00
H506   H     0.21901   0.96147   0.28369   0.00000  Uiso   1.00
N507   N     0.04759   0.83334   0.25001   0.00000  Uiso   1.00
N508   N     0.28574   0.83332   0.24999   0.00000  Uiso   1.00
O509   O     0.12846   0.89442   0.25001   0.00000  Uiso   1.00
O510   O     0.20488   0.77225   0.25000   0.00000  Uiso   1.00
O511   O     0.20490   0.89441   0.25000   0.00000  Uiso   1.00
O512   O     0.12843   0.77226   0.25000   0.00000  Uiso   1.00
O513   O     0.10661   0.83334   0.31613   0.00000  Uiso   1.00
O514   O     0.22672   0.83333   0.18388   0.00000  Uiso   1.00
O515   O     0.18305   0.83333   0.31612   0.00000  Uiso   1.00
O516   O     0.15028   0.83334   0.18388   0.00000  Uiso   1.00
Zn517  Zn    0.11562   0.83334   0.25000   0.00000  Uiso   1.00
Zn518  Zn    0.21771   0.83333   0.25000   0.00000  Uiso   1.00
C519   C     0.49963   0.91329   0.25032   0.00000  Uiso   1.00
C520   C     0.46961   0.97898   0.23191   0.00000  Uiso   1.00
C521   C     0.50073   0.70920   0.24936   0.00000  Uiso   1.00
C522   C     0.49927   0.95746   0.25064   0.00000  Uiso   1.00
C523   C     0.65255   0.80277   0.22685   0.00000  Uiso   1.00
C524   C     0.34745   0.86390   0.27315   0.00000  Uiso   1.00
C525   C     0.36671   0.80286   0.22752   0.00000  Uiso   1.00
C526   C     0.63328   0.86380   0.27250   0.00000  Uiso   1.00
C527   C     0.47040   0.83652   0.33735   0.00000  Uiso   1.00
C528   C     0.52960   0.83011   0.16266   0.00000  Uiso   1.00
C529   C     0.45372   0.84420   0.38676   0.00000  Uiso   1.00
C530   C     0.50037   0.75338   0.24968   0.00000  Uiso   1.00
C531   C     0.54627   0.82229   0.11327   0.00000  Uiso   1.00
C532   C     0.39040   0.85313   0.46043   0.00000  Uiso   1.00
C533   C     0.60955   0.81319   0.03961   0.00000  Uiso   1.00
C534   C     0.40457   0.84664   0.41330   0.00000  Uiso   1.00
C535   C     0.59542   0.81984   0.08671   0.00000  Uiso   1.00
C536   C     0.48783   0.85083   0.40788   0.00000  Uiso   1.00
C537   C     0.51215   0.81547   0.09221   0.00000  Uiso   1.00
C538   C     0.47392   0.84386   0.45493   0.00000  Uiso   1.00
C539   C     0.52601   0.82231   0.04513   0.00000  Uiso   1.00
C540   C     0.42457   0.84944   0.48181   0.00000  Uiso   1.00
C541   C     0.44463   0.84661   0.04991   0.00000  Uiso   1.00
C542   C     0.57536   0.81674   0.01825   0.00000  Uiso   1.00
C543   C     0.50757   0.83283   0.47592   0.00000  Uiso   1.00
C544   C     0.49233   0.83325   0.02416   0.00000  Uiso   1.00
C545   C     0.46833   0.78919   0.11581   0.00000  Uiso   1.00
C546   C     0.53174   0.87706   0.38439   0.00000  Uiso   1.00
C547   C     0.64015   0.76811   0.20067   0.00000  Uiso   1.00
C548   C     0.35984   0.89856   0.29934   0.00000  Uiso   1.00
C549   C     0.55525   0.81943   0.45016   0.00000  Uiso   1.00
C550   C     0.41064   0.85251   0.02921   0.00000  Uiso   1.00
C551   C     0.58926   0.81356   0.47085   0.00000  Uiso   1.00
C552   C     0.52964   0.97824   0.26876   0.00000  Uiso   1.00
C553   C     0.47037   0.68843   0.23123   0.00000  Uiso   1.00
C554   C     0.53039   0.68769   0.26808   0.00000  Uiso   1.00
H555   H     0.37362   0.85999   0.05024   0.00000  Uiso   1.00
H556   H     0.44766   0.70520   0.21631   0.00000  Uiso   1.00
H557   H     0.55334   0.70387   0.28277   0.00000  Uiso   1.00
H558   H     0.44667   0.96280   0.21722   0.00000  Uiso   1.00
H559   H     0.39229   0.77828   0.21024   0.00000  Uiso   1.00
H560   H     0.60768   0.88835   0.28982   0.00000  Uiso   1.00
H561   H     0.43774   0.80868   0.13806   0.00000  Uiso   1.00
H562   H     0.45657   0.77229   0.09053   0.00000  Uiso   1.00
H563   H     0.47721   0.76490   0.13695   0.00000  Uiso   1.00
H564   H     0.54351   0.89384   0.40973   0.00000  Uiso   1.00
H565   H     0.56229   0.85756   0.36209   0.00000  Uiso   1.00
H566   H     0.62628   0.80608   0.44981   0.00000  Uiso   1.00
H567   H     0.52294   0.90145   0.36330   0.00000  Uiso   1.00
H568   H     0.33980   0.75261   0.17628   0.00000  Uiso   1.00
H569   H     0.62002   0.74393   0.22469   0.00000  Uiso   1.00
H570   H     0.61943   0.78006   0.18005   0.00000  Uiso   1.00
H571   H     0.66020   0.91406   0.32372   0.00000  Uiso   1.00
H572   H     0.38056   0.88661   0.31996   0.00000  Uiso   1.00
H573   H     0.37998   0.92273   0.27532   0.00000  Uiso   1.00
H574   H     0.62252   0.82120   0.10243   0.00000  Uiso   1.00
H575   H     0.37748   0.84541   0.39755   0.00000  Uiso   1.00
H576   H     0.35290   0.85966   0.48002   0.00000  Uiso   1.00
H577   H     0.64705   0.80666   0.02001   0.00000  Uiso   1.00
H578   H     0.43296   0.85272   0.08623   0.00000  Uiso   1.00
H579   H     0.56690   0.81330   0.41385   0.00000  Uiso   1.00
H580   H     0.55234   0.96147   0.28369   0.00000  Uiso   1.00
N581   N     0.38093   0.83334   0.25001   0.00000  Uiso   1.00
N582   N     0.61907   0.83332   0.24999   0.00000  Uiso   1.00
O583   O     0.46179   0.89442   0.25001   0.00000  Uiso   1.00
O584   O     0.53821   0.77225   0.25000   0.00000  Uiso   1.00
O585   O     0.53823   0.89441   0.25000   0.00000  Uiso   1.00
O586   O     0.46177   0.77226   0.25000   0.00000  Uiso   1.00
O587   O     0.43994   0.83334   0.31613   0.00000  Uiso   1.00
O588   O     0.56006   0.83333   0.18388   0.00000  Uiso   1.00
O589   O     0.51639   0.83333   0.31612   0.00000  Uiso   1.00
O590   O     0.48361   0.83334   0.18388   0.00000  Uiso   1.00
Zn591  Zn    0.44896   0.83334   0.25000   0.00000  Uiso   1.00
Zn592  Zn    0.55104   0.83333   0.25000   0.00000  Uiso   1.00
C593   C     0.83296   0.91329   0.25032   0.00000  Uiso   1.00
C594   C     0.80294   0.97898   0.23191   0.00000  Uiso   1.00
C595   C     0.83406   0.70920   0.24936   0.00000  Uiso   1.00
C596   C     0.83261   0.95746   0.25064   0.00000  Uiso   1.00
C597   C     0.98588   0.80277   0.22685   0.00000  Uiso   1.00
C598   C     0.68078   0.86390   0.27315   0.00000  Uiso   1.00
C599   C     0.70005   0.80286   0.22752   0.00000  Uiso   1.00
C600   C     0.96661   0.86380   0.27250   0.00000  Uiso   1.00
C601   C     0.80373   0.83652   0.33735   0.00000  Uiso   1.00
C602   C     0.86294   0.83011   0.16266   0.00000  Uiso   1.00
C603   C     0.78705   0.84420   0.38676   0.00000  Uiso   1.00
C604   C     0.83370   0.75338   0.24968   0.00000  Uiso   1.00
C605   C     0.87961   0.82229   0.11327   0.00000  Uiso   1.00
C606   C     0.72373   0.85313   0.46043   0.00000  Uiso   1.00
C607   C     0.94289   0.81319   0.03961   0.00000  Uiso   1.00
C608   C     0.73790   0.84664   0.41330   0.00000  Uiso   1.00
C609   C     0.92875   0.81984   0.08671   0.00000  Uiso   1.00
C610   C     0.82116   0.85083   0.40788   0.00000  Uiso   1.00
C611   C     0.84548   0.81547   0.09221   0.00000  Uiso   1.00
C612   C     0.80725   0.84386   0.45493   0.00000  Uiso   1.00
C613   C     0.85935   0.82231   0.04513   0.00000  Uiso   1.00
C614   C     0.75791   0.84944   0.48181   0.00000  Uiso   1.00
C615   C     0.77796   0.84661   0.04991   0.00000  Uiso   1.00
C616   C     0.90869   0.81674   0.01825   0.00000  Uiso   1.00
C617   C     0.84090   0.83283   0.47592   0.00000  Uiso   1.00
C618   C     0.82567   0.83325   0.02416   0.00000  Uiso   1.00
C619   C     0.80166   0.78919   0.11581   0.00000  Uiso   1.00
C620   C     0.86507   0.87706   0.38439   0.00000  Uiso   1.00
C621   C     0.97349   0.76811   0.20067   0.00000  Uiso   1.00
C622   C     0.69318   0.89856   0.29934   0.00000  Uiso   1.00
C623   C     0.88859   0.81943   0.45016   0.00000  Uiso   1.00
C624   C     0.74397   0.85251   0.02921   0.00000  Uiso   1.00
C625   C     0.92260   0.81356   0.47085   0.00000  Uiso   1.00
C626   C     0.86297   0.97824   0.26876   0.00000  Uiso   1.00
C627   C     0.80370   0.68843   0.23123   0.00000  Uiso   1.00
C628   C     0.86372   0.68769   0.26808   0.00000  Uiso   1.00
H629   H     0.70695   0.85999   0.05024   0.00000  Uiso   1.00
H630   H     0.78099   0.70520   0.21631   0.00000  Uiso   1.00
H631   H     0.88667   0.70387   0.28277   0.00000  Uiso   1.00
H632   H     0.78000   0.96280   0.21722   0.00000  Uiso   1.00
H633   H     0.72563   0.77828   0.21024   0.00000  Uiso   1.00
H634   H     0.94101   0.88835   0.28982   0.00000  Uiso   1.00
H635   H     0.77107   0.80868   0.13806   0.00000  Uiso   1.00
H636   H     0.78991   0.77229   0.09053   0.00000  Uiso   1.00
H637   H     0.81054   0.76490   0.13695   0.00000  Uiso   1.00
H638   H     0.87684   0.89384   0.40973   0.00000  Uiso   1.00
H639   H     0.89562   0.85756   0.36209   0.00000  Uiso   1.00
H640   H     0.95961   0.80608   0.44981   0.00000  Uiso   1.00
H641   H     0.85627   0.90145   0.36330   0.00000  Uiso   1.00
H642   H     0.67313   0.75261   0.17628   0.00000  Uiso   1.00
H643   H     0.95336   0.74393   0.22469   0.00000  Uiso   1.00
H644   H     0.95277   0.78006   0.18005   0.00000  Uiso   1.00
H645   H     0.99354   0.91406   0.32372   0.00000  Uiso   1.00
H646   H     0.71389   0.88661   0.31996   0.00000  Uiso   1.00
H647   H     0.71331   0.92273   0.27532   0.00000  Uiso   1.00
H648   H     0.95586   0.82120   0.10243   0.00000  Uiso   1.00
H649   H     0.71081   0.84541   0.39755   0.00000  Uiso   1.00
H650   H     0.68624   0.85966   0.48002   0.00000  Uiso   1.00
H651   H     0.98039   0.80666   0.02001   0.00000  Uiso   1.00
H652   H     0.76630   0.85272   0.08623   0.00000  Uiso   1.00
H653   H     0.90023   0.81330   0.41385   0.00000  Uiso   1.00
H654   H     0.88568   0.96147   0.28369   0.00000  Uiso   1.00
N655   N     0.71426   0.83334   0.25001   0.00000  Uiso   1.00
N656   N     0.95241   0.83332   0.24999   0.00000  Uiso   1.00
O657   O     0.79512   0.89442   0.25001   0.00000  Uiso   1.00
O658   O     0.87154   0.77225   0.25000   0.00000  Uiso   1.00
O659   O     0.87157   0.89441   0.25000   0.00000  Uiso   1.00
O660   O     0.79510   0.77226   0.25000   0.00000  Uiso   1.00
O661   O     0.77328   0.83334   0.31613   0.00000  Uiso   1.00
O662   O     0.89339   0.83333   0.18388   0.00000  Uiso   1.00
O663   O     0.84972   0.83333   0.31612   0.00000  Uiso   1.00
O664   O     0.81695   0.83334   0.18388   0.00000  Uiso   1.00
Zn665  Zn    0.78229   0.83334   0.25000   0.00000  Uiso   1.00
Zn666  Zn    0.88438   0.83333   0.25000   0.00000  Uiso   1.00
C667   C     0.16630   0.24662   0.75032   0.00000  Uiso   1.00
C668   C     0.13628   0.31231   0.73191   0.00000  Uiso   1.00
C669   C     0.16739   0.04254   0.74936   0.00000  Uiso   1.00
C670   C     0.16594   0.29080   0.75064   0.00000  Uiso   1.00
C671   C     0.31921   0.13610   0.72685   0.00000  Uiso   1.00
C672   C     0.01412   0.19723   0.77315   0.00000  Uiso   1.00
C673   C     0.03338   0.13619   0.72752   0.00000  Uiso   1.00
C674   C     0.29994   0.19713   0.77250   0.00000  Uiso   1.00
C675   C     0.13706   0.16985   0.83735   0.00000  Uiso   1.00
C676   C     0.19627   0.16345   0.66266   0.00000  Uiso   1.00
C677   C     0.12038   0.17753   0.88676   0.00000  Uiso   1.00
C678   C     0.16704   0.08671   0.74968   0.00000  Uiso   1.00
C679   C     0.21294   0.15562   0.61327   0.00000  Uiso   1.00
C680   C     0.05707   0.18646   0.96043   0.00000  Uiso   1.00
C681   C     0.27622   0.14652   0.53961   0.00000  Uiso   1.00
C682   C     0.07123   0.17998   0.91330   0.00000  Uiso   1.00
C683   C     0.26208   0.15317   0.58671   0.00000  Uiso   1.00
C684   C     0.15450   0.18417   0.90788   0.00000  Uiso   1.00
C685   C     0.17882   0.14881   0.59221   0.00000  Uiso   1.00
C686   C     0.14058   0.17719   0.95493   0.00000  Uiso   1.00
C687   C     0.19268   0.15564   0.54513   0.00000  Uiso   1.00
C688   C     0.09124   0.18277   0.98181   0.00000  Uiso   1.00
C689   C     0.11130   0.17994   0.54991   0.00000  Uiso   1.00
C690   C     0.24202   0.15007   0.51825   0.00000  Uiso   1.00
C691   C     0.17423   0.16617   0.97592   0.00000  Uiso   1.00
C692   C     0.15900   0.16658   0.52416   0.00000  Uiso   1.00
C693   C     0.13499   0.12253   0.61581   0.00000  Uiso   1.00
C694   C     0.19840   0.21039   0.88439   0.00000  Uiso   1.00
C695   C     0.30682   0.10144   0.70067   0.00000  Uiso   1.00
C696   C     0.02651   0.23189   0.79934   0.00000  Uiso   1.00
C697   C     0.22192   0.15277   0.95016   0.00000  Uiso   1.00
C698   C     0.07730   0.18585   0.52921   0.00000  Uiso   1.00
C699   C     0.25593   0.14690   0.97085   0.00000  Uiso   1.00
C700   C     0.19630   0.31157   0.76876   0.00000  Uiso   1.00
C701   C     0.13703   0.02176   0.73123   0.00000  Uiso   1.00
C702   C     0.19706   0.02102   0.76808   0.00000  Uiso   1.00
H703   H     0.04028   0.19333   0.55024   0.00000  Uiso   1.00
H704   H     0.11433   0.03853   0.71631   0.00000  Uiso   1.00
H705   H     0.22000   0.03720   0.78277   0.00000  Uiso   1.00
H706   H     0.11333   0.29613   0.71722   0.00000  Uiso   1.00
H707   H     0.05896   0.11162   0.71024   0.00000  Uiso   1.00
H708   H     0.27435   0.22168   0.78982   0.00000  Uiso   1.00
H709   H     0.10441   0.14201   0.63806   0.00000  Uiso   1.00
H710   H     0.12324   0.10562   0.59053   0.00000  Uiso   1.00
H711   H     0.14388   0.09823   0.63695   0.00000  Uiso   1.00
H712   H     0.21017   0.22717   0.90973   0.00000  Uiso   1.00
H713   H     0.22896   0.19089   0.86209   0.00000  Uiso   1.00
H714   H     0.29295   0.13942   0.94981   0.00000  Uiso   1.00
H715   H     0.18960   0.23479   0.86330   0.00000  Uiso   1.00
H716   H     0.00646   0.08595   0.67628   0.00000  Uiso   1.00
H717   H     0.28669   0.07727   0.72469   0.00000  Uiso   1.00
H718   H     0.28610   0.11339   0.68005   0.00000  Uiso   1.00
H719   H     0.32687   0.24739   0.82372   0.00000  Uiso   1.00
H720   H     0.04723   0.21994   0.81996   0.00000  Uiso   1.00
H721   H     0.04665   0.25606   0.77532   0.00000  Uiso   1.00
H722   H     0.28919   0.15453   0.60243   0.00000  Uiso   1.00
H723   H     0.04414   0.17875   0.89755   0.00000  Uiso   1.00
H724   H     0.01957   0.19299   0.98002   0.00000  Uiso   1.00
H725   H     0.31372   0.14000   0.52001   0.00000  Uiso   1.00
H726   H     0.09963   0.18606   0.58623   0.00000  Uiso   1.00
H727   H     0.23356   0.14664   0.91385   0.00000  Uiso   1.00
H728   H     0.21901   0.29480   0.78369   0.00000  Uiso   1.00
N729   N     0.04759   0.16668   0.75001   0.00000  Uiso   1.00
N730   N     0.28574   0.16666   0.74999   0.00000  Uiso   1.00
O731   O     0.12846   0.22775   0.75001   0.00000  Uiso   1.00
O732   O     0.20488   0.10558   0.75000   0.00000  Uiso   1.00
O733   O     0.20490   0.22774   0.75000   0.00000  Uiso   1.00
O734   O     0.12843   0.10559   0.75000   0.00000  Uiso   1.00
O735   O     0.10661   0.16667   0.81613   0.00000  Uiso   1.00
O736   O     0.22672   0.16666   0.68388   0.00000  Uiso   1.00
O737   O     0.18305   0.16666   0.81612   0.00000  Uiso   1.00
O738   O     0.15028   0.16667   0.68388   0.00000  Uiso   1.00
Zn739  Zn    0.11562   0.16667   0.75000   0.00000  Uiso   1.00
Zn740  Zn    0.21771   0.16666   0.75000   0.00000  Uiso   1.00
C741   C     0.49963   0.24662   0.75032   0.00000  Uiso   1.00
C742   C     0.46961   0.31231   0.73191   0.00000  Uiso   1.00
C743   C     0.50073   0.04254   0.74936   0.00000  Uiso   1.00
C744   C     0.49927   0.29080   0.75064   0.00000  Uiso   1.00
C745   C     0.65255   0.13610   0.72685   0.00000  Uiso   1.00
C746   C     0.34745   0.19723   0.77315   0.00000  Uiso   1.00
C747   C     0.36671   0.13619   0.72752   0.00000  Uiso   1.00
C748   C     0.63328   0.19713   0.77250   0.00000  Uiso   1.00
C749   C     0.47040   0.16985   0.83735   0.00000  Uiso   1.00
C750   C     0.52960   0.16345   0.66266   0.00000  Uiso   1.00
C751   C     0.45372   0.17753   0.88676   0.00000  Uiso   1.00
C752   C     0.50037   0.08671   0.74968   0.00000  Uiso   1.00
C753   C     0.54627   0.15562   0.61327   0.00000  Uiso   1.00
C754   C     0.39040   0.18646   0.96043   0.00000  Uiso   1.00
C755   C     0.60955   0.14652   0.53961   0.00000  Uiso   1.00
C756   C     0.40457   0.17998   0.91330   0.00000  Uiso   1.00
C757   C     0.59542   0.15317   0.58671   0.00000  Uiso   1.00
C758   C     0.48783   0.18417   0.90788   0.00000  Uiso   1.00
C759   C     0.51215   0.14881   0.59221   0.00000  Uiso   1.00
C760   C     0.47392   0.17719   0.95493   0.00000  Uiso   1.00
C761   C     0.52601   0.15564   0.54513   0.00000  Uiso   1.00
C762   C     0.42457   0.18277   0.98181   0.00000  Uiso   1.00
C763   C     0.44463   0.17994   0.54991   0.00000  Uiso   1.00
C764   C     0.57536   0.15007   0.51825   0.00000  Uiso   1.00
C765   C     0.50757   0.16617   0.97592   0.00000  Uiso   1.00
C766   C     0.49233   0.16658   0.52416   0.00000  Uiso   1.00
C767   C     0.46833   0.12253   0.61581   0.00000  Uiso   1.00
C768   C     0.53174   0.21039   0.88439   0.00000  Uiso   1.00
C769   C     0.64015   0.10144   0.70067   0.00000  Uiso   1.00
C770   C     0.35984   0.23189   0.79934   0.00000  Uiso   1.00
C771   C     0.55525   0.15277   0.95016   0.00000  Uiso   1.00
C772   C     0.41064   0.18585   0.52921   0.00000  Uiso   1.00
C773   C     0.58926   0.14690   0.97085   0.00000  Uiso   1.00
C774   C     0.52964   0.31157   0.76876   0.00000  Uiso   1.00
C775   C     0.47037   0.02176   0.73123   0.00000  Uiso   1.00
C776   C     0.53039   0.02102   0.76808   0.00000  Uiso   1.00
H777   H     0.37362   0.19333   0.55024   0.00000  Uiso   1.00
H778   H     0.44766   0.03853   0.71631   0.00000  Uiso   1.00
H779   H     0.55334   0.03720   0.78277   0.00000  Uiso   1.00
H780   H     0.44667   0.29613   0.71722   0.00000  Uiso   1.00
H781   H     0.39229   0.11162   0.71024   0.00000  Uiso   1.00
H782   H     0.60768   0.22168   0.78982   0.00000  Uiso   1.00
H783   H     0.43774   0.14201   0.63806   0.00000  Uiso   1.00
H784   H     0.45657   0.10562   0.59053   0.00000  Uiso   1.00
H785   H     0.47721   0.09823   0.63695   0.00000  Uiso   1.00
H786   H     0.54351   0.22717   0.90973   0.00000  Uiso   1.00
H787   H     0.56229   0.19089   0.86209   0.00000  Uiso   1.00
H788   H     0.62628   0.13942   0.94981   0.00000  Uiso   1.00
H789   H     0.52294   0.23479   0.86330   0.00000  Uiso   1.00
H790   H     0.33980   0.08595   0.67628   0.00000  Uiso   1.00
H791   H     0.62002   0.07727   0.72469   0.00000  Uiso   1.00
H792   H     0.61943   0.11339   0.68005   0.00000  Uiso   1.00
H793   H     0.66020   0.24739   0.82372   0.00000  Uiso   1.00
H794   H     0.38056   0.21994   0.81996   0.00000  Uiso   1.00
H795   H     0.37998   0.25606   0.77532   0.00000  Uiso   1.00
H796   H     0.62252   0.15453   0.60243   0.00000  Uiso   1.00
H797   H     0.37748   0.17875   0.89755   0.00000  Uiso   1.00
H798   H     0.35290   0.19299   0.98002   0.00000  Uiso   1.00
H799   H     0.64705   0.14000   0.52001   0.00000  Uiso   1.00
H800   H     0.43296   0.18606   0.58623   0.00000  Uiso   1.00
H801   H     0.56690   0.14664   0.91385   0.00000  Uiso   1.00
H802   H     0.55234   0.29480   0.78369   0.00000  Uiso   1.00
N803   N     0.38093   0.16668   0.75001   0.00000  Uiso   1.00
N804   N     0.61907   0.16666   0.74999   0.00000  Uiso   1.00
O805   O     0.46179   0.22775   0.75001   0.00000  Uiso   1.00
O806   O     0.53821   0.10558   0.75000   0.00000  Uiso   1.00
O807   O     0.53823   0.22774   0.75000   0.00000  Uiso   1.00
O808   O     0.46177   0.10559   0.75000   0.00000  Uiso   1.00
O809   O     0.43994   0.16667   0.81613   0.00000  Uiso   1.00
O810   O     0.56006   0.16666   0.68388   0.00000  Uiso   1.00
O811   O     0.51639   0.16666   0.81612   0.00000  Uiso   1.00
O812   O     0.48361   0.16667   0.68388   0.00000  Uiso   1.00
Zn813  Zn    0.44896   0.16667   0.75000   0.00000  Uiso   1.00
Zn814  Zn    0.55104   0.16666   0.75000   0.00000  Uiso   1.00
C815   C     0.83296   0.24662   0.75032   0.00000  Uiso   1.00
C816   C     0.80294   0.31231   0.73191   0.00000  Uiso   1.00
C817   C     0.83406   0.04254   0.74936   0.00000  Uiso   1.00
C818   C     0.83261   0.29080   0.75064   0.00000  Uiso   1.00
C819   C     0.98588   0.13610   0.72685   0.00000  Uiso   1.00
C820   C     0.68078   0.19723   0.77315   0.00000  Uiso   1.00
C821   C     0.70005   0.13619   0.72752   0.00000  Uiso   1.00
C822   C     0.96661   0.19713   0.77250   0.00000  Uiso   1.00
C823   C     0.80373   0.16985   0.83735   0.00000  Uiso   1.00
C824   C     0.86294   0.16345   0.66266   0.00000  Uiso   1.00
C825   C     0.78705   0.17753   0.88676   0.00000  Uiso   1.00
C826   C     0.83370   0.08671   0.74968   0.00000  Uiso   1.00
C827   C     0.87961   0.15562   0.61327   0.00000  Uiso   1.00
C828   C     0.72373   0.18646   0.96043   0.00000  Uiso   1.00
C829   C     0.94289   0.14652   0.53961   0.00000  Uiso   1.00
C830   C     0.73790   0.17998   0.91330   0.00000  Uiso   1.00
C831   C     0.92875   0.15317   0.58671   0.00000  Uiso   1.00
C832   C     0.82116   0.18417   0.90788   0.00000  Uiso   1.00
C833   C     0.84548   0.14881   0.59221   0.00000  Uiso   1.00
C834   C     0.80725   0.17719   0.95493   0.00000  Uiso   1.00
C835   C     0.85935   0.15564   0.54513   0.00000  Uiso   1.00
C836   C     0.75791   0.18277   0.98181   0.00000  Uiso   1.00
C837   C     0.77796   0.17994   0.54991   0.00000  Uiso   1.00
C838   C     0.90869   0.15007   0.51825   0.00000  Uiso   1.00
C839   C     0.84090   0.16617   0.97592   0.00000  Uiso   1.00
C840   C     0.82567   0.16658   0.52416   0.00000  Uiso   1.00
C841   C     0.80166   0.12253   0.61581   0.00000  Uiso   1.00
C842   C     0.86507   0.21039   0.88439   0.00000  Uiso   1.00
C843   C     0.97349   0.10144   0.70067   0.00000  Uiso   1.00
C844   C     0.69318   0.23189   0.79934   0.00000  Uiso   1.00
C845   C     0.88859   0.15277   0.95016   0.00000  Uiso   1.00
C846   C     0.74397   0.18585   0.52921   0.00000  Uiso   1.00
C847   C     0.92260   0.14690   0.97085   0.00000  Uiso   1.00
C848   C     0.86297   0.31157   0.76876   0.00000  Uiso   1.00
C849   C     0.80370   0.02176   0.73123   0.00000  Uiso   1.00
C850   C     0.86372   0.02102   0.76808   0.00000  Uiso   1.00
H851   H     0.70695   0.19333   0.55024   0.00000  Uiso   1.00
H852   H     0.78099   0.03853   0.71631   0.00000  Uiso   1.00
H853   H     0.88667   0.03720   0.78277   0.00000  Uiso   1.00
H854   H     0.78000   0.29613   0.71722   0.00000  Uiso   1.00
H855   H     0.72563   0.11162   0.71024   0.00000  Uiso   1.00
H856   H     0.94101   0.22168   0.78982   0.00000  Uiso   1.00
H857   H     0.77107   0.14201   0.63806   0.00000  Uiso   1.00
H858   H     0.78991   0.10562   0.59053   0.00000  Uiso   1.00
H859   H     0.81054   0.09823   0.63695   0.00000  Uiso   1.00
H860   H     0.87684   0.22717   0.90973   0.00000  Uiso   1.00
H861   H     0.89562   0.19089   0.86209   0.00000  Uiso   1.00
H862   H     0.95961   0.13942   0.94981   0.00000  Uiso   1.00
H863   H     0.85627   0.23479   0.86330   0.00000  Uiso   1.00
H864   H     0.67313   0.08595   0.67628   0.00000  Uiso   1.00
H865   H     0.95336   0.07727   0.72469   0.00000  Uiso   1.00
H866   H     0.95277   0.11339   0.68005   0.00000  Uiso   1.00
H867   H     0.99354   0.24739   0.82372   0.00000  Uiso   1.00
H868   H     0.71389   0.21994   0.81996   0.00000  Uiso   1.00
H869   H     0.71331   0.25606   0.77532   0.00000  Uiso   1.00
H870   H     0.95586   0.15453   0.60243   0.00000  Uiso   1.00
H871   H     0.71081   0.17875   0.89755   0.00000  Uiso   1.00
H872   H     0.68624   0.19299   0.98002   0.00000  Uiso   1.00
H873   H     0.98039   0.14000   0.52001   0.00000  Uiso   1.00
H874   H     0.76630   0.18606   0.58623   0.00000  Uiso   1.00
H875   H     0.90023   0.14664   0.91385   0.00000  Uiso   1.00
H876   H     0.88568   0.29480   0.78369   0.00000  Uiso   1.00
N877   N     0.71426   0.16668   0.75001   0.00000  Uiso   1.00
N878   N     0.95241   0.16666   0.74999   0.00000  Uiso   1.00
O879   O     0.79512   0.22775   0.75001   0.00000  Uiso   1.00
O880   O     0.87154   0.10558   0.75000   0.00000  Uiso   1.00
O881   O     0.87157   0.22774   0.75000   0.00000  Uiso   1.00
O882   O     0.79510   0.10559   0.75000   0.00000  Uiso   1.00
O883   O     0.77328   0.16667   0.81613   0.00000  Uiso   1.00
O884   O     0.89339   0.16666   0.68388   0.00000  Uiso   1.00
O885   O     0.84972   0.16666   0.81612   0.00000  Uiso   1.00
O886   O     0.81695   0.16667   0.68388   0.00000  Uiso   1.00
Zn887  Zn    0.78229   0.16667   0.75000   0.00000  Uiso   1.00
Zn888  Zn    0.88438   0.16666   0.75000   0.00000  Uiso   1.00
C889   C     0.16630   0.57996   0.75032   0.00000  Uiso   1.00
C890   C     0.13628   0.64565   0.73191   0.00000  Uiso   1.00
C891   C     0.16739   0.37587   0.74936   0.00000  Uiso   1.00
C892   C     0.16594   0.62413   0.75064   0.00000  Uiso   1.00
C893   C     0.31921   0.46944   0.72685   0.00000  Uiso   1.00
C894   C     0.01412   0.53056   0.77315   0.00000  Uiso   1.00
C895   C     0.03338   0.46952   0.72752   0.00000  Uiso   1.00
C896   C     0.29994   0.53046   0.77250   0.00000  Uiso   1.00
C897   C     0.13706   0.50319   0.83735   0.00000  Uiso   1.00
C898   C     0.19627   0.49678   0.66266   0.00000  Uiso   1.00
C899   C     0.12038   0.51087   0.88676   0.00000  Uiso   1.00
C900   C     0.16704   0.42004   0.74968   0.00000  Uiso   1.00
C901   C     0.21294   0.48896   0.61327   0.00000  Uiso   1.00
C902   C     0.05707   0.51980   0.96043   0.00000  Uiso   1.00
C903   C     0.27622   0.47985   0.53961   0.00000  Uiso   1.00
C904   C     0.07123   0.51331   0.91330   0.00000  Uiso   1.00
C905   C     0.26208   0.48650   0.58671   0.00000  Uiso   1.00
C906   C     0.15450   0.51750   0.90788   0.00000  Uiso   1.00
C907   C     0.17882   0.48214   0.59221   0.00000  Uiso   1.00
C908   C     0.14058   0.51052   0.95493   0.00000  Uiso   1.00
C909   C     0.19268   0.48897   0.54513   0.00000  Uiso   1.00
C910   C     0.09124   0.51611   0.98181   0.00000  Uiso   1.00
C911   C     0.11130   0.51328   0.54991   0.00000  Uiso   1.00
C912   C     0.24202   0.48340   0.51825   0.00000  Uiso   1.00
C913   C     0.17423   0.49950   0.97592   0.00000  Uiso   1.00
C914   C     0.15900   0.49991   0.52416   0.00000  Uiso   1.00
C915   C     0.13499   0.45586   0.61581   0.00000  Uiso   1.00
C916   C     0.19840   0.54373   0.88439   0.00000  Uiso   1.00
C917   C     0.30682   0.43477   0.70067   0.00000  Uiso   1.00
C918   C     0.02651   0.56522   0.79934   0.00000  Uiso   1.00
C919   C     0.22192   0.48610   0.95016   0.00000  Uiso   1.00
C920   C     0.07730   0.51918   0.52921   0.00000  Uiso   1.00
C921   C     0.25593   0.48023   0.97085   0.00000  Uiso   1.00
C922   C     0.19630   0.64490   0.76876   0.00000  Uiso   1.00
C923   C     0.13703   0.35510   0.73123   0.00000  Uiso   1.00
C924   C     0.19706   0.35435   0.76808   0.00000  Uiso   1.00
H925   H     0.04028   0.52666   0.55024   0.00000  Uiso   1.00
H926   H     0.11433   0.37187   0.71631   0.00000  Uiso   1.00
H927   H     0.22000   0.37053   0.78277   0.00000  Uiso   1.00
H928   H     0.11333   0.62947   0.71722   0.00000  Uiso   1.00
H929   H     0.05896   0.44495   0.71024   0.00000  Uiso   1.00
H930   H     0.27435   0.55502   0.78982   0.00000  Uiso   1.00
H931   H     0.10441   0.47535   0.63806   0.00000  Uiso   1.00
H932   H     0.12324   0.43896   0.59053   0.00000  Uiso   1.00
H933   H     0.14388   0.43157   0.63695   0.00000  Uiso   1.00
H934   H     0.21017   0.56051   0.90973   0.00000  Uiso   1.00
H935   H     0.22896   0.52423   0.86209   0.00000  Uiso   1.00
H936   H     0.29295   0.47275   0.94981   0.00000  Uiso   1.00
H937   H     0.18960   0.56812   0.86330   0.00000  Uiso   1.00
H938   H     0.00646   0.41928   0.67628   0.00000  Uiso   1.00
H939   H     0.28669   0.41060   0.72469   0.00000  Uiso   1.00
H940   H     0.28610   0.44672   0.68005   0.00000  Uiso   1.00
H941   H     0.32687   0.58072   0.82372   0.00000  Uiso   1.00
H942   H     0.04723   0.55327   0.81996   0.00000  Uiso   1.00
H943   H     0.04665   0.58940   0.77532   0.00000  Uiso   1.00
H944   H     0.28919   0.48786   0.60243   0.00000  Uiso   1.00
H945   H     0.04414   0.51208   0.89755   0.00000  Uiso   1.00
H946   H     0.01957   0.52633   0.98002   0.00000  Uiso   1.00
H947   H     0.31372   0.47333   0.52001   0.00000  Uiso   1.00
H948   H     0.09963   0.51939   0.58623   0.00000  Uiso   1.00
H949   H     0.23356   0.47997   0.91385   0.00000  Uiso   1.00
H950   H     0.21901   0.62813   0.78369   0.00000  Uiso   1.00
N951   N     0.04759   0.50001   0.75001   0.00000  Uiso   1.00
N952   N     0.28574   0.49999   0.74999   0.00000  Uiso   1.00
O953   O     0.12846   0.56108   0.75001   0.00000  Uiso   1.00
O954   O     0.20488   0.43892   0.75000   0.00000  Uiso   1.00
O955   O     0.20490   0.56107   0.75000   0.00000  Uiso   1.00
O956   O     0.12843   0.43893   0.75000   0.00000  Uiso   1.00
O957   O     0.10661   0.50001   0.81613   0.00000  Uiso   1.00
O958   O     0.22672   0.49999   0.68388   0.00000  Uiso   1.00
O959   O     0.18305   0.50000   0.81612   0.00000  Uiso   1.00
O960   O     0.15028   0.50000   0.68388   0.00000  Uiso   1.00
Zn961  Zn    0.11562   0.50001   0.75000   0.00000  Uiso   1.00
Zn962  Zn    0.21771   0.49999   0.75000   0.00000  Uiso   1.00
C963   C     0.49963   0.57996   0.75032   0.00000  Uiso   1.00
C964   C     0.46961   0.64565   0.73191   0.00000  Uiso   1.00
C965   C     0.50073   0.37587   0.74936   0.00000  Uiso   1.00
C966   C     0.49927   0.62413   0.75064   0.00000  Uiso   1.00
C967   C     0.65255   0.46944   0.72685   0.00000  Uiso   1.00
C968   C     0.34745   0.53056   0.77315   0.00000  Uiso   1.00
C969   C     0.36671   0.46952   0.72752   0.00000  Uiso   1.00
C970   C     0.63328   0.53046   0.77250   0.00000  Uiso   1.00
C971   C     0.47040   0.50319   0.83735   0.00000  Uiso   1.00
C972   C     0.52960   0.49678   0.66266   0.00000  Uiso   1.00
C973   C     0.45372   0.51087   0.88676   0.00000  Uiso   1.00
C974   C     0.50037   0.42004   0.74968   0.00000  Uiso   1.00
C975   C     0.54627   0.48896   0.61327   0.00000  Uiso   1.00
C976   C     0.39040   0.51980   0.96043   0.00000  Uiso   1.00
C977   C     0.60955   0.47985   0.53961   0.00000  Uiso   1.00
C978   C     0.40457   0.51331   0.91330   0.00000  Uiso   1.00
C979   C     0.59542   0.48650   0.58671   0.00000  Uiso   1.00
C980   C     0.48783   0.51750   0.90788   0.00000  Uiso   1.00
C981   C     0.51215   0.48214   0.59221   0.00000  Uiso   1.00
C982   C     0.47392   0.51052   0.95493   0.00000  Uiso   1.00
C983   C     0.52601   0.48897   0.54513   0.00000  Uiso   1.00
C984   C     0.42457   0.51611   0.98181   0.00000  Uiso   1.00
C985   C     0.44463   0.51328   0.54991   0.00000  Uiso   1.00
C986   C     0.57536   0.48340   0.51825   0.00000  Uiso   1.00
C987   C     0.50757   0.49950   0.97592   0.00000  Uiso   1.00
C988   C     0.49233   0.49991   0.52416   0.00000  Uiso   1.00
C989   C     0.46833   0.45586   0.61581   0.00000  Uiso   1.00
C990   C     0.53174   0.54373   0.88439   0.00000  Uiso   1.00
C991   C     0.64015   0.43477   0.70067   0.00000  Uiso   1.00
C992   C     0.35984   0.56522   0.79934   0.00000  Uiso   1.00
C993   C     0.55525   0.48610   0.95016   0.00000  Uiso   1.00
C994   C     0.41064   0.51918   0.52921   0.00000  Uiso   1.00
C995   C     0.58926   0.48023   0.97085   0.00000  Uiso   1.00
C996   C     0.52964   0.64490   0.76876   0.00000  Uiso   1.00
C997   C     0.47037   0.35510   0.73123   0.00000  Uiso   1.00
C998   C     0.53039   0.35435   0.76808   0.00000  Uiso   1.00
H999   H     0.37362   0.52666   0.55024   0.00000  Uiso   1.00
H1000  H     0.44766   0.37187   0.71631   0.00000  Uiso   1.00
H1001  H     0.55334   0.37053   0.78277   0.00000  Uiso   1.00
H1002  H     0.44667   0.62947   0.71722   0.00000  Uiso   1.00
H1003  H     0.39229   0.44495   0.71024   0.00000  Uiso   1.00
H1004  H     0.60768   0.55502   0.78982   0.00000  Uiso   1.00
H1005  H     0.43774   0.47535   0.63806   0.00000  Uiso   1.00
H1006  H     0.45657   0.43896   0.59053   0.00000  Uiso   1.00
H1007  H     0.47721   0.43157   0.63695   0.00000  Uiso   1.00
H1008  H     0.54351   0.56051   0.90973   0.00000  Uiso   1.00
H1009  H     0.56229   0.52423   0.86209   0.00000  Uiso   1.00
H1010  H     0.62628   0.47275   0.94981   0.00000  Uiso   1.00
H1011  H     0.52294   0.56812   0.86330   0.00000  Uiso   1.00
H1012  H     0.33980   0.41928   0.67628   0.00000  Uiso   1.00
H1013  H     0.62002   0.41060   0.72469   0.00000  Uiso   1.00
H1014  H     0.61943   0.44672   0.68005   0.00000  Uiso   1.00
H1015  H     0.66020   0.58072   0.82372   0.00000  Uiso   1.00
H1016  H     0.38056   0.55327   0.81996   0.00000  Uiso   1.00
H1017  H     0.37998   0.58940   0.77532   0.00000  Uiso   1.00
H1018  H     0.62252   0.48786   0.60243   0.00000  Uiso   1.00
H1019  H     0.37748   0.51208   0.89755   0.00000  Uiso   1.00
H1020  H     0.35290   0.52633   0.98002   0.00000  Uiso   1.00
H1021  H     0.64705   0.47333   0.52001   0.00000  Uiso   1.00
H1022  H     0.43296   0.51939   0.58623   0.00000  Uiso   1.00
H1023  H     0.56690   0.47997   0.91385   0.00000  Uiso   1.00
H1024  H     0.55234   0.62813   0.78369   0.00000  Uiso   1.00
N1025  N     0.38093   0.50001   0.75001   0.00000  Uiso   1.00
N1026  N     0.61907   0.49999   0.74999   0.00000  Uiso   1.00
O1027  O     0.46179   0.56108   0.75001   0.00000  Uiso   1.00
O1028  O     0.53821   0.43892   0.75000   0.00000  Uiso   1.00
O1029  O     0.53823   0.56107   0.75000   0.00000  Uiso   1.00
O1030  O     0.46177   0.43893   0.75000   0.00000  Uiso   1.00
O1031  O     0.43994   0.50001   0.81613   0.00000  Uiso   1.00
O1032  O     0.56006   0.49999   0.68388   0.00000  Uiso   1.00
O1033  O     0.51639   0.50000   0.81612   0.00000  Uiso   1.00
O1034  O     0.48361   0.50000   0.68388   0.00000  Uiso   1.00
Zn1035 Zn    0.44896   0.50001   0.75000   0.00000  Uiso   1.00
Zn1036 Zn    0.55104   0.49999   0.75000   0.00000  Uiso   1.00
C1037  C     0.83296   0.57996   0.75032   0.00000  Uiso   1.00
C1038  C     0.80294   0.64565   0.73191   0.00000  Uiso   1.00
C1039  C     0.83406   0.37587   0.74936   0.00000  Uiso   1.00
C1040  C     0.83261   0.62413   0.75064   0.00000  Uiso   1.00
C1041  C     0.98588   0.46944   0.72685   0.00000  Uiso   1.00
C1042  C     0.68078   0.53056   0.77315   0.00000  Uiso   1.00
C1043  C     0.70005   0.46952   0.72752   0.00000  Uiso   1.00
C1044  C     0.96661   0.53046   0.77250   0.00000  Uiso   1.00
C1045  C     0.80373   0.50319   0.83735   0.00000  Uiso   1.00
C1046  C     0.86294   0.49678   0.66266   0.00000  Uiso   1.00
C1047  C     0.78705   0.51087   0.88676   0.00000  Uiso   1.00
C1048  C     0.83370   0.42004   0.74968   0.00000  Uiso   1.00
C1049  C     0.87961   0.48896   0.61327   0.00000  Uiso   1.00
C1050  C     0.72373   0.51980   0.96043   0.00000  Uiso   1.00
C1051  C     0.94289   0.47985   0.53961   0.00000  Uiso   1.00
C1052  C     0.73790   0.51331   0.91330   0.00000  Uiso   1.00
C1053  C     0.92875   0.48650   0.58671   0.00000  Uiso   1.00
C1054  C     0.82116   0.51750   0.90788   0.00000  Uiso   1.00
C1055  C     0.84548   0.48214   0.59221   0.00000  Uiso   1.00
C1056  C     0.80725   0.51052   0.95493   0.00000  Uiso   1.00
C1057  C     0.85935   0.48897   0.54513   0.00000  Uiso   1.00
C1058  C     0.75791   0.51611   0.98181   0.00000  Uiso   1.00
C1059  C     0.77796   0.51328   0.54991   0.00000  Uiso   1.00
C1060  C     0.90869   0.48340   0.51825   0.00000  Uiso   1.00
C1061  C     0.84090   0.49950   0.97592   0.00000  Uiso   1.00
C1062  C     0.82567   0.49991   0.52416   0.00000  Uiso   1.00
C1063  C     0.80166   0.45586   0.61581   0.00000  Uiso   1.00
C1064  C     0.86507   0.54373   0.88439   0.00000  Uiso   1.00
C1065  C     0.97349   0.43477   0.70067   0.00000  Uiso   1.00
C1066  C     0.69318   0.56522   0.79934   0.00000  Uiso   1.00
C1067  C     0.88859   0.48610   0.95016   0.00000  Uiso   1.00
C1068  C     0.74397   0.51918   0.52921   0.00000  Uiso   1.00
C1069  C     0.92260   0.48023   0.97085   0.00000  Uiso   1.00
C1070  C     0.86297   0.64490   0.76876   0.00000  Uiso   1.00
C1071  C     0.80370   0.35510   0.73123   0.00000  Uiso   1.00
C1072  C     0.86372   0.35435   0.76808   0.00000  Uiso   1.00
H1073  H     0.70695   0.52666   0.55024   0.00000  Uiso   1.00
H1074  H     0.78099   0.37187   0.71631   0.00000  Uiso   1.00
H1075  H     0.88667   0.37053   0.78277   0.00000  Uiso   1.00
H1076  H     0.78000   0.62947   0.71722   0.00000  Uiso   1.00
H1077  H     0.72563   0.44495   0.71024   0.00000  Uiso   1.00
H1078  H     0.94101   0.55502   0.78982   0.00000  Uiso   1.00
H1079  H     0.77107   0.47535   0.63806   0.00000  Uiso   1.00
H1080  H     0.78991   0.43896   0.59053   0.00000  Uiso   1.00
H1081  H     0.81054   0.43157   0.63695   0.00000  Uiso   1.00
H1082  H     0.87684   0.56051   0.90973   0.00000  Uiso   1.00
H1083  H     0.89562   0.52423   0.86209   0.00000  Uiso   1.00
H1084  H     0.95961   0.47275   0.94981   0.00000  Uiso   1.00
H1085  H     0.85627   0.56812   0.86330   0.00000  Uiso   1.00
H1086  H     0.67313   0.41928   0.67628   0.00000  Uiso   1.00
H1087  H     0.95336   0.41060   0.72469   0.00000  Uiso   1.00
H1088  H     0.95277   0.44672   0.68005   0.00000  Uiso   1.00
H1089  H     0.99354   0.58072   0.82372   0.00000  Uiso   1.00
H1090  H     0.71389   0.55327   0.81996   0.00000  Uiso   1.00
H1091  H     0.71331   0.58940   0.77532   0.00000  Uiso   1.00
H1092  H     0.95586   0.48786   0.60243   0.00000  Uiso   1.00
H1093  H     0.71081   0.51208   0.89755   0.00000  Uiso   1.00
H1094  H     0.68624   0.52633   0.98002   0.00000  Uiso   1.00
H1095  H     0.98039   0.47333   0.52001   0.00000  Uiso   1.00
H1096  H     0.76630   0.51939   0.58623   0.00000  Uiso   1.00
H1097  H     0.90023   0.47997   0.91385   0.00000  Uiso   1.00
H1098  H     0.88568   0.62813   0.78369   0.00000  Uiso   1.00
N1099  N     0.71426   0.50001   0.75001   0.00000  Uiso   1.00
N1100  N     0.95241   0.49999   0.74999   0.00000  Uiso   1.00
O1101  O     0.79512   0.56108   0.75001   0.00000  Uiso   1.00
O1102  O     0.87154   0.43892   0.75000   0.00000  Uiso   1.00
O1103  O     0.87157   0.56107   0.75000   0.00000  Uiso   1.00
O1104  O     0.79510   0.43893   0.75000   0.00000  Uiso   1.00
O1105  O     0.77328   0.50001   0.81613   0.00000  Uiso   1.00
O1106  O     0.89339   0.49999   0.68388   0.00000  Uiso   1.00
O1107  O     0.84972   0.50000   0.81612   0.00000  Uiso   1.00
O1108  O     0.81695   0.50000   0.68388   0.00000  Uiso   1.00
Zn1109 Zn    0.78229   0.50001   0.75000   0.00000  Uiso   1.00
Zn1110 Zn    0.88438   0.49999   0.75000   0.00000  Uiso   1.00
C1111  C     0.16630   0.91329   0.75032   0.00000  Uiso   1.00
C1112  C     0.13628   0.97898   0.73191   0.00000  Uiso   1.00
C1113  C     0.16739   0.70920   0.74936   0.00000  Uiso   1.00
C1114  C     0.16594   0.95746   0.75064   0.00000  Uiso   1.00
C1115  C     0.31921   0.80277   0.72685   0.00000  Uiso   1.00
C1116  C     0.01412   0.86390   0.77315   0.00000  Uiso   1.00
C1117  C     0.03338   0.80286   0.72752   0.00000  Uiso   1.00
C1118  C     0.29994   0.86380   0.77250   0.00000  Uiso   1.00
C1119  C     0.13706   0.83652   0.83735   0.00000  Uiso   1.00
C1120  C     0.19627   0.83011   0.66266   0.00000  Uiso   1.00
C1121  C     0.12038   0.84420   0.88676   0.00000  Uiso   1.00
C1122  C     0.16704   0.75338   0.74968   0.00000  Uiso   1.00
C1123  C     0.21294   0.82229   0.61327   0.00000  Uiso   1.00
C1124  C     0.05707   0.85313   0.96043   0.00000  Uiso   1.00
C1125  C     0.27622   0.81319   0.53961   0.00000  Uiso   1.00
C1126  C     0.07123   0.84664   0.91330   0.00000  Uiso   1.00
C1127  C     0.26208   0.81984   0.58671   0.00000  Uiso   1.00
C1128  C     0.15450   0.85083   0.90788   0.00000  Uiso   1.00
C1129  C     0.17882   0.81547   0.59221   0.00000  Uiso   1.00
C1130  C     0.14058   0.84386   0.95493   0.00000  Uiso   1.00
C1131  C     0.19268   0.82231   0.54513   0.00000  Uiso   1.00
C1132  C     0.09124   0.84944   0.98181   0.00000  Uiso   1.00
C1133  C     0.11130   0.84661   0.54991   0.00000  Uiso   1.00
C1134  C     0.24202   0.81674   0.51825   0.00000  Uiso   1.00
C1135  C     0.17423   0.83283   0.97592   0.00000  Uiso   1.00
C1136  C     0.15900   0.83325   0.52416   0.00000  Uiso   1.00
C1137  C     0.13499   0.78919   0.61581   0.00000  Uiso   1.00
C1138  C     0.19840   0.87706   0.88439   0.00000  Uiso   1.00
C1139  C     0.30682   0.76811   0.70067   0.00000  Uiso   1.00
C1140  C     0.02651   0.89856   0.79934   0.00000  Uiso   1.00
C1141  C     0.22192   0.81943   0.95016   0.00000  Uiso   1.00
C1142  C     0.07730   0.85251   0.52921   0.00000  Uiso   1.00
C1143  C     0.25593   0.81356   0.97085   0.00000  Uiso   1.00
C1144  C     0.19630   0.97824   0.76876   0.00000  Uiso   1.00
C1145  C     0.13703   0.68843   0.73123   0.00000  Uiso   1.00
C1146  C     0.19706   0.68769   0.76808   0.00000  Uiso   1.00
H1147  H     0.04028   0.85999   0.55024   0.00000  Uiso   1.00
H1148  H     0.11433   0.70520   0.71631   0.00000  Uiso   1.00
H1149  H     0.22000   0.70387   0.78277   0.00000  Uiso   1.00
H1150  H     0.11333   0.96280   0.71722   0.00000  Uiso   1.00
H1151  H     0.05896   0.77828   0.71024   0.00000  Uiso   1.00
H1152  H     0.27435   0.88835   0.78982   0.00000  Uiso   1.00
H1153  H     0.10441   0.80868   0.63806   0.00000  Uiso   1.00
H1154  H     0.12324   0.77229   0.59053   0.00000  Uiso   1.00
H1155  H     0.14388   0.76490   0.63695   0.00000  Uiso   1.00
H1156  H     0.21017   0.89384   0.90973   0.00000  Uiso   1.00
H1157  H     0.22896   0.85756   0.86209   0.00000  Uiso   1.00
H1158  H     0.29295   0.80608   0.94981   0.00000  Uiso   1.00
H1159  H     0.18960   0.90145   0.86330   0.00000  Uiso   1.00
H1160  H     0.00646   0.75261   0.67628   0.00000  Uiso   1.00
H1161  H     0.28669   0.74393   0.72469   0.00000  Uiso   1.00
H1162  H     0.28610   0.78006   0.68005   0.00000  Uiso   1.00
H1163  H     0.32687   0.91406   0.82372   0.00000  Uiso   1.00
H1164  H     0.04723   0.88661   0.81996   0.00000  Uiso   1.00
H1165  H     0.04665   0.92273   0.77532   0.00000  Uiso   1.00
H1166  H     0.28919   0.82120   0.60243   0.00000  Uiso   1.00
H1167  H     0.04414   0.84541   0.89755   0.00000  Uiso   1.00
H1168  H     0.01957   0.85966   0.98002   0.00000  Uiso   1.00
H1169  H     0.31372   0.80666   0.52001   0.00000  Uiso   1.00
H1170  H     0.09963   0.85272   0.58623   0.00000  Uiso   1.00
H1171  H     0.23356   0.81330   0.91385   0.00000  Uiso   1.00
H1172  H     0.21901   0.96147   0.78369   0.00000  Uiso   1.00
N1173  N     0.04759   0.83334   0.75001   0.00000  Uiso   1.00
N1174  N     0.28574   0.83332   0.74999   0.00000  Uiso   1.00
O1175  O     0.12846   0.89442   0.75001   0.00000  Uiso   1.00
O1176  O     0.20488   0.77225   0.75000   0.00000  Uiso   1.00
O1177  O     0.20490   0.89441   0.75000   0.00000  Uiso   1.00
O1178  O     0.12843   0.77226   0.75000   0.00000  Uiso   1.00
O1179  O     0.10661   0.83334   0.81613   0.00000  Uiso   1.00
O1180  O     0.22672   0.83333   0.68388   0.00000  Uiso   1.00
O1181  O     0.18305   0.83333   0.81612   0.00000  Uiso   1.00
O1182  O     0.15028   0.83334   0.68388   0.00000  Uiso   1.00
Zn1183 Zn    0.11562   0.83334   0.75000   0.00000  Uiso   1.00
Zn1184 Zn    0.21771   0.83333   0.75000   0.00000  Uiso   1.00
C1185  C     0.49963   0.91329   0.75032   0.00000  Uiso   1.00
C1186  C     0.46961   0.97898   0.73191   0.00000  Uiso   1.00
C1187  C     0.50073   0.70920   0.74936   0.00000  Uiso   1.00
C1188  C     0.49927   0.95746   0.75064   0.00000  Uiso   1.00
C1189  C     0.65255   0.80277   0.72685   0.00000  Uiso   1.00
C1190  C     0.34745   0.86390   0.77315   0.00000  Uiso   1.00
C1191  C     0.36671   0.80286   0.72752   0.00000  Uiso   1.00
C1192  C     0.63328   0.86380   0.77250   0.00000  Uiso   1.00
C1193  C     0.47040   0.83652   0.83735   0.00000  Uiso   1.00
C1194  C     0.52960   0.83011   0.66266   0.00000  Uiso   1.00
C1195  C     0.45372   0.84420   0.88676   0.00000  Uiso   1.00
C1196  C     0.50037   0.75338   0.74968   0.00000  Uiso   1.00
C1197  C     0.54627   0.82229   0.61327   0.00000  Uiso   1.00
C1198  C     0.39040   0.85313   0.96043   0.00000  Uiso   1.00
C1199  C     0.60955   0.81319   0.53961   0.00000  Uiso   1.00
C1200  C     0.40457   0.84664   0.91330   0.00000  Uiso   1.00
C1201  C     0.59542   0.81984   0.58671   0.00000  Uiso   1.00
C1202  C     0.48783   0.85083   0.90788   0.00000  Uiso   1.00
C1203  C     0.51215   0.81547   0.59221   0.00000  Uiso   1.00
C1204  C     0.47392   0.84386   0.95493   0.00000  Uiso   1.00
C1205  C     0.52601   0.82231   0.54513   0.00000  Uiso   1.00
C1206  C     0.42457   0.84944   0.98181   0.00000  Uiso   1.00
C1207  C     0.44463   0.84661   0.54991   0.00000  Uiso   1.00
C1208  C     0.57536   0.81674   0.51825   0.00000  Uiso   1.00
C1209  C     0.50757   0.83283   0.97592   0.00000  Uiso   1.00
C1210  C     0.49233   0.83325   0.52416   0.00000  Uiso   1.00
C1211  C     0.46833   0.78919   0.61581   0.00000  Uiso   1.00
C1212  C     0.53174   0.87706   0.88439   0.00000  Uiso   1.00
C1213  C     0.64015   0.76811   0.70067   0.00000  Uiso   1.00
C1214  C     0.35984   0.89856   0.79934   0.00000  Uiso   1.00
C1215  C     0.55525   0.81943   0.95016   0.00000  Uiso   1.00
C1216  C     0.41064   0.85251   0.52921   0.00000  Uiso   1.00
C1217  C     0.58926   0.81356   0.97085   0.00000  Uiso   1.00
C1218  C     0.52964   0.97824   0.76876   0.00000  Uiso   1.00
C1219  C     0.47037   0.68843   0.73123   0.00000  Uiso   1.00
C1220  C     0.53039   0.68769   0.76808   0.00000  Uiso   1.00
H1221  H     0.37362   0.85999   0.55024   0.00000  Uiso   1.00
H1222  H     0.44766   0.70520   0.71631   0.00000  Uiso   1.00
H1223  H     0.55334   0.70387   0.78277   0.00000  Uiso   1.00
H1224  H     0.44667   0.96280   0.71722   0.00000  Uiso   1.00
H1225  H     0.39229   0.77828   0.71024   0.00000  Uiso   1.00
H1226  H     0.60768   0.88835   0.78982   0.00000  Uiso   1.00
H1227  H     0.43774   0.80868   0.63806   0.00000  Uiso   1.00
H1228  H     0.45657   0.77229   0.59053   0.00000  Uiso   1.00
H1229  H     0.47721   0.76490   0.63695   0.00000  Uiso   1.00
H1230  H     0.54351   0.89384   0.90973   0.00000  Uiso   1.00
H1231  H     0.56229   0.85756   0.86209   0.00000  Uiso   1.00
H1232  H     0.62628   0.80608   0.94981   0.00000  Uiso   1.00
H1233  H     0.52294   0.90145   0.86330   0.00000  Uiso   1.00
H1234  H     0.33980   0.75261   0.67628   0.00000  Uiso   1.00
H1235  H     0.62002   0.74393   0.72469   0.00000  Uiso   1.00
H1236  H     0.61943   0.78006   0.68005   0.00000  Uiso   1.00
H1237  H     0.66020   0.91406   0.82372   0.00000  Uiso   1.00
H1238  H     0.38056   0.88661   0.81996   0.00000  Uiso   1.00
H1239  H     0.37998   0.92273   0.77532   0.00000  Uiso   1.00
H1240  H     0.62252   0.82120   0.60243   0.00000  Uiso   1.00
H1241  H     0.37748   0.84541   0.89755   0.00000  Uiso   1.00
H1242  H     0.35290   0.85966   0.98002   0.00000  Uiso   1.00
H1243  H     0.64705   0.80666   0.52001   0.00000  Uiso   1.00
H1244  H     0.43296   0.85272   0.58623   0.00000  Uiso   1.00
H1245  H     0.56690   0.81330   0.91385   0.00000  Uiso   1.00
H1246  H     0.55234   0.96147   0.78369   0.00000  Uiso   1.00
N1247  N     0.38093   0.83334   0.75001   0.00000  Uiso   1.00
N1248  N     0.61907   0.83332   0.74999   0.00000  Uiso   1.00
O1249  O     0.46179   0.89442   0.75001   0.00000  Uiso   1.00
O1250  O     0.53821   0.77225   0.75000   0.00000  Uiso   1.00
O1251  O     0.53823   0.89441   0.75000   0.00000  Uiso   1.00
O1252  O     0.46177   0.77226   0.75000   0.00000  Uiso   1.00
O1253  O     0.43994   0.83334   0.81613   0.00000  Uiso   1.00
O1254  O     0.56006   0.83333   0.68388   0.00000  Uiso   1.00
O1255  O     0.51639   0.83333   0.81612   0.00000  Uiso   1.00
O1256  O     0.48361   0.83334   0.68388   0.00000  Uiso   1.00
Zn1257 Zn    0.44896   0.83334   0.75000   0.00000  Uiso   1.00
Zn1258 Zn    0.55104   0.83333   0.75000   0.00000  Uiso   1.00
C1259  C     0.83296   0.91329   0.75032   0.00000  Uiso   1.00
C1260  C     0.80294   0.97898   0.73191   0.00000  Uiso   1.00
C1261  C     0.83406   0.70920   0.74936   0.00000  Uiso   1.00
C1262  C     0.83261   0.95746   0.75064   0.00000  Uiso   1.00
C1263  C     0.98588   0.80277   0.72685   0.00000  Uiso   1.00
C1264  C     0.68078   0.86390   0.77315   0.00000  Uiso   1.00
C1265  C     0.70005   0.80286   0.72752   0.00000  Uiso   1.00
C1266  C     0.96661   0.86380   0.77250   0.00000  Uiso   1.00
C1267  C     0.80373   0.83652   0.83735   0.00000  Uiso   1.00
C1268  C     0.86294   0.83011   0.66266   0.00000  Uiso   1.00
C1269  C     0.78705   0.84420   0.88676   0.00000  Uiso   1.00
C1270  C     0.83370   0.75338   0.74968   0.00000  Uiso   1.00
C1271  C     0.87961   0.82229   0.61327   0.00000  Uiso   1.00
C1272  C     0.72373   0.85313   0.96043   0.00000  Uiso   1.00
C1273  C     0.94289   0.81319   0.53961   0.00000  Uiso   1.00
C1274  C     0.73790   0.84664   0.91330   0.00000  Uiso   1.00
C1275  C     0.92875   0.81984   0.58671   0.00000  Uiso   1.00
C1276  C     0.82116   0.85083   0.90788   0.00000  Uiso   1.00
C1277  C     0.84548   0.81547   0.59221   0.00000  Uiso   1.00
C1278  C     0.80725   0.84386   0.95493   0.00000  Uiso   1.00
C1279  C     0.85935   0.82231   0.54513   0.00000  Uiso   1.00
C1280  C     0.75791   0.84944   0.98181   0.00000  Uiso   1.00
C1281  C     0.77796   0.84661   0.54991   0.00000  Uiso   1.00
C1282  C     0.90869   0.81674   0.51825   0.00000  Uiso   1.00
C1283  C     0.84090   0.83283   0.97592   0.00000  Uiso   1.00
C1284  C     0.82567   0.83325   0.52416   0.00000  Uiso   1.00
C1285  C     0.80166   0.78919   0.61581   0.00000  Uiso   1.00
C1286  C     0.86507   0.87706   0.88439   0.00000  Uiso   1.00
C1287  C     0.97349   0.76811   0.70067   0.00000  Uiso   1.00
C1288  C     0.69318   0.89856   0.79934   0.00000  Uiso   1.00
C1289  C     0.88859   0.81943   0.95016   0.00000  Uiso   1.00
C1290  C     0.74397   0.85251   0.52921   0.00000  Uiso   1.00
C1291  C     0.92260   0.81356   0.97085   0.00000  Uiso   1.00
C1292  C     0.86297   0.97824   0.76876   0.00000  Uiso   1.00
C1293  C     0.80370   0.68843   0.73123   0.00000  Uiso   1.00
C1294  C     0.86372   0.68769   0.76808   0.00000  Uiso   1.00
H1295  H     0.70695   0.85999   0.55024   0.00000  Uiso   1.00
H1296  H     0.78099   0.70520   0.71631   0.00000  Uiso   1.00
H1297  H     0.88667   0.70387   0.78277   0.00000  Uiso   1.00
H1298  H     0.78000   0.96280   0.71722   0.00000  Uiso   1.00
H1299  H     0.72563   0.77828   0.71024   0.00000  Uiso   1.00
H1300  H     0.94101   0.88835   0.78982   0.00000  Uiso   1.00
H1301  H     0.77107   0.80868   0.63806   0.00000  Uiso   1.00
H1302  H     0.78991   0.77229   0.59053   0.00000  Uiso   1.00
H1303  H     0.81054   0.76490   0.63695   0.00000  Uiso   1.00
H1304  H     0.87684   0.89384   0.90973   0.00000  Uiso   1.00
H1305  H     0.89562   0.85756   0.86209   0.00000  Uiso   1.00
H1306  H     0.95961   0.80608   0.94981   0.00000  Uiso   1.00
H1307  H     0.85627   0.90145   0.86330   0.00000  Uiso   1.00
H1308  H     0.67313   0.75261   0.67628   0.00000  Uiso   1.00
H1309  H     0.95336   0.74393   0.72469   0.00000  Uiso   1.00
H1310  H     0.95277   0.78006   0.68005   0.00000  Uiso   1.00
H1311  H     0.99354   0.91406   0.82372   0.00000  Uiso   1.00
H1312  H     0.71389   0.88661   0.81996   0.00000  Uiso   1.00
H1313  H     0.71331   0.92273   0.77532   0.00000  Uiso   1.00
H1314  H     0.95586   0.82120   0.60243   0.00000  Uiso   1.00
H1315  H     0.71081   0.84541   0.89755   0.00000  Uiso   1.00
H1316  H     0.68624   0.85966   0.98002   0.00000  Uiso   1.00
H1317  H     0.98039   0.80666   0.52001   0.00000  Uiso   1.00
H1318  H     0.76630   0.85272   0.58623   0.00000  Uiso   1.00
H1319  H     0.90023   0.81330   0.91385   0.00000  Uiso   1.00
H1320  H     0.88568   0.96147   0.78369   0.00000  Uiso   1.00
N1321  N     0.71426   0.83334   0.75001   0.00000  Uiso   1.00
N1322  N     0.95241   0.83332   0.74999   0.00000  Uiso   1.00
O1323  O     0.79512   0.89442   0.75001   0.00000  Uiso   1.00
O1324  O     0.87154   0.77225   0.75000   0.00000  Uiso   1.00
O1325  O     0.87157   0.89441   0.75000   0.00000  Uiso   1.00
O1326  O     0.79510   0.77226   0.75000   0.00000  Uiso   1.00
O1327  O     0.77328   0.83334   0.81613   0.00000  Uiso   1.00
O1328  O     0.89339   0.83333   0.68388   0.00000  Uiso   1.00
O1329  O     0.84972   0.83333   0.81612   0.00000  Uiso   1.00
O1330  O     0.81695   0.83334   0.68388   0.00000  Uiso   1.00
Zn1331 Zn    0.78229   0.83334   0.75000   0.00000  Uiso   1.00
Zn1332 Zn    0.88438   0.83333   0.75000   0.00000  Uiso   1.00
loop_
_geom_bond_atom_site_label_1
_geom_bond_atom_site_label_2
_geom_bond_distance
_geom_bond_site_symmetry_2
_ccdc_geom_bond_type
C1     O65     1.288   .     A
C1     C4      1.414   .     S
C1     O67     1.284   .     A
C2     C4      1.394   .     A
C2     H40     1.084   .     S
C2     C257    1.371   .     S
C3     C35     1.398   .     A
C3     C36     1.394   .     A
C3     C12     1.414   .     S
C4     C34     1.398   .     A
C5     C29     1.500   .     S
C5     N64     1.384   .     A
C5     C81     1.419   .     S
C6     N63     1.384   .     A
C6     C30     1.500   .     S
C6     C156    1.419   1_455 S
C7     N63     1.356   .     A
C7     H41     1.082   .     S
C7     C153    1.419   1_455 S
C8     N64     1.356   .     A
C8     H42     1.082   .     S
C8     C80     1.419   .     S
C9     O69     1.302   .     A
C9     C11     1.462   .     S
C9     O71     1.292   .     A
C10    O70     1.302   .     A
C10    C13     1.462   .     S
C10    O72     1.292   .     A
C11    C18     1.410   .     A
C11    C16     1.401   .     A
C12    O68     1.284   .     A
C12    O66     1.288   .     A
C13    C17     1.401   .     A
C13    C19     1.410   .     A
C14    C16     1.393   .     A
C14    H58     1.080   .     S
C14    C22     1.403   .     A
C15    C24     1.403   .     A
C15    C17     1.393   .     A
C15    H59     1.080   .     S
C16    H57     1.083   .     S
C17    H56     1.083   .     S
C18    C28     1.521   .     S
C18    C20     1.399   .     A
C19    C27     1.521   .     S
C19    C21     1.399   .     A
C20    C25     1.418   .     A
C20    C22     1.415   .     A
C21    C26     1.418   .     A
C21    C24     1.415   .     A
C22    C698    1.391   .     S
C23    C32     1.390   .     A
C23    H60     1.077   .     S
C23    C26     1.416   .     A
C24    C699    1.391   1_554 S
C25    C31     1.416   .     A
C25    C692    1.411   .     S
C26    C691    1.411   1_554 S
C27    H45     1.111   .     S
C27    H43     1.107   .     S
C27    H44     1.111   .     S
C28    H49     1.111   .     S
C28    H46     1.111   .     S
C28    H47     1.107   .     S
C29    H51     1.107   .     S
C29    H52     1.103   .     S
C29    H124    1.111   .     S
C30    H55     1.107   .     S
C30    H54     1.103   .     S
C30    H201    1.111   1_455 S
C31    C33     1.390   .     A
C31    H61     1.078   .     S
C32    H37     1.084   .     S
C32    C688    1.391   1_554 S
C33    H48     1.084   .     S
C33    C690    1.391   .     S
C34    H62     1.084   .     S
C34    C258    1.371   .     S
C35    H38     1.084   .     S
C35    C446    1.371   1_545 S
C36    H39     1.084   .     S
C36    C478    1.371   1_545 S
H50    C177    1.111   1_455 S
H53    C104    1.111   .     S
N63    Zn73    2.021   .     S
N64    Zn74    2.021   .     S
O65    Zn73    1.999   .     S
O66    Zn74    1.999   .     S
O67    Zn74    1.986   .     S
O68    Zn73    1.986   .     S
O69    Zn73    1.987   .     S
O70    Zn74    1.987   .     S
O71    Zn74    1.954   .     S
O72    Zn73    1.954   .     S
C75    O139    1.288   .     A
C75    C78     1.414   .     S
C75    O141    1.284   .     A
C76    C78     1.394   .     A
C76    H114    1.084   .     S
C76    C331    1.371   .     S
C77    C109    1.398   .     A
C77    C110    1.394   .     A
C77    C86     1.414   .     S
C78    C108    1.398   .     A
C79    C103    1.500   .     S
C79    N138    1.384   .     A
C79    C155    1.419   .     S
C80    N137    1.384   .     A
C80    C104    1.500   .     S
C81    N137    1.356   .     A
C81    H115    1.082   .     S
C82    N138    1.356   .     A
C82    H116    1.082   .     S
C82    C154    1.419   .     S
C83    O143    1.302   .     A
C83    C85     1.462   .     S
C83    O145    1.292   .     A
C84    O144    1.302   .     A
C84    C87     1.462   .     S
C84    O146    1.292   .     A
C85    C92     1.410   .     A
C85    C90     1.401   .     A
C86    O142    1.284   .     A
C86    O140    1.288   .     A
C87    C91     1.401   .     A
C87    C93     1.410   .     A
C88    C90     1.393   .     A
C88    H132    1.080   .     S
C88    C96     1.403   .     A
C89    C98     1.403   .     A
C89    C91     1.393   .     A
C89    H133    1.080   .     S
C90    H131    1.083   .     S
C91    H130    1.083   .     S
C92    C102    1.521   .     S
C92    C94     1.399   .     A
C93    C101    1.521   .     S
C93    C95     1.399   .     A
C94    C99     1.418   .     A
C94    C96     1.415   .     A
C95    C100    1.418   .     A
C95    C98     1.415   .     A
C96    C772    1.391   .     S
C97    C106    1.390   .     A
C97    H134    1.077   .     S
C97    C100    1.416   .     A
C98    C773    1.391   1_554 S
C99    C105    1.416   .     A
C99    C766    1.411   .     S
C100   C765    1.411   1_554 S
C101   H119    1.111   .     S
C101   H117    1.107   .     S
C101   H118    1.111   .     S
C102   H123    1.111   .     S
C102   H120    1.111   .     S
C102   H121    1.107   .     S
C103   H125    1.107   .     S
C103   H126    1.103   .     S
C103   H198    1.111   .     S
C104   H129    1.107   .     S
C104   H128    1.103   .     S
C105   C107    1.390   .     A
C105   H135    1.078   .     S
C106   H111    1.084   .     S
C106   C762    1.391   1_554 S
C107   H122    1.084   .     S
C107   C764    1.391   .     S
C108   H136    1.084   .     S
C108   C332    1.371   .     S
C109   H112    1.084   .     S
C109   C520    1.371   1_545 S
C110   H113    1.084   .     S
C110   C552    1.371   1_545 S
H127   C178    1.111   .     S
N137   Zn147   2.021   .     S
N138   Zn148   2.021   .     S
O139   Zn147   1.999   .     S
O140   Zn148   1.999   .     S
O141   Zn148   1.986   .     S
O142   Zn147   1.986   .     S
O143   Zn147   1.987   .     S
O144   Zn148   1.987   .     S
O145   Zn148   1.954   .     S
O146   Zn147   1.954   .     S
C149   O213    1.288   .     A
C149   C152    1.414   .     S
C149   O215    1.284   .     A
C150   C152    1.394   .     A
C150   H188    1.084   .     S
C150   C405    1.371   .     S
C151   C183    1.398   .     A
C151   C184    1.394   .     A
C151   C160    1.414   .     S
C152   C182    1.398   .     A
C153   C177    1.500   .     S
C153   N212    1.384   .     A
C153   C7      1.419   1_655 S
C154   N211    1.384   .     A
C154   C178    1.500   .     S
C155   N211    1.356   .     A
C155   H189    1.082   .     S
C156   N212    1.356   .     A
C156   H190    1.082   .     S
C156   C6      1.419   1_655 S
C157   O217    1.302   .     A
C157   C159    1.462   .     S
C157   O219    1.292   .     A
C158   O218    1.302   .     A
C158   C161    1.462   .     S
C158   O220    1.292   .     A
C159   C166    1.410   .     A
C159   C164    1.401   .     A
C160   O216    1.284   .     A
C160   O214    1.288   .     A
C161   C165    1.401   .     A
C161   C167    1.410   .     A
C162   C164    1.393   .     A
C162   H206    1.080   .     S
C162   C170    1.403   .     A
C163   C172    1.403   .     A
C163   C165    1.393   .     A
C163   H207    1.080   .     S
C164   H205    1.083   .     S
C165   H204    1.083   .     S
C166   C176    1.521   .     S
C166   C168    1.399   .     A
C167   C175    1.521   .     S
C167   C169    1.399   .     A
C168   C173    1.418   .     A
C168   C170    1.415   .     A
C169   C174    1.418   .     A
C169   C172    1.415   .     A
C170   C846    1.391   .     S
C171   C180    1.390   .     A
C171   H208    1.077   .     S
C171   C174    1.416   .     A
C172   C847    1.391   1_554 S
C173   C179    1.416   .     A
C173   C840    1.411   .     S
C174   C839    1.411   1_554 S
C175   H193    1.111   .     S
C175   H191    1.107   .     S
C175   H192    1.111   .     S
C176   H197    1.111   .     S
C176   H194    1.111   .     S
C176   H195    1.107   .     S
C177   H199    1.107   .     S
C177   H200    1.103   .     S
C177   H50     1.111   1_655 S
C178   H203    1.107   .     S
C178   H202    1.103   .     S
C179   C181    1.390   .     A
C179   H209    1.078   .     S
C180   H185    1.084   .     S
C180   C836    1.391   1_554 S
C181   H196    1.084   .     S
C181   C838    1.391   .     S
C182   H210    1.084   .     S
C182   C406    1.371   .     S
C183   H186    1.084   .     S
C183   C594    1.371   1_545 S
C184   H187    1.084   .     S
C184   C626    1.371   1_545 S
H201   C30     1.111   1_655 S
N211   Zn221   2.021   .     S
N212   Zn222   2.021   .     S
O213   Zn221   1.999   .     S
O214   Zn222   1.999   .     S
O215   Zn222   1.986   .     S
O216   Zn221   1.986   .     S
O217   Zn221   1.987   .     S
O218   Zn222   1.987   .     S
O219   Zn222   1.954   .     S
O220   Zn221   1.954   .     S
C223   O287    1.288   .     A
C223   C226    1.414   .     S
C223   O289    1.284   .     A
C224   C226    1.394   .     A
C224   H262    1.084   .     S
C224   C479    1.371   .     S
C225   C257    1.398   .     A
C225   C258    1.394   .     A
C225   C234    1.414   .     S
C226   C256    1.398   .     A
C227   C251    1.500   .     S
C227   N286    1.384   .     A
C227   C303    1.419   .     S
C228   N285    1.384   .     A
C228   C252    1.500   .     S
C228   C378    1.419   1_455 S
C229   N285    1.356   .     A
C229   H263    1.082   .     S
C229   C375    1.419   1_455 S
C230   N286    1.356   .     A
C230   H264    1.082   .     S
C230   C302    1.419   .     S
C231   O291    1.302   .     A
C231   C233    1.462   .     S
C231   O293    1.292   .     A
C232   O292    1.302   .     A
C232   C235    1.462   .     S
C232   O294    1.292   .     A
C233   C240    1.410   .     A
C233   C238    1.401   .     A
C234   O290    1.284   .     A
C234   O288    1.288   .     A
C235   C239    1.401   .     A
C235   C241    1.410   .     A
C236   C238    1.393   .     A
C236   H280    1.080   .     S
C236   C244    1.403   .     A
C237   C246    1.403   .     A
C237   C239    1.393   .     A
C237   H281    1.080   .     S
C238   H279    1.083   .     S
C239   H278    1.083   .     S
C240   C250    1.521   .     S
C240   C242    1.399   .     A
C241   C249    1.521   .     S
C241   C243    1.399   .     A
C242   C247    1.418   .     A
C242   C244    1.415   .     A
C243   C248    1.418   .     A
C243   C246    1.415   .     A
C244   C920    1.391   .     S
C245   C254    1.390   .     A
C245   H282    1.077   .     S
C245   C248    1.416   .     A
C246   C921    1.391   1_554 S
C247   C253    1.416   .     A
C247   C914    1.411   .     S
C248   C913    1.411   1_554 S
C249   H267    1.111   .     S
C249   H265    1.107   .     S
C249   H266    1.111   .     S
C250   H271    1.111   .     S
C250   H268    1.111   .     S
C250   H269    1.107   .     S
C251   H273    1.107   .     S
C251   H274    1.103   .     S
C251   H346    1.111   .     S
C252   H277    1.107   .     S
C252   H276    1.103   .     S
C252   H423    1.111   1_455 S
C253   C255    1.390   .     A
C253   H283    1.078   .     S
C254   H259    1.084   .     S
C254   C910    1.391   1_554 S
C255   H270    1.084   .     S
C255   C912    1.391   .     S
C256   H284    1.084   .     S
C256   C480    1.371   .     S
C257   H260    1.084   .     S
C258   H261    1.084   .     S
H272   C399    1.111   1_455 S
H275   C326    1.111   .     S
N285   Zn295   2.021   .     S
N286   Zn296   2.021   .     S
O287   Zn295   1.999   .     S
O288   Zn296   1.999   .     S
O289   Zn296   1.986   .     S
O290   Zn295   1.986   .     S
O291   Zn295   1.987   .     S
O292   Zn296   1.987   .     S
O293   Zn296   1.954   .     S
O294   Zn295   1.954   .     S
C297   O361    1.288   .     A
C297   C300    1.414   .     S
C297   O363    1.284   .     A
C298   C300    1.394   .     A
C298   H336    1.084   .     S
C298   C553    1.371   .     S
C299   C331    1.398   .     A
C299   C332    1.394   .     A
C299   C308    1.414   .     S
C300   C330    1.398   .     A
C301   C325    1.500   .     S
C301   N360    1.384   .     A
C301   C377    1.419   .     S
C302   N359    1.384   .     A
C302   C326    1.500   .     S
C303   N359    1.356   .     A
C303   H337    1.082   .     S
C304   N360    1.356   .     A
C304   H338    1.082   .     S
C304   C376    1.419   .     S
C305   O365    1.302   .     A
C305   C307    1.462   .     S
C305   O367    1.292   .     A
C306   O366    1.302   .     A
C306   C309    1.462   .     S
C306   O368    1.292   .     A
C307   C314    1.410   .     A
C307   C312    1.401   .     A
C308   O364    1.284   .     A
C308   O362    1.288   .     A
C309   C313    1.401   .     A
C309   C315    1.410   .     A
C310   C312    1.393   .     A
C310   H354    1.080   .     S
C310   C318    1.403   .     A
C311   C320    1.403   .     A
C311   C313    1.393   .     A
C311   H355    1.080   .     S
C312   H353    1.083   .     S
C313   H352    1.083   .     S
C314   C324    1.521   .     S
C314   C316    1.399   .     A
C315   C323    1.521   .     S
C315   C317    1.399   .     A
C316   C321    1.418   .     A
C316   C318    1.415   .     A
C317   C322    1.418   .     A
C317   C320    1.415   .     A
C318   C994    1.391   .     S
C319   C328    1.390   .     A
C319   H356    1.077   .     S
C319   C322    1.416   .     A
C320   C995    1.391   1_554 S
C321   C327    1.416   .     A
C321   C988    1.411   .     S
C322   C987    1.411   1_554 S
C323   H341    1.111   .     S
C323   H339    1.107   .     S
C323   H340    1.111   .     S
C324   H345    1.111   .     S
C324   H342    1.111   .     S
C324   H343    1.107   .     S
C325   H347    1.107   .     S
C325   H348    1.103   .     S
C325   H420    1.111   .     S
C326   H351    1.107   .     S
C326   H350    1.103   .     S
C327   C329    1.390   .     A
C327   H357    1.078   .     S
C328   H333    1.084   .     S
C328   C984    1.391   1_554 S
C329   H344    1.084   .     S
C329   C986    1.391   .     S
C330   H358    1.084   .     S
C330   C554    1.371   .     S
C331   H334    1.084   .     S
C332   H335    1.084   .     S
H349   C400    1.111   .     S
N359   Zn369   2.021   .     S
N360   Zn370   2.021   .     S
O361   Zn369   1.999   .     S
O362   Zn370   1.999   .     S
O363   Zn370   1.986   .     S
O364   Zn369   1.986   .     S
O365   Zn369   1.987   .     S
O366   Zn370   1.987   .     S
O367   Zn370   1.954   .     S
O368   Zn369   1.954   .     S
C371   O435    1.288   .     A
C371   C374    1.414   .     S
C371   O437    1.284   .     A
C372   C374    1.394   .     A
C372   H410    1.084   .     S
C372   C627    1.371   .     S
C373   C405    1.398   .     A
C373   C406    1.394   .     A
C373   C382    1.414   .     S
C374   C404    1.398   .     A
C375   C399    1.500   .     S
C375   N434    1.384   .     A
C375   C229    1.419   1_655 S
C376   N433    1.384   .     A
C376   C400    1.500   .     S
C377   N433    1.356   .     A
C377   H411    1.082   .     S
C378   N434    1.356   .     A
C378   H412    1.082   .     S
C378   C228    1.419   1_655 S
C379   O439    1.302   .     A
C379   C381    1.462   .     S
C379   O441    1.292   .     A
C380   O440    1.302   .     A
C380   C383    1.462   .     S
C380   O442    1.292   .     A
C381   C388    1.410   .     A
C381   C386    1.401   .     A
C382   O438    1.284   .     A
C382   O436    1.288   .     A
C383   C387    1.401   .     A
C383   C389    1.410   .     A
C384   C386    1.393   .     A
C384   H428    1.080   .     S
C384   C392    1.403   .     A
C385   C394    1.403   .     A
C385   C387    1.393   .     A
C385   H429    1.080   .     S
C386   H427    1.083   .     S
C387   H426    1.083   .     S
C388   C398    1.521   .     S
C388   C390    1.399   .     A
C389   C397    1.521   .     S
C389   C391    1.399   .     A
C390   C395    1.418   .     A
C390   C392    1.415   .     A
C391   C396    1.418   .     A
C391   C394    1.415   .     A
C392   C1068   1.391   .     S
C393   C402    1.390   .     A
C393   H430    1.077   .     S
C393   C396    1.416   .     A
C394   C1069   1.391   1_554 S
C395   C401    1.416   .     A
C395   C1062   1.411   .     S
C396   C1061   1.411   1_554 S
C397   H415    1.111   .     S
C397   H413    1.107   .     S
C397   H414    1.111   .     S
C398   H419    1.111   .     S
C398   H416    1.111   .     S
C398   H417    1.107   .     S
C399   H421    1.107   .     S
C399   H422    1.103   .     S
C399   H272    1.111   1_655 S
C400   H425    1.107   .     S
C400   H424    1.103   .     S
C401   C403    1.390   .     A
C401   H431    1.078   .     S
C402   H407    1.084   .     S
C402   C1058   1.391   1_554 S
C403   H418    1.084   .     S
C403   C1060   1.391   .     S
C404   H432    1.084   .     S
C404   C628    1.371   .     S
C405   H408    1.084   .     S
C406   H409    1.084   .     S
H423   C252    1.111   1_655 S
N433   Zn443   2.021   .     S
N434   Zn444   2.021   .     S
O435   Zn443   1.999   .     S
O436   Zn444   1.999   .     S
O437   Zn444   1.986   .     S
O438   Zn443   1.986   .     S
O439   Zn443   1.987   .     S
O440   Zn444   1.987   .     S
O441   Zn444   1.954   .     S
O442   Zn443   1.954   .     S
C445   O509    1.288   .     A
C445   C448    1.414   .     S
C445   O511    1.284   .     A
C446   C448    1.394   .     A
C446   H484    1.084   .     S
C446   C35     1.371   1_565 S
C447   C479    1.398   .     A
C447   C480    1.394   .     A
C447   C456    1.414   .     S
C448   C478    1.398   .     A
C449   C473    1.500   .     S
C449   N508    1.384   .     A
C449   C525    1.419   .     S
C450   N507    1.384   .     A
C450   C474    1.500   .     S
C450   C600    1.419   1_455 S
C451   N507    1.356   .     A
C451   H485    1.082   .     S
C451   C597    1.419   1_455 S
C452   N508    1.356   .     A
C452   H486    1.082   .     S
C452   C524    1.419   .     S
C453   O513    1.302   .     A
C453   C455    1.462   .     S
C453   O515    1.292   .     A
C454   O514    1.302   .     A
C454   C457    1.462   .     S
C454   O516    1.292   .     A
C455   C462    1.410   .     A
C455   C460    1.401   .     A
C456   O512    1.284   .     A
C456   O510    1.288   .     A
C457   C461    1.401   .     A
C457   C463    1.410   .     A
C458   C460    1.393   .     A
C458   H502    1.080   .     S
C458   C466    1.403   .     A
C459   C468    1.403   .     A
C459   C461    1.393   .     A
C459   H503    1.080   .     S
C460   H501    1.083   .     S
C461   H500    1.083   .     S
C462   C472    1.521   .     S
C462   C464    1.399   .     A
C463   C471    1.521   .     S
C463   C465    1.399   .     A
C464   C469    1.418   .     A
C464   C466    1.415   .     A
C465   C470    1.418   .     A
C465   C468    1.415   .     A
C466   C1142   1.391   .     S
C467   C476    1.390   .     A
C467   H504    1.077   .     S
C467   C470    1.416   .     A
C468   C1143   1.391   1_554 S
C469   C475    1.416   .     A
C469   C1136   1.411   .     S
C470   C1135   1.411   1_554 S
C471   H489    1.111   .     S
C471   H487    1.107   .     S
C471   H488    1.111   .     S
C472   H493    1.111   .     S
C472   H490    1.111   .     S
C472   H491    1.107   .     S
C473   H495    1.107   .     S
C473   H496    1.103   .     S
C473   H568    1.111   .     S
C474   H499    1.107   .     S
C474   H498    1.103   .     S
C474   H645    1.111   1_455 S
C475   C477    1.390   .     A
C475   H505    1.078   .     S
C476   H481    1.084   .     S
C476   C1132   1.391   1_554 S
C477   H492    1.084   .     S
C477   C1134   1.391   .     S
C478   H506    1.084   .     S
C478   C36     1.371   1_565 S
C479   H482    1.084   .     S
C480   H483    1.084   .     S
H494   C621    1.111   1_455 S
H497   C548    1.111   .     S
N507   Zn517   2.021   .     S
N508   Zn518   2.021   .     S
O509   Zn517   1.999   .     S
O510   Zn518   1.999   .     S
O511   Zn518   1.986   .     S
O512   Zn517   1.986   .     S
O513   Zn517   1.987   .     S
O514   Zn518   1.987   .     S
O515   Zn518   1.954   .     S
O516   Zn517   1.954   .     S
C519   O583    1.288   .     A
C519   C522    1.414   .     S
C519   O585    1.284   .     A
C520   C522    1.394   .     A
C520   H558    1.084   .     S
C520   C109    1.371   1_565 S
C521   C553    1.398   .     A
C521   C554    1.394   .     A
C521   C530    1.414   .     S
C522   C552    1.398   .     A
C523   C547    1.500   .     S
C523   N582    1.384   .     A
C523   C599    1.419   .     S
C524   N581    1.384   .     A
C524   C548    1.500   .     S
C525   N581    1.356   .     A
C525   H559    1.082   .     S
C526   N582    1.356   .     A
C526   H560    1.082   .     S
C526   C598    1.419   .     S
C527   O587    1.302   .     A
C527   C529    1.462   .     S
C527   O589    1.292   .     A
C528   O588    1.302   .     A
C528   C531    1.462   .     S
C528   O590    1.292   .     A
C529   C536    1.410   .     A
C529   C534    1.401   .     A
C530   O586    1.284   .     A
C530   O584    1.288   .     A
C531   C535    1.401   .     A
C531   C537    1.410   .     A
C532   C534    1.393   .     A
C532   H576    1.080   .     S
C532   C540    1.403   .     A
C533   C542    1.403   .     A
C533   C535    1.393   .     A
C533   H577    1.080   .     S
C534   H575    1.083   .     S
C535   H574    1.083   .     S
C536   C546    1.521   .     S
C536   C538    1.399   .     A
C537   C545    1.521   .     S
C537   C539    1.399   .     A
C538   C543    1.418   .     A
C538   C540    1.415   .     A
C539   C544    1.418   .     A
C539   C542    1.415   .     A
C540   C1216   1.391   .     S
C541   C550    1.390   .     A
C541   H578    1.077   .     S
C541   C544    1.416   .     A
C542   C1217   1.391   1_554 S
C543   C549    1.416   .     A
C543   C1210   1.411   .     S
C544   C1209   1.411   1_554 S
C545   H563    1.111   .     S
C545   H561    1.107   .     S
C545   H562    1.111   .     S
C546   H567    1.111   .     S
C546   H564    1.111   .     S
C546   H565    1.107   .     S
C547   H569    1.107   .     S
C547   H570    1.103   .     S
C547   H642    1.111   .     S
C548   H573    1.107   .     S
C548   H572    1.103   .     S
C549   C551    1.390   .     A
C549   H579    1.078   .     S
C550   H555    1.084   .     S
C550   C1206   1.391   1_554 S
C551   H566    1.084   .     S
C551   C1208   1.391   .     S
C552   H580    1.084   .     S
C552   C110    1.371   1_565 S
C553   H556    1.084   .     S
C554   H557    1.084   .     S
H571   C622    1.111   .     S
N581   Zn591   2.021   .     S
N582   Zn592   2.021   .     S
O583   Zn591   1.999   .     S
O584   Zn592   1.999   .     S
O585   Zn592   1.986   .     S
O586   Zn591   1.986   .     S
O587   Zn591   1.987   .     S
O588   Zn592   1.987   .     S
O589   Zn592   1.954   .     S
O590   Zn591   1.954   .     S
C593   O657    1.288   .     A
C593   C596    1.414   .     S
C593   O659    1.284   .     A
C594   C596    1.394   .     A
C594   H632    1.084   .     S
C594   C183    1.371   1_565 S
C595   C627    1.398   .     A
C595   C628    1.394   .     A
C595   C604    1.414   .     S
C596   C626    1.398   .     A
C597   C621    1.500   .     S
C597   N656    1.384   .     A
C597   C451    1.419   1_655 S
C598   N655    1.384   .     A
C598   C622    1.500   .     S
C599   N655    1.356   .     A
C599   H633    1.082   .     S
C600   N656    1.356   .     A
C600   H634    1.082   .     S
C600   C450    1.419   1_655 S
C601   O661    1.302   .     A
C601   C603    1.462   .     S
C601   O663    1.292   .     A
C602   O662    1.302   .     A
C602   C605    1.462   .     S
C602   O664    1.292   .     A
C603   C610    1.410   .     A
C603   C608    1.401   .     A
C604   O660    1.284   .     A
C604   O658    1.288   .     A
C605   C609    1.401   .     A
C605   C611    1.410   .     A
C606   C608    1.393   .     A
C606   H650    1.080   .     S
C606   C614    1.403   .     A
C607   C616    1.403   .     A
C607   C609    1.393   .     A
C607   H651    1.080   .     S
C608   H649    1.083   .     S
C609   H648    1.083   .     S
C610   C620    1.521   .     S
C610   C612    1.399   .     A
C611   C619    1.521   .     S
C611   C613    1.399   .     A
C612   C617    1.418   .     A
C612   C614    1.415   .     A
C613   C618    1.418   .     A
C613   C616    1.415   .     A
C614   C1290   1.391   .     S
C615   C624    1.390   .     A
C615   H652    1.077   .     S
C615   C618    1.416   .     A
C616   C1291   1.391   1_554 S
C617   C623    1.416   .     A
C617   C1284   1.411   .     S
C618   C1283   1.411   1_554 S
C619   H637    1.111   .     S
C619   H635    1.107   .     S
C619   H636    1.111   .     S
C620   H641    1.111   .     S
C620   H638    1.111   .     S
C620   H639    1.107   .     S
C621   H643    1.107   .     S
C621   H644    1.103   .     S
C621   H494    1.111   1_655 S
C622   H647    1.107   .     S
C622   H646    1.103   .     S
C623   C625    1.390   .     A
C623   H653    1.078   .     S
C624   H629    1.084   .     S
C624   C1280   1.391   1_554 S
C625   H640    1.084   .     S
C625   C1282   1.391   .     S
C626   H654    1.084   .     S
C626   C184    1.371   1_565 S
C627   H630    1.084   .     S
C628   H631    1.084   .     S
H645   C474    1.111   1_655 S
N655   Zn665   2.021   .     S
N656   Zn666   2.021   .     S
O657   Zn665   1.999   .     S
O658   Zn666   1.999   .     S
O659   Zn666   1.986   .     S
O660   Zn665   1.986   .     S
O661   Zn665   1.987   .     S
O662   Zn666   1.987   .     S
O663   Zn666   1.954   .     S
O664   Zn665   1.954   .     S
C667   O731    1.288   .     A
C667   C670    1.414   .     S
C667   O733    1.284   .     A
C668   C670    1.394   .     A
C668   H706    1.084   .     S
C668   C923    1.371   .     S
C669   C701    1.398   .     A
C669   C702    1.394   .     A
C669   C678    1.414   .     S
C670   C700    1.398   .     A
C671   C695    1.500   .     S
C671   N730    1.384   .     A
C671   C747    1.419   .     S
C672   N729    1.384   .     A
C672   C696    1.500   .     S
C672   C822    1.419   1_455 S
C673   N729    1.356   .     A
C673   H707    1.082   .     S
C673   C819    1.419   1_455 S
C674   N730    1.356   .     A
C674   H708    1.082   .     S
C674   C746    1.419   .     S
C675   O735    1.302   .     A
C675   C677    1.462   .     S
C675   O737    1.292   .     A
C676   O736    1.302   .     A
C676   C679    1.462   .     S
C676   O738    1.292   .     A
C677   C684    1.410   .     A
C677   C682    1.401   .     A
C678   O734    1.284   .     A
C678   O732    1.288   .     A
C679   C683    1.401   .     A
C679   C685    1.410   .     A
C680   C682    1.393   .     A
C680   H724    1.080   .     S
C680   C688    1.403   .     A
C681   C690    1.403   .     A
C681   C683    1.393   .     A
C681   H725    1.080   .     S
C682   H723    1.083   .     S
C683   H722    1.083   .     S
C684   C694    1.521   .     S
C684   C686    1.399   .     A
C685   C693    1.521   .     S
C685   C687    1.399   .     A
C686   C691    1.418   .     A
C686   C688    1.415   .     A
C687   C692    1.418   .     A
C687   C690    1.415   .     A
C688   C32     1.391   1_556 S
C689   C698    1.390   .     A
C689   H726    1.077   .     S
C689   C692    1.416   .     A
C691   C697    1.416   .     A
C691   C26     1.411   1_556 S
C693   H711    1.111   .     S
C693   H709    1.107   .     S
C693   H710    1.111   .     S
C694   H715    1.111   .     S
C694   H712    1.111   .     S
C694   H713    1.107   .     S
C695   H717    1.107   .     S
C695   H718    1.103   .     S
C695   H790    1.111   .     S
C696   H721    1.107   .     S
C696   H720    1.103   .     S
C696   H867    1.111   1_455 S
C697   C699    1.390   .     A
C697   H727    1.078   .     S
C698   H703    1.084   .     S
C699   H714    1.084   .     S
C699   C24     1.391   1_556 S
C700   H728    1.084   .     S
C700   C924    1.371   .     S
C701   H704    1.084   .     S
C701   C1112   1.371   1_545 S
C702   H705    1.084   .     S
C702   C1144   1.371   1_545 S
H716   C843    1.111   1_455 S
H719   C770    1.111   .     S
N729   Zn739   2.021   .     S
N730   Zn740   2.021   .     S
O731   Zn739   1.999   .     S
O732   Zn740   1.999   .     S
O733   Zn740   1.986   .     S
O734   Zn739   1.986   .     S
O735   Zn739   1.987   .     S
O736   Zn740   1.987   .     S
O737   Zn740   1.954   .     S
O738   Zn739   1.954   .     S
C741   O805    1.288   .     A
C741   C744    1.414   .     S
C741   O807    1.284   .     A
C742   C744    1.394   .     A
C742   H780    1.084   .     S
C742   C997    1.371   .     S
C743   C775    1.398   .     A
C743   C776    1.394   .     A
C743   C752    1.414   .     S
C744   C774    1.398   .     A
C745   C769    1.500   .     S
C745   N804    1.384   .     A
C745   C821    1.419   .     S
C746   N803    1.384   .     A
C746   C770    1.500   .     S
C747   N803    1.356   .     A
C747   H781    1.082   .     S
C748   N804    1.356   .     A
C748   H782    1.082   .     S
C748   C820    1.419   .     S
C749   O809    1.302   .     A
C749   C751    1.462   .     S
C749   O811    1.292   .     A
C750   O810    1.302   .     A
C750   C753    1.462   .     S
C750   O812    1.292   .     A
C751   C758    1.410   .     A
C751   C756    1.401   .     A
C752   O808    1.284   .     A
C752   O806    1.288   .     A
C753   C757    1.401   .     A
C753   C759    1.410   .     A
C754   C756    1.393   .     A
C754   H798    1.080   .     S
C754   C762    1.403   .     A
C755   C764    1.403   .     A
C755   C757    1.393   .     A
C755   H799    1.080   .     S
C756   H797    1.083   .     S
C757   H796    1.083   .     S
C758   C768    1.521   .     S
C758   C760    1.399   .     A
C759   C767    1.521   .     S
C759   C761    1.399   .     A
C760   C765    1.418   .     A
C760   C762    1.415   .     A
C761   C766    1.418   .     A
C761   C764    1.415   .     A
C762   C106    1.391   1_556 S
C763   C772    1.390   .     A
C763   H800    1.077   .     S
C763   C766    1.416   .     A
C765   C771    1.416   .     A
C765   C100    1.411   1_556 S
C767   H785    1.111   .     S
C767   H783    1.107   .     S
C767   H784    1.111   .     S
C768   H789    1.111   .     S
C768   H786    1.111   .     S
C768   H787    1.107   .     S
C769   H791    1.107   .     S
C769   H792    1.103   .     S
C769   H864    1.111   .     S
C770   H795    1.107   .     S
C770   H794    1.103   .     S
C771   C773    1.390   .     A
C771   H801    1.078   .     S
C772   H777    1.084   .     S
C773   H788    1.084   .     S
C773   C98     1.391   1_556 S
C774   H802    1.084   .     S
C774   C998    1.371   .     S
C775   H778    1.084   .     S
C775   C1186   1.371   1_545 S
C776   H779    1.084   .     S
C776   C1218   1.371   1_545 S
H793   C844    1.111   .     S
N803   Zn813   2.021   .     S
N804   Zn814   2.021   .     S
O805   Zn813   1.999   .     S
O806   Zn814   1.999   .     S
O807   Zn814   1.986   .     S
O808   Zn813   1.986   .     S
O809   Zn813   1.987   .     S
O810   Zn814   1.987   .     S
O811   Zn814   1.954   .     S
O812   Zn813   1.954   .     S
C815   O879    1.288   .     A
C815   C818    1.414   .     S
C815   O881    1.284   .     A
C816   C818    1.394   .     A
C816   H854    1.084   .     S
C816   C1071   1.371   .     S
C817   C849    1.398   .     A
C817   C850    1.394   .     A
C817   C826    1.414   .     S
C818   C848    1.398   .     A
C819   C843    1.500   .     S
C819   N878    1.384   .     A
C819   C673    1.419   1_655 S
C820   N877    1.384   .     A
C820   C844    1.500   .     S
C821   N877    1.356   .     A
C821   H855    1.082   .     S
C822   N878    1.356   .     A
C822   H856    1.082   .     S
C822   C672    1.419   1_655 S
C823   O883    1.302   .     A
C823   C825    1.462   .     S
C823   O885    1.292   .     A
C824   O884    1.302   .     A
C824   C827    1.462   .     S
C824   O886    1.292   .     A
C825   C832    1.410   .     A
C825   C830    1.401   .     A
C826   O882    1.284   .     A
C826   O880    1.288   .     A
C827   C831    1.401   .     A
C827   C833    1.410   .     A
C828   C830    1.393   .     A
C828   H872    1.080   .     S
C828   C836    1.403   .     A
C829   C838    1.403   .     A
C829   C831    1.393   .     A
C829   H873    1.080   .     S
C830   H871    1.083   .     S
C831   H870    1.083   .     S
C832   C842    1.521   .     S
C832   C834    1.399   .     A
C833   C841    1.521   .     S
C833   C835    1.399   .     A
C834   C839    1.418   .     A
C834   C836    1.415   .     A
C835   C840    1.418   .     A
C835   C838    1.415   .     A
C836   C180    1.391   1_556 S
C837   C846    1.390   .     A
C837   H874    1.077   .     S
C837   C840    1.416   .     A
C839   C845    1.416   .     A
C839   C174    1.411   1_556 S
C841   H859    1.111   .     S
C841   H857    1.107   .     S
C841   H858    1.111   .     S
C842   H863    1.111   .     S
C842   H860    1.111   .     S
C842   H861    1.107   .     S
C843   H865    1.107   .     S
C843   H866    1.103   .     S
C843   H716    1.111   1_655 S
C844   H869    1.107   .     S
C844   H868    1.103   .     S
C845   C847    1.390   .     A
C845   H875    1.078   .     S
C846   H851    1.084   .     S
C847   H862    1.084   .     S
C847   C172    1.391   1_556 S
C848   H876    1.084   .     S
C848   C1072   1.371   .     S
C849   H852    1.084   .     S
C849   C1260   1.371   1_545 S
C850   H853    1.084   .     S
C850   C1292   1.371   1_545 S
H867   C696    1.111   1_655 S
N877   Zn887   2.021   .     S
N878   Zn888   2.021   .     S
O879   Zn887   1.999   .     S
O880   Zn888   1.999   .     S
O881   Zn888   1.986   .     S
O882   Zn887   1.986   .     S
O883   Zn887   1.987   .     S
O884   Zn888   1.987   .     S
O885   Zn888   1.954   .     S
O886   Zn887   1.954   .     S
C889   O953    1.288   .     A
C889   C892    1.414   .     S
C889   O955    1.284   .     A
C890   C892    1.394   .     A
C890   H928    1.084   .     S
C890   C1145   1.371   .     S
C891   C923    1.398   .     A
C891   C924    1.394   .     A
C891   C900    1.414   .     S
C892   C922    1.398   .     A
C893   C917    1.500   .     S
C893   N952    1.384   .     A
C893   C969    1.419   .     S
C894   N951    1.384   .     A
C894   C918    1.500   .     S
C894   C1044   1.419   1_455 S
C895   N951    1.356   .     A
C895   H929    1.082   .     S
C895   C1041   1.419   1_455 S
C896   N952    1.356   .     A
C896   H930    1.082   .     S
C896   C968    1.419   .     S
C897   O957    1.302   .     A
C897   C899    1.462   .     S
C897   O959    1.292   .     A
C898   O958    1.302   .     A
C898   C901    1.462   .     S
C898   O960    1.292   .     A
C899   C906    1.410   .     A
C899   C904    1.401   .     A
C900   O956    1.284   .     A
C900   O954    1.288   .     A
C901   C905    1.401   .     A
C901   C907    1.410   .     A
C902   C904    1.393   .     A
C902   H946    1.080   .     S
C902   C910    1.403   .     A
C903   C912    1.403   .     A
C903   C905    1.393   .     A
C903   H947    1.080   .     S
C904   H945    1.083   .     S
C905   H944    1.083   .     S
C906   C916    1.521   .     S
C906   C908    1.399   .     A
C907   C915    1.521   .     S
C907   C909    1.399   .     A
C908   C913    1.418   .     A
C908   C910    1.415   .     A
C909   C914    1.418   .     A
C909   C912    1.415   .     A
C910   C254    1.391   1_556 S
C911   C920    1.390   .     A
C911   H948    1.077   .     S
C911   C914    1.416   .     A
C913   C919    1.416   .     A
C913   C248    1.411   1_556 S
C915   H933    1.111   .     S
C915   H931    1.107   .     S
C915   H932    1.111   .     S
C916   H937    1.111   .     S
C916   H934    1.111   .     S
C916   H935    1.107   .     S
C917   H939    1.107   .     S
C917   H940    1.103   .     S
C917   H1012   1.111   .     S
C918   H943    1.107   .     S
C918   H942    1.103   .     S
C918   H1089   1.111   1_455 S
C919   C921    1.390   .     A
C919   H949    1.078   .     S
C920   H925    1.084   .     S
C921   H936    1.084   .     S
C921   C246    1.391   1_556 S
C922   H950    1.084   .     S
C922   C1146   1.371   .     S
C923   H926    1.084   .     S
C924   H927    1.084   .     S
H938   C1065   1.111   1_455 S
H941   C992    1.111   .     S
N951   Zn961   2.021   .     S
N952   Zn962   2.021   .     S
O953   Zn961   1.999   .     S
O954   Zn962   1.999   .     S
O955   Zn962   1.986   .     S
O956   Zn961   1.986   .     S
O957   Zn961   1.987   .     S
O958   Zn962   1.987   .     S
O959   Zn962   1.954   .     S
O960   Zn961   1.954   .     S
C963   O1027   1.288   .     A
C963   C966    1.414   .     S
C963   O1029   1.284   .     A
C964   C966    1.394   .     A
C964   H1002   1.084   .     S
C964   C1219   1.371   .     S
C965   C997    1.398   .     A
C965   C998    1.394   .     A
C965   C974    1.414   .     S
C966   C996    1.398   .     A
C967   C991    1.500   .     S
C967   N1026   1.384   .     A
C967   C1043   1.419   .     S
C968   N1025   1.384   .     A
C968   C992    1.500   .     S
C969   N1025   1.356   .     A
C969   H1003   1.082   .     S
C970   N1026   1.356   .     A
C970   H1004   1.082   .     S
C970   C1042   1.419   .     S
C971   O1031   1.302   .     A
C971   C973    1.462   .     S
C971   O1033   1.292   .     A
C972   O1032   1.302   .     A
C972   C975    1.462   .     S
C972   O1034   1.292   .     A
C973   C980    1.410   .     A
C973   C978    1.401   .     A
C974   O1030   1.284   .     A
C974   O1028   1.288   .     A
C975   C979    1.401   .     A
C975   C981    1.410   .     A
C976   C978    1.393   .     A
C976   H1020   1.080   .     S
C976   C984    1.403   .     A
C977   C986    1.403   .     A
C977   C979    1.393   .     A
C977   H1021   1.080   .     S
C978   H1019   1.083   .     S
C979   H1018   1.083   .     S
C980   C990    1.521   .     S
C980   C982    1.399   .     A
C981   C989    1.521   .     S
C981   C983    1.399   .     A
C982   C987    1.418   .     A
C982   C984    1.415   .     A
C983   C988    1.418   .     A
C983   C986    1.415   .     A
C984   C328    1.391   1_556 S
C985   C994    1.390   .     A
C985   H1022   1.077   .     S
C985   C988    1.416   .     A
C987   C993    1.416   .     A
C987   C322    1.411   1_556 S
C989   H1007   1.111   .     S
C989   H1005   1.107   .     S
C989   H1006   1.111   .     S
C990   H1011   1.111   .     S
C990   H1008   1.111   .     S
C990   H1009   1.107   .     S
C991   H1013   1.107   .     S
C991   H1014   1.103   .     S
C991   H1086   1.111   .     S
C992   H1017   1.107   .     S
C992   H1016   1.103   .     S
C993   C995    1.390   .     A
C993   H1023   1.078   .     S
C994   H999    1.084   .     S
C995   H1010   1.084   .     S
C995   C320    1.391   1_556 S
C996   H1024   1.084   .     S
C996   C1220   1.371   .     S
C997   H1000   1.084   .     S
C998   H1001   1.084   .     S
H1015  C1066   1.111   .     S
N1025  Zn1035  2.021   .     S
N1026  Zn1036  2.021   .     S
O1027  Zn1035  1.999   .     S
O1028  Zn1036  1.999   .     S
O1029  Zn1036  1.986   .     S
O1030  Zn1035  1.986   .     S
O1031  Zn1035  1.987   .     S
O1032  Zn1036  1.987   .     S
O1033  Zn1036  1.954   .     S
O1034  Zn1035  1.954   .     S
C1037  O1101   1.288   .     A
C1037  C1040   1.414   .     S
C1037  O1103   1.284   .     A
C1038  C1040   1.394   .     A
C1038  H1076   1.084   .     S
C1038  C1293   1.371   .     S
C1039  C1071   1.398   .     A
C1039  C1072   1.394   .     A
C1039  C1048   1.414   .     S
C1040  C1070   1.398   .     A
C1041  C1065   1.500   .     S
C1041  N1100   1.384   .     A
C1041  C895    1.419   1_655 S
C1042  N1099   1.384   .     A
C1042  C1066   1.500   .     S
C1043  N1099   1.356   .     A
C1043  H1077   1.082   .     S
C1044  N1100   1.356   .     A
C1044  H1078   1.082   .     S
C1044  C894    1.419   1_655 S
C1045  O1105   1.302   .     A
C1045  C1047   1.462   .     S
C1045  O1107   1.292   .     A
C1046  O1106   1.302   .     A
C1046  C1049   1.462   .     S
C1046  O1108   1.292   .     A
C1047  C1054   1.410   .     A
C1047  C1052   1.401   .     A
C1048  O1104   1.284   .     A
C1048  O1102   1.288   .     A
C1049  C1053   1.401   .     A
C1049  C1055   1.410   .     A
C1050  C1052   1.393   .     A
C1050  H1094   1.080   .     S
C1050  C1058   1.403   .     A
C1051  C1060   1.403   .     A
C1051  C1053   1.393   .     A
C1051  H1095   1.080   .     S
C1052  H1093   1.083   .     S
C1053  H1092   1.083   .     S
C1054  C1064   1.521   .     S
C1054  C1056   1.399   .     A
C1055  C1063   1.521   .     S
C1055  C1057   1.399   .     A
C1056  C1061   1.418   .     A
C1056  C1058   1.415   .     A
C1057  C1062   1.418   .     A
C1057  C1060   1.415   .     A
C1058  C402    1.391   1_556 S
C1059  C1068   1.390   .     A
C1059  H1096   1.077   .     S
C1059  C1062   1.416   .     A
C1061  C1067   1.416   .     A
C1061  C396    1.411   1_556 S
C1063  H1081   1.111   .     S
C1063  H1079   1.107   .     S
C1063  H1080   1.111   .     S
C1064  H1085   1.111   .     S
C1064  H1082   1.111   .     S
C1064  H1083   1.107   .     S
C1065  H1087   1.107   .     S
C1065  H1088   1.103   .     S
C1065  H938    1.111   1_655 S
C1066  H1091   1.107   .     S
C1066  H1090   1.103   .     S
C1067  C1069   1.390   .     A
C1067  H1097   1.078   .     S
C1068  H1073   1.084   .     S
C1069  H1084   1.084   .     S
C1069  C394    1.391   1_556 S
C1070  H1098   1.084   .     S
C1070  C1294   1.371   .     S
C1071  H1074   1.084   .     S
C1072  H1075   1.084   .     S
H1089  C918    1.111   1_655 S
N1099  Zn1109  2.021   .     S
N1100  Zn1110  2.021   .     S
O1101  Zn1109  1.999   .     S
O1102  Zn1110  1.999   .     S
O1103  Zn1110  1.986   .     S
O1104  Zn1109  1.986   .     S
O1105  Zn1109  1.987   .     S
O1106  Zn1110  1.987   .     S
O1107  Zn1110  1.954   .     S
O1108  Zn1109  1.954   .     S
C1111  O1175   1.288   .     A
C1111  C1114   1.414   .     S
C1111  O1177   1.284   .     A
C1112  C1114   1.394   .     A
C1112  H1150   1.084   .     S
C1112  C701    1.371   1_565 S
C1113  C1145   1.398   .     A
C1113  C1146   1.394   .     A
C1113  C1122   1.414   .     S
C1114  C1144   1.398   .     A
C1115  C1139   1.500   .     S
C1115  N1174   1.384   .     A
C1115  C1191   1.419   .     S
C1116  N1173   1.384   .     A
C1116  C1140   1.500   .     S
C1116  C1266   1.419   1_455 S
C1117  N1173   1.356   .     A
C1117  H1151   1.082   .     S
C1117  C1263   1.419   1_455 S
C1118  N1174   1.356   .     A
C1118  H1152   1.082   .     S
C1118  C1190   1.419   .     S
C1119  O1179   1.302   .     A
C1119  C1121   1.462   .     S
C1119  O1181   1.292   .     A
C1120  O1180   1.302   .     A
C1120  C1123   1.462   .     S
C1120  O1182   1.292   .     A
C1121  C1128   1.410   .     A
C1121  C1126   1.401   .     A
C1122  O1178   1.284   .     A
C1122  O1176   1.288   .     A
C1123  C1127   1.401   .     A
C1123  C1129   1.410   .     A
C1124  C1126   1.393   .     A
C1124  H1168   1.080   .     S
C1124  C1132   1.403   .     A
C1125  C1134   1.403   .     A
C1125  C1127   1.393   .     A
C1125  H1169   1.080   .     S
C1126  H1167   1.083   .     S
C1127  H1166   1.083   .     S
C1128  C1138   1.521   .     S
C1128  C1130   1.399   .     A
C1129  C1137   1.521   .     S
C1129  C1131   1.399   .     A
C1130  C1135   1.418   .     A
C1130  C1132   1.415   .     A
C1131  C1136   1.418   .     A
C1131  C1134   1.415   .     A
C1132  C476    1.391   1_556 S
C1133  C1142   1.390   .     A
C1133  H1170   1.077   .     S
C1133  C1136   1.416   .     A
C1135  C1141   1.416   .     A
C1135  C470    1.411   1_556 S
C1137  H1155   1.111   .     S
C1137  H1153   1.107   .     S
C1137  H1154   1.111   .     S
C1138  H1159   1.111   .     S
C1138  H1156   1.111   .     S
C1138  H1157   1.107   .     S
C1139  H1161   1.107   .     S
C1139  H1162   1.103   .     S
C1139  H1234   1.111   .     S
C1140  H1165   1.107   .     S
C1140  H1164   1.103   .     S
C1140  H1311   1.111   1_455 S
C1141  C1143   1.390   .     A
C1141  H1171   1.078   .     S
C1142  H1147   1.084   .     S
C1143  H1158   1.084   .     S
C1143  C468    1.391   1_556 S
C1144  H1172   1.084   .     S
C1144  C702    1.371   1_565 S
C1145  H1148   1.084   .     S
C1146  H1149   1.084   .     S
H1160  C1287   1.111   1_455 S
H1163  C1214   1.111   .     S
N1173  Zn1183  2.021   .     S
N1174  Zn1184  2.021   .     S
O1175  Zn1183  1.999   .     S
O1176  Zn1184  1.999   .     S
O1177  Zn1184  1.986   .     S
O1178  Zn1183  1.986   .     S
O1179  Zn1183  1.987   .     S
O1180  Zn1184  1.987   .     S
O1181  Zn1184  1.954   .     S
O1182  Zn1183  1.954   .     S
C1185  O1249   1.288   .     A
C1185  C1188   1.414   .     S
C1185  O1251   1.284   .     A
C1186  C1188   1.394   .     A
C1186  H1224   1.084   .     S
C1186  C775    1.371   1_565 S
C1187  C1219   1.398   .     A
C1187  C1220   1.394   .     A
C1187  C1196   1.414   .     S
C1188  C1218   1.398   .     A
C1189  C1213   1.500   .     S
C1189  N1248   1.384   .     A
C1189  C1265   1.419   .     S
C1190  N1247   1.384   .     A
C1190  C1214   1.500   .     S
C1191  N1247   1.356   .     A
C1191  H1225   1.082   .     S
C1192  N1248   1.356   .     A
C1192  H1226   1.082   .     S
C1192  C1264   1.419   .     S
C1193  O1253   1.302   .     A
C1193  C1195   1.462   .     S
C1193  O1255   1.292   .     A
C1194  O1254   1.302   .     A
C1194  C1197   1.462   .     S
C1194  O1256   1.292   .     A
C1195  C1202   1.410   .     A
C1195  C1200   1.401   .     A
C1196  O1252   1.284   .     A
C1196  O1250   1.288   .     A
C1197  C1201   1.401   .     A
C1197  C1203   1.410   .     A
C1198  C1200   1.393   .     A
C1198  H1242   1.080   .     S
C1198  C1206   1.403   .     A
C1199  C1208   1.403   .     A
C1199  C1201   1.393   .     A
C1199  H1243   1.080   .     S
C1200  H1241   1.083   .     S
C1201  H1240   1.083   .     S
C1202  C1212   1.521   .     S
C1202  C1204   1.399   .     A
C1203  C1211   1.521   .     S
C1203  C1205   1.399   .     A
C1204  C1209   1.418   .     A
C1204  C1206   1.415   .     A
C1205  C1210   1.418   .     A
C1205  C1208   1.415   .     A
C1206  C550    1.391   1_556 S
C1207  C1216   1.390   .     A
C1207  H1244   1.077   .     S
C1207  C1210   1.416   .     A
C1209  C1215   1.416   .     A
C1209  C544    1.411   1_556 S
C1211  H1229   1.111   .     S
C1211  H1227   1.107   .     S
C1211  H1228   1.111   .     S
C1212  H1233   1.111   .     S
C1212  H1230   1.111   .     S
C1212  H1231   1.107   .     S
C1213  H1235   1.107   .     S
C1213  H1236   1.103   .     S
C1213  H1308   1.111   .     S
C1214  H1239   1.107   .     S
C1214  H1238   1.103   .     S
C1215  C1217   1.390   .     A
C1215  H1245   1.078   .     S
C1216  H1221   1.084   .     S
C1217  H1232   1.084   .     S
C1217  C542    1.391   1_556 S
C1218  H1246   1.084   .     S
C1218  C776    1.371   1_565 S
C1219  H1222   1.084   .     S
C1220  H1223   1.084   .     S
H1237  C1288   1.111   .     S
N1247  Zn1257  2.021   .     S
N1248  Zn1258  2.021   .     S
O1249  Zn1257  1.999   .     S
O1250  Zn1258  1.999   .     S
O1251  Zn1258  1.986   .     S
O1252  Zn1257  1.986   .     S
O1253  Zn1257  1.987   .     S
O1254  Zn1258  1.987   .     S
O1255  Zn1258  1.954   .     S
O1256  Zn1257  1.954   .     S
C1259  O1323   1.288   .     A
C1259  C1262   1.414   .     S
C1259  O1325   1.284   .     A
C1260  C1262   1.394   .     A
C1260  H1298   1.084   .     S
C1260  C849    1.371   1_565 S
C1261  C1293   1.398   .     A
C1261  C1294   1.394   .     A
C1261  C1270   1.414   .     S
C1262  C1292   1.398   .     A
C1263  C1287   1.500   .     S
C1263  N1322   1.384   .     A
C1263  C1117   1.419   1_655 S
C1264  N1321   1.384   .     A
C1264  C1288   1.500   .     S
C1265  N1321   1.356   .     A
C1265  H1299   1.082   .     S
C1266  N1322   1.356   .     A
C1266  H1300   1.082   .     S
C1266  C1116   1.419   1_655 S
C1267  O1327   1.302   .     A
C1267  C1269   1.462   .     S
C1267  O1329   1.292   .     A
C1268  O1328   1.302   .     A
C1268  C1271   1.462   .     S
C1268  O1330   1.292   .     A
C1269  C1276   1.410   .     A
C1269  C1274   1.401   .     A
C1270  O1326   1.284   .     A
C1270  O1324   1.288   .     A
C1271  C1275   1.401   .     A
C1271  C1277   1.410   .     A
C1272  C1274   1.393   .     A
C1272  H1316   1.080   .     S
C1272  C1280   1.403   .     A
C1273  C1282   1.403   .     A
C1273  C1275   1.393   .     A
C1273  H1317   1.080   .     S
C1274  H1315   1.083   .     S
C1275  H1314   1.083   .     S
C1276  C1286   1.521   .     S
C1276  C1278   1.399   .     A
C1277  C1285   1.521   .     S
C1277  C1279   1.399   .     A
C1278  C1283   1.418   .     A
C1278  C1280   1.415   .     A
C1279  C1284   1.418   .     A
C1279  C1282   1.415   .     A
C1280  C624    1.391   1_556 S
C1281  C1290   1.390   .     A
C1281  H1318   1.077   .     S
C1281  C1284   1.416   .     A
C1283  C1289   1.416   .     A
C1283  C618    1.411   1_556 S
C1285  H1303   1.111   .     S
C1285  H1301   1.107   .     S
C1285  H1302   1.111   .     S
C1286  H1307   1.111   .     S
C1286  H1304   1.111   .     S
C1286  H1305   1.107   .     S
C1287  H1309   1.107   .     S
C1287  H1310   1.103   .     S
C1287  H1160   1.111   1_655 S
C1288  H1313   1.107   .     S
C1288  H1312   1.103   .     S
C1289  C1291   1.390   .     A
C1289  H1319   1.078   .     S
C1290  H1295   1.084   .     S
C1291  H1306   1.084   .     S
C1291  C616    1.391   1_556 S
C1292  H1320   1.084   .     S
C1292  C850    1.371   1_565 S
C1293  H1296   1.084   .     S
C1294  H1297   1.084   .     S
H1311  C1140   1.111   1_655 S
N1321  Zn1331  2.021   .     S
N1322  Zn1332  2.021   .     S
O1323  Zn1331  1.999   .     S
O1324  Zn1332  1.999   .     S
O1325  Zn1332  1.986   .     S
O1326  Zn1331  1.986   .     S
O1327  Zn1331  1.987   .     S
O1328  Zn1332  1.987   .     S
O1329  Zn1332  1.954   .     S
O1330  Zn1331  1.954   .     S
