data_str_m3_o1_o16_pcu_sym.131
_audit_creation_date              2020-01-03
_audit_creation_method            'Materials Studio'
_symmetry_space_group_name_H-M    'P1'
_symmetry_Int_Tables_number       1
_symmetry_cell_setting            triclinic
loop_
_symmetry_equiv_pos_as_xyz
  x,y,z
_cell_length_a                    29.6842
_cell_length_b                    31.9922
_cell_length_c                    26.0448
_cell_angle_alpha                 90.5766
_cell_angle_beta                  71.4913
_cell_angle_gamma                 90.6035
loop_
_atom_site_label
_atom_site_type_symbol
_atom_site_fract_x
_atom_site_fract_y
_atom_site_fract_z
_atom_site_U_iso_or_equiv
_atom_site_adp_type
_atom_site_occupancy
C1     C     0.16718   0.24663   0.24928   0.00000  Uiso   1.00
C2     C     0.14730   0.13440   0.48789   0.00000  Uiso   1.00
C3     C     0.16067   0.13230   0.43112   0.00000  Uiso   1.00
C4     C     0.18329   0.14063   0.01188   0.00000  Uiso   1.00
C5     C     0.23158   0.13740   0.48013   0.00000  Uiso   1.00
C6     C     0.24326   0.12402   0.42646   0.00000  Uiso   1.00
C7     C     0.20765   0.11970   0.40204   0.00000  Uiso   1.00
C8     C     0.17242   0.15317   0.06563   0.00000  Uiso   1.00
C9     C     0.25608   0.16047   0.05648   0.00000  Uiso   1.00
C10    C     0.12649   0.14391   0.40631   0.00000  Uiso   1.00
C11    C     0.21006   0.31265   0.22166   0.00000  Uiso   1.00
C12    C     0.14111   0.16000   0.35073   0.00000  Uiso   1.00
C13    C     0.20866   0.02229   0.22093   0.00000  Uiso   1.00
C14    C     0.16666   0.04270   0.24883   0.00000  Uiso   1.00
C15    C     0.12522   0.02110   0.27634   0.00000  Uiso   1.00
C16    C     0.12587   0.31162   0.27632   0.00000  Uiso   1.00
C17    C     0.16795   0.29088   0.24889   0.00000  Uiso   1.00
C18    C     0.31977   0.14481   0.21163   0.00000  Uiso   1.00
C19    C     0.03430   0.14491   0.21156   0.00000  Uiso   1.00
C20    C     0.01387   0.18802   0.28863   0.00000  Uiso   1.00
C21    C     0.29964   0.18869   0.28860   0.00000  Uiso   1.00
C22    C     0.16657   0.08676   0.24961   0.00000  Uiso   1.00
C23    C     0.19274   0.16665   0.14773   0.00000  Uiso   1.00
C24    C     0.26745   0.14737   0.00250   0.00000  Uiso   1.00
C25    C     0.20795   0.16118   0.08893   0.00000  Uiso   1.00
C26    C     0.07813   0.14238   0.43666   0.00000  Uiso   1.00
C27    C     0.06450   0.13329   0.49160   0.00000  Uiso   1.00
C28    C     0.09849   0.13151   0.01783   0.00000  Uiso   1.00
H29    H     0.23988   0.03973   0.19787   0.00000  Uiso   1.00
H30    H     0.09279   0.03730   0.29814   0.00000  Uiso   1.00
H31    H     0.09374   0.29470   0.29803   0.00000  Uiso   1.00
H32    H     0.31011   0.12731   0.18089   0.00000  Uiso   1.00
H33    H     0.06063   0.12745   0.18071   0.00000  Uiso   1.00
H34    H     0.02393   0.20535   0.31925   0.00000  Uiso   1.00
H35    H     0.27993   0.11745   0.40345   0.00000  Uiso   1.00
H36    H     0.30417   0.14589   0.47752   0.00000  Uiso   1.00
H37    H     0.13592   0.15754   0.08991   0.00000  Uiso   1.00
H38    H     0.05106   0.14832   0.41798   0.00000  Uiso   1.00
H39    H     0.08586   0.12679   0.06108   0.00000  Uiso   1.00
H40    H     0.02755   0.12980   0.01479   0.00000  Uiso   1.00
N41    N     0.04760   0.16668   0.25001   0.00000  Uiso   1.00
N42    N     0.28573   0.16665   0.25001   0.00000  Uiso   1.00
O43    O     0.12846   0.22775   0.25000   0.00000  Uiso   1.00
O44    O     0.20490   0.22774   0.25000   0.00000  Uiso   1.00
O45    O     0.10947   0.16666   0.32681   0.00000  Uiso   1.00
O46    O     0.18591   0.16665   0.32681   0.00000  Uiso   1.00
O47    O     0.12843   0.10559   0.24999   0.00000  Uiso   1.00
O48    O     0.20488   0.10558   0.24999   0.00000  Uiso   1.00
O49    O     0.14742   0.16668   0.17319   0.00000  Uiso   1.00
O50    O     0.22387   0.16667   0.17319   0.00000  Uiso   1.00
Zn51   Zn    0.11562   0.16667   0.25000   0.00000  Uiso   1.00
Zn52   Zn    0.21771   0.16666   0.25000   0.00000  Uiso   1.00
O53    O     0.29242   0.16966   0.07752   0.00000  Uiso   1.00
C54    C     0.29690   0.21353   0.08245   0.00000  Uiso   1.00
H55    H     0.31314   0.21940   0.11489   0.00000  Uiso   1.00
H56    H     0.26204   0.22994   0.09539   0.00000  Uiso   1.00
C57    C     0.32960   0.23217   0.02957   0.00000  Uiso   1.00
H58    H     0.03087   0.21576   0.01728   0.00000  Uiso   1.00
H59    H     0.31319   0.22800   0.49698   0.00000  Uiso   1.00
C60    C     0.00513   0.27868   0.03608   0.00000  Uiso   1.00
H61    H     0.30433   0.29586   0.04944   0.00000  Uiso   1.00
H62    H     0.02753   0.29155   0.49671   0.00000  Uiso   1.00
H63    H     0.02407   0.28343   0.06624   0.00000  Uiso   1.00
O64    O     0.26856   0.21236   0.32828   0.00000  Uiso   1.00
H65    H     0.24224   0.22032   0.31534   0.00000  Uiso   1.00
O66    O     0.21706   0.10029   0.35217   0.00000  Uiso   1.00
H67    H     0.25127   0.09320   0.33799   0.00000  Uiso   1.00
O68    O     0.25070   0.29211   0.19099   0.00000  Uiso   1.00
C69    C     0.28352   0.28954   0.22025   0.00000  Uiso   1.00
H70    H     0.29868   0.25759   0.21360   0.00000  Uiso   1.00
H71    H     0.26718   0.29350   0.26502   0.00000  Uiso   1.00
C72    C     0.32416   0.32111   0.19879   0.00000  Uiso   1.00
H73    H     0.00528   0.31854   0.15400   0.00000  Uiso   1.00
H74    H     0.31081   0.02000   0.20958   0.00000  Uiso   1.00
C75    C     0.03075   0.31350   0.22270   0.00000  Uiso   1.00
H76    H     0.01725   0.31653   0.26751   0.00000  Uiso   1.00
H77    H     0.05950   0.00364   0.20661   0.00000  Uiso   1.00
H78    H     0.04580   0.28178   0.21153   0.00000  Uiso   1.00
C79    C     0.50051   0.24663   0.24928   0.00000  Uiso   1.00
C80    C     0.48064   0.13440   0.48789   0.00000  Uiso   1.00
C81    C     0.49401   0.13230   0.43112   0.00000  Uiso   1.00
C82    C     0.51663   0.14063   0.01188   0.00000  Uiso   1.00
C83    C     0.56492   0.13740   0.48013   0.00000  Uiso   1.00
C84    C     0.57659   0.12402   0.42646   0.00000  Uiso   1.00
C85    C     0.54099   0.11970   0.40204   0.00000  Uiso   1.00
C86    C     0.50575   0.15317   0.06563   0.00000  Uiso   1.00
C87    C     0.58942   0.16047   0.05648   0.00000  Uiso   1.00
C88    C     0.45983   0.14391   0.40631   0.00000  Uiso   1.00
C89    C     0.54339   0.31265   0.22166   0.00000  Uiso   1.00
C90    C     0.47445   0.16000   0.35073   0.00000  Uiso   1.00
C91    C     0.54199   0.02229   0.22093   0.00000  Uiso   1.00
C92    C     0.49999   0.04270   0.24883   0.00000  Uiso   1.00
C93    C     0.45856   0.02110   0.27634   0.00000  Uiso   1.00
C94    C     0.45921   0.31162   0.27632   0.00000  Uiso   1.00
C95    C     0.50129   0.29088   0.24889   0.00000  Uiso   1.00
C96    C     0.65310   0.14481   0.21163   0.00000  Uiso   1.00
C97    C     0.36763   0.14491   0.21156   0.00000  Uiso   1.00
C98    C     0.34720   0.18802   0.28863   0.00000  Uiso   1.00
C99    C     0.63298   0.18869   0.28860   0.00000  Uiso   1.00
C100   C     0.49991   0.08676   0.24961   0.00000  Uiso   1.00
C101   C     0.52608   0.16665   0.14773   0.00000  Uiso   1.00
C102   C     0.60078   0.14737   0.00250   0.00000  Uiso   1.00
C103   C     0.54128   0.16118   0.08893   0.00000  Uiso   1.00
C104   C     0.41146   0.14238   0.43666   0.00000  Uiso   1.00
C105   C     0.39784   0.13329   0.49160   0.00000  Uiso   1.00
C106   C     0.43182   0.13151   0.01783   0.00000  Uiso   1.00
H107   H     0.57321   0.03973   0.19787   0.00000  Uiso   1.00
H108   H     0.42612   0.03730   0.29814   0.00000  Uiso   1.00
H109   H     0.42707   0.29470   0.29803   0.00000  Uiso   1.00
H110   H     0.64344   0.12731   0.18089   0.00000  Uiso   1.00
H111   H     0.39397   0.12745   0.18071   0.00000  Uiso   1.00
H112   H     0.35727   0.20535   0.31925   0.00000  Uiso   1.00
H113   H     0.61326   0.11745   0.40345   0.00000  Uiso   1.00
H114   H     0.63750   0.14589   0.47752   0.00000  Uiso   1.00
H115   H     0.46925   0.15754   0.08991   0.00000  Uiso   1.00
H116   H     0.38439   0.14832   0.41798   0.00000  Uiso   1.00
H117   H     0.41920   0.12679   0.06108   0.00000  Uiso   1.00
H118   H     0.36089   0.12980   0.01479   0.00000  Uiso   1.00
N119   N     0.38093   0.16668   0.25001   0.00000  Uiso   1.00
N120   N     0.61906   0.16665   0.25001   0.00000  Uiso   1.00
O121   O     0.46179   0.22775   0.25000   0.00000  Uiso   1.00
O122   O     0.53823   0.22774   0.25000   0.00000  Uiso   1.00
O123   O     0.44280   0.16666   0.32681   0.00000  Uiso   1.00
O124   O     0.51924   0.16665   0.32681   0.00000  Uiso   1.00
O125   O     0.46177   0.10559   0.24999   0.00000  Uiso   1.00
O126   O     0.53821   0.10558   0.24999   0.00000  Uiso   1.00
O127   O     0.48076   0.16668   0.17319   0.00000  Uiso   1.00
O128   O     0.55720   0.16667   0.17319   0.00000  Uiso   1.00
Zn129  Zn    0.44896   0.16667   0.25000   0.00000  Uiso   1.00
Zn130  Zn    0.55104   0.16666   0.25000   0.00000  Uiso   1.00
O131   O     0.62575   0.16966   0.07752   0.00000  Uiso   1.00
C132   C     0.63023   0.21353   0.08245   0.00000  Uiso   1.00
H133   H     0.64647   0.21940   0.11489   0.00000  Uiso   1.00
H134   H     0.59538   0.22994   0.09539   0.00000  Uiso   1.00
C135   C     0.66293   0.23217   0.02957   0.00000  Uiso   1.00
H136   H     0.36420   0.21576   0.01728   0.00000  Uiso   1.00
H137   H     0.64652   0.22800   0.49698   0.00000  Uiso   1.00
C138   C     0.33847   0.27868   0.03608   0.00000  Uiso   1.00
H139   H     0.63766   0.29586   0.04944   0.00000  Uiso   1.00
H140   H     0.36086   0.29155   0.49671   0.00000  Uiso   1.00
H141   H     0.35740   0.28343   0.06624   0.00000  Uiso   1.00
O142   O     0.60190   0.21236   0.32828   0.00000  Uiso   1.00
H143   H     0.57557   0.22032   0.31534   0.00000  Uiso   1.00
O144   O     0.55040   0.10029   0.35217   0.00000  Uiso   1.00
H145   H     0.58460   0.09320   0.33799   0.00000  Uiso   1.00
O146   O     0.58404   0.29211   0.19099   0.00000  Uiso   1.00
C147   C     0.61685   0.28954   0.22025   0.00000  Uiso   1.00
H148   H     0.63202   0.25759   0.21360   0.00000  Uiso   1.00
H149   H     0.60052   0.29350   0.26502   0.00000  Uiso   1.00
C150   C     0.65749   0.32111   0.19879   0.00000  Uiso   1.00
H151   H     0.33861   0.31854   0.15400   0.00000  Uiso   1.00
H152   H     0.64414   0.02000   0.20958   0.00000  Uiso   1.00
C153   C     0.36408   0.31350   0.22270   0.00000  Uiso   1.00
H154   H     0.35058   0.31653   0.26751   0.00000  Uiso   1.00
H155   H     0.39283   0.00364   0.20661   0.00000  Uiso   1.00
H156   H     0.37913   0.28178   0.21153   0.00000  Uiso   1.00
C157   C     0.83384   0.24663   0.24928   0.00000  Uiso   1.00
C158   C     0.81397   0.13440   0.48789   0.00000  Uiso   1.00
C159   C     0.82734   0.13230   0.43112   0.00000  Uiso   1.00
C160   C     0.84996   0.14063   0.01188   0.00000  Uiso   1.00
C161   C     0.89825   0.13740   0.48013   0.00000  Uiso   1.00
C162   C     0.90993   0.12402   0.42646   0.00000  Uiso   1.00
C163   C     0.87432   0.11970   0.40204   0.00000  Uiso   1.00
C164   C     0.83908   0.15317   0.06563   0.00000  Uiso   1.00
C165   C     0.92275   0.16047   0.05648   0.00000  Uiso   1.00
C166   C     0.79316   0.14391   0.40631   0.00000  Uiso   1.00
C167   C     0.87672   0.31265   0.22166   0.00000  Uiso   1.00
C168   C     0.80778   0.16000   0.35073   0.00000  Uiso   1.00
C169   C     0.87533   0.02229   0.22093   0.00000  Uiso   1.00
C170   C     0.83332   0.04270   0.24883   0.00000  Uiso   1.00
C171   C     0.79189   0.02110   0.27634   0.00000  Uiso   1.00
C172   C     0.79254   0.31162   0.27632   0.00000  Uiso   1.00
C173   C     0.83462   0.29088   0.24889   0.00000  Uiso   1.00
C174   C     0.98644   0.14481   0.21163   0.00000  Uiso   1.00
C175   C     0.70096   0.14491   0.21156   0.00000  Uiso   1.00
C176   C     0.68054   0.18802   0.28863   0.00000  Uiso   1.00
C177   C     0.96631   0.18869   0.28860   0.00000  Uiso   1.00
C178   C     0.83324   0.08676   0.24961   0.00000  Uiso   1.00
C179   C     0.85941   0.16665   0.14773   0.00000  Uiso   1.00
C180   C     0.93412   0.14737   0.00250   0.00000  Uiso   1.00
C181   C     0.87462   0.16118   0.08893   0.00000  Uiso   1.00
C182   C     0.74479   0.14238   0.43666   0.00000  Uiso   1.00
C183   C     0.73117   0.13329   0.49160   0.00000  Uiso   1.00
C184   C     0.76516   0.13151   0.01783   0.00000  Uiso   1.00
H185   H     0.90655   0.03973   0.19787   0.00000  Uiso   1.00
H186   H     0.75946   0.03730   0.29814   0.00000  Uiso   1.00
H187   H     0.76041   0.29470   0.29803   0.00000  Uiso   1.00
H188   H     0.97678   0.12731   0.18089   0.00000  Uiso   1.00
H189   H     0.72730   0.12745   0.18071   0.00000  Uiso   1.00
H190   H     0.69060   0.20535   0.31925   0.00000  Uiso   1.00
H191   H     0.94659   0.11745   0.40345   0.00000  Uiso   1.00
H192   H     0.97084   0.14589   0.47752   0.00000  Uiso   1.00
H193   H     0.80258   0.15754   0.08991   0.00000  Uiso   1.00
H194   H     0.71772   0.14832   0.41798   0.00000  Uiso   1.00
H195   H     0.75253   0.12679   0.06108   0.00000  Uiso   1.00
H196   H     0.69422   0.12980   0.01479   0.00000  Uiso   1.00
N197   N     0.71426   0.16668   0.25001   0.00000  Uiso   1.00
N198   N     0.95239   0.16665   0.25001   0.00000  Uiso   1.00
O199   O     0.79512   0.22775   0.25000   0.00000  Uiso   1.00
O200   O     0.87157   0.22774   0.25000   0.00000  Uiso   1.00
O201   O     0.77613   0.16666   0.32681   0.00000  Uiso   1.00
O202   O     0.85258   0.16665   0.32681   0.00000  Uiso   1.00
O203   O     0.79510   0.10559   0.24999   0.00000  Uiso   1.00
O204   O     0.87154   0.10558   0.24999   0.00000  Uiso   1.00
O205   O     0.81409   0.16668   0.17319   0.00000  Uiso   1.00
O206   O     0.89053   0.16667   0.17319   0.00000  Uiso   1.00
Zn207  Zn    0.78229   0.16667   0.25000   0.00000  Uiso   1.00
Zn208  Zn    0.88438   0.16666   0.25000   0.00000  Uiso   1.00
O209   O     0.95909   0.16966   0.07752   0.00000  Uiso   1.00
C210   C     0.96356   0.21353   0.08245   0.00000  Uiso   1.00
H211   H     0.97981   0.21940   0.11489   0.00000  Uiso   1.00
H212   H     0.92871   0.22994   0.09539   0.00000  Uiso   1.00
C213   C     0.99627   0.23217   0.02957   0.00000  Uiso   1.00
H214   H     0.69754   0.21576   0.01728   0.00000  Uiso   1.00
H215   H     0.97986   0.22800   0.49698   0.00000  Uiso   1.00
C216   C     0.67180   0.27868   0.03608   0.00000  Uiso   1.00
H217   H     0.97099   0.29586   0.04944   0.00000  Uiso   1.00
H218   H     0.69419   0.29155   0.49671   0.00000  Uiso   1.00
H219   H     0.69074   0.28343   0.06624   0.00000  Uiso   1.00
O220   O     0.93523   0.21236   0.32828   0.00000  Uiso   1.00
H221   H     0.90890   0.22032   0.31534   0.00000  Uiso   1.00
O222   O     0.88373   0.10029   0.35217   0.00000  Uiso   1.00
H223   H     0.91794   0.09320   0.33799   0.00000  Uiso   1.00
O224   O     0.91737   0.29211   0.19099   0.00000  Uiso   1.00
C225   C     0.95019   0.28954   0.22025   0.00000  Uiso   1.00
H226   H     0.96535   0.25759   0.21360   0.00000  Uiso   1.00
H227   H     0.93385   0.29350   0.26502   0.00000  Uiso   1.00
C228   C     0.99082   0.32111   0.19879   0.00000  Uiso   1.00
H229   H     0.67194   0.31854   0.15400   0.00000  Uiso   1.00
H230   H     0.97747   0.02000   0.20958   0.00000  Uiso   1.00
C231   C     0.69742   0.31350   0.22270   0.00000  Uiso   1.00
H232   H     0.68391   0.31653   0.26751   0.00000  Uiso   1.00
H233   H     0.72616   0.00364   0.20661   0.00000  Uiso   1.00
H234   H     0.71247   0.28178   0.21153   0.00000  Uiso   1.00
C235   C     0.16718   0.57997   0.24928   0.00000  Uiso   1.00
C236   C     0.14730   0.46774   0.48789   0.00000  Uiso   1.00
C237   C     0.16067   0.46563   0.43112   0.00000  Uiso   1.00
C238   C     0.18329   0.47396   0.01188   0.00000  Uiso   1.00
C239   C     0.23158   0.47073   0.48013   0.00000  Uiso   1.00
C240   C     0.24326   0.45736   0.42646   0.00000  Uiso   1.00
C241   C     0.20765   0.45304   0.40204   0.00000  Uiso   1.00
C242   C     0.17242   0.48651   0.06563   0.00000  Uiso   1.00
C243   C     0.25608   0.49380   0.05648   0.00000  Uiso   1.00
C244   C     0.12649   0.47724   0.40631   0.00000  Uiso   1.00
C245   C     0.21006   0.64599   0.22166   0.00000  Uiso   1.00
C246   C     0.14111   0.49333   0.35073   0.00000  Uiso   1.00
C247   C     0.20866   0.35562   0.22093   0.00000  Uiso   1.00
C248   C     0.16666   0.37604   0.24883   0.00000  Uiso   1.00
C249   C     0.12522   0.35444   0.27634   0.00000  Uiso   1.00
C250   C     0.12587   0.64495   0.27632   0.00000  Uiso   1.00
C251   C     0.16795   0.62422   0.24889   0.00000  Uiso   1.00
C252   C     0.31977   0.47814   0.21163   0.00000  Uiso   1.00
C253   C     0.03430   0.47825   0.21156   0.00000  Uiso   1.00
C254   C     0.01387   0.52135   0.28863   0.00000  Uiso   1.00
C255   C     0.29964   0.52203   0.28860   0.00000  Uiso   1.00
C256   C     0.16657   0.42009   0.24961   0.00000  Uiso   1.00
C257   C     0.19274   0.49998   0.14773   0.00000  Uiso   1.00
C258   C     0.26745   0.48070   0.00250   0.00000  Uiso   1.00
C259   C     0.20795   0.49451   0.08893   0.00000  Uiso   1.00
C260   C     0.07813   0.47572   0.43666   0.00000  Uiso   1.00
C261   C     0.06450   0.46662   0.49160   0.00000  Uiso   1.00
C262   C     0.09849   0.46484   0.01783   0.00000  Uiso   1.00
H263   H     0.23988   0.37306   0.19787   0.00000  Uiso   1.00
H264   H     0.09279   0.37063   0.29814   0.00000  Uiso   1.00
H265   H     0.09374   0.62803   0.29803   0.00000  Uiso   1.00
H266   H     0.31011   0.46064   0.18089   0.00000  Uiso   1.00
H267   H     0.06063   0.46078   0.18071   0.00000  Uiso   1.00
H268   H     0.02393   0.53868   0.31925   0.00000  Uiso   1.00
H269   H     0.27993   0.45078   0.40345   0.00000  Uiso   1.00
H270   H     0.30417   0.47923   0.47752   0.00000  Uiso   1.00
H271   H     0.13592   0.49087   0.08991   0.00000  Uiso   1.00
H272   H     0.05106   0.48166   0.41798   0.00000  Uiso   1.00
H273   H     0.08586   0.46012   0.06108   0.00000  Uiso   1.00
H274   H     0.02755   0.46313   0.01479   0.00000  Uiso   1.00
N275   N     0.04760   0.50001   0.25001   0.00000  Uiso   1.00
N276   N     0.28573   0.49998   0.25001   0.00000  Uiso   1.00
O277   O     0.12846   0.56108   0.25000   0.00000  Uiso   1.00
O278   O     0.20490   0.56107   0.25000   0.00000  Uiso   1.00
O279   O     0.10947   0.50000   0.32681   0.00000  Uiso   1.00
O280   O     0.18591   0.49999   0.32681   0.00000  Uiso   1.00
O281   O     0.12843   0.43893   0.24999   0.00000  Uiso   1.00
O282   O     0.20488   0.43892   0.24999   0.00000  Uiso   1.00
O283   O     0.14742   0.50001   0.17319   0.00000  Uiso   1.00
O284   O     0.22387   0.50000   0.17319   0.00000  Uiso   1.00
Zn285  Zn    0.11562   0.50001   0.25000   0.00000  Uiso   1.00
Zn286  Zn    0.21771   0.49999   0.25000   0.00000  Uiso   1.00
O287   O     0.29242   0.50300   0.07752   0.00000  Uiso   1.00
C288   C     0.29690   0.54687   0.08245   0.00000  Uiso   1.00
H289   H     0.31314   0.55273   0.11489   0.00000  Uiso   1.00
H290   H     0.26204   0.56327   0.09539   0.00000  Uiso   1.00
C291   C     0.32960   0.56551   0.02957   0.00000  Uiso   1.00
H292   H     0.03087   0.54910   0.01728   0.00000  Uiso   1.00
H293   H     0.31319   0.56133   0.49698   0.00000  Uiso   1.00
C294   C     0.00513   0.61201   0.03608   0.00000  Uiso   1.00
H295   H     0.30433   0.62919   0.04944   0.00000  Uiso   1.00
H296   H     0.02753   0.62488   0.49671   0.00000  Uiso   1.00
H297   H     0.02407   0.61676   0.06624   0.00000  Uiso   1.00
O298   O     0.26856   0.54570   0.32828   0.00000  Uiso   1.00
H299   H     0.24224   0.55365   0.31534   0.00000  Uiso   1.00
O300   O     0.21706   0.43362   0.35217   0.00000  Uiso   1.00
H301   H     0.25127   0.42653   0.33799   0.00000  Uiso   1.00
O302   O     0.25070   0.62545   0.19099   0.00000  Uiso   1.00
C303   C     0.28352   0.62287   0.22025   0.00000  Uiso   1.00
H304   H     0.29868   0.59092   0.21360   0.00000  Uiso   1.00
H305   H     0.26718   0.62684   0.26502   0.00000  Uiso   1.00
C306   C     0.32416   0.65444   0.19879   0.00000  Uiso   1.00
H307   H     0.00528   0.65187   0.15400   0.00000  Uiso   1.00
H308   H     0.31081   0.35334   0.20958   0.00000  Uiso   1.00
C309   C     0.03075   0.64684   0.22270   0.00000  Uiso   1.00
H310   H     0.01725   0.64986   0.26751   0.00000  Uiso   1.00
H311   H     0.05950   0.33697   0.20661   0.00000  Uiso   1.00
H312   H     0.04580   0.61512   0.21153   0.00000  Uiso   1.00
C313   C     0.50051   0.57997   0.24928   0.00000  Uiso   1.00
C314   C     0.48064   0.46774   0.48789   0.00000  Uiso   1.00
C315   C     0.49401   0.46563   0.43112   0.00000  Uiso   1.00
C316   C     0.51663   0.47396   0.01188   0.00000  Uiso   1.00
C317   C     0.56492   0.47073   0.48013   0.00000  Uiso   1.00
C318   C     0.57659   0.45736   0.42646   0.00000  Uiso   1.00
C319   C     0.54099   0.45304   0.40204   0.00000  Uiso   1.00
C320   C     0.50575   0.48651   0.06563   0.00000  Uiso   1.00
C321   C     0.58942   0.49380   0.05648   0.00000  Uiso   1.00
C322   C     0.45983   0.47724   0.40631   0.00000  Uiso   1.00
C323   C     0.54339   0.64599   0.22166   0.00000  Uiso   1.00
C324   C     0.47445   0.49333   0.35073   0.00000  Uiso   1.00
C325   C     0.54199   0.35562   0.22093   0.00000  Uiso   1.00
C326   C     0.49999   0.37604   0.24883   0.00000  Uiso   1.00
C327   C     0.45856   0.35444   0.27634   0.00000  Uiso   1.00
C328   C     0.45921   0.64495   0.27632   0.00000  Uiso   1.00
C329   C     0.50129   0.62422   0.24889   0.00000  Uiso   1.00
C330   C     0.65310   0.47814   0.21163   0.00000  Uiso   1.00
C331   C     0.36763   0.47825   0.21156   0.00000  Uiso   1.00
C332   C     0.34720   0.52135   0.28863   0.00000  Uiso   1.00
C333   C     0.63298   0.52203   0.28860   0.00000  Uiso   1.00
C334   C     0.49991   0.42009   0.24961   0.00000  Uiso   1.00
C335   C     0.52608   0.49998   0.14773   0.00000  Uiso   1.00
C336   C     0.60078   0.48070   0.00250   0.00000  Uiso   1.00
C337   C     0.54128   0.49451   0.08893   0.00000  Uiso   1.00
C338   C     0.41146   0.47572   0.43666   0.00000  Uiso   1.00
C339   C     0.39784   0.46662   0.49160   0.00000  Uiso   1.00
C340   C     0.43182   0.46484   0.01783   0.00000  Uiso   1.00
H341   H     0.57321   0.37306   0.19787   0.00000  Uiso   1.00
H342   H     0.42612   0.37063   0.29814   0.00000  Uiso   1.00
H343   H     0.42707   0.62803   0.29803   0.00000  Uiso   1.00
H344   H     0.64344   0.46064   0.18089   0.00000  Uiso   1.00
H345   H     0.39397   0.46078   0.18071   0.00000  Uiso   1.00
H346   H     0.35727   0.53868   0.31925   0.00000  Uiso   1.00
H347   H     0.61326   0.45078   0.40345   0.00000  Uiso   1.00
H348   H     0.63750   0.47923   0.47752   0.00000  Uiso   1.00
H349   H     0.46925   0.49087   0.08991   0.00000  Uiso   1.00
H350   H     0.38439   0.48166   0.41798   0.00000  Uiso   1.00
H351   H     0.41920   0.46012   0.06108   0.00000  Uiso   1.00
H352   H     0.36089   0.46313   0.01479   0.00000  Uiso   1.00
N353   N     0.38093   0.50001   0.25001   0.00000  Uiso   1.00
N354   N     0.61906   0.49998   0.25001   0.00000  Uiso   1.00
O355   O     0.46179   0.56108   0.25000   0.00000  Uiso   1.00
O356   O     0.53823   0.56107   0.25000   0.00000  Uiso   1.00
O357   O     0.44280   0.50000   0.32681   0.00000  Uiso   1.00
O358   O     0.51924   0.49999   0.32681   0.00000  Uiso   1.00
O359   O     0.46177   0.43893   0.24999   0.00000  Uiso   1.00
O360   O     0.53821   0.43892   0.24999   0.00000  Uiso   1.00
O361   O     0.48076   0.50001   0.17319   0.00000  Uiso   1.00
O362   O     0.55720   0.50000   0.17319   0.00000  Uiso   1.00
Zn363  Zn    0.44896   0.50001   0.25000   0.00000  Uiso   1.00
Zn364  Zn    0.55104   0.49999   0.25000   0.00000  Uiso   1.00
O365   O     0.62575   0.50300   0.07752   0.00000  Uiso   1.00
C366   C     0.63023   0.54687   0.08245   0.00000  Uiso   1.00
H367   H     0.64647   0.55273   0.11489   0.00000  Uiso   1.00
H368   H     0.59538   0.56327   0.09539   0.00000  Uiso   1.00
C369   C     0.66293   0.56551   0.02957   0.00000  Uiso   1.00
H370   H     0.36420   0.54910   0.01728   0.00000  Uiso   1.00
H371   H     0.64652   0.56133   0.49698   0.00000  Uiso   1.00
C372   C     0.33847   0.61201   0.03608   0.00000  Uiso   1.00
H373   H     0.63766   0.62919   0.04944   0.00000  Uiso   1.00
H374   H     0.36086   0.62488   0.49671   0.00000  Uiso   1.00
H375   H     0.35740   0.61676   0.06624   0.00000  Uiso   1.00
O376   O     0.60190   0.54570   0.32828   0.00000  Uiso   1.00
H377   H     0.57557   0.55365   0.31534   0.00000  Uiso   1.00
O378   O     0.55040   0.43362   0.35217   0.00000  Uiso   1.00
H379   H     0.58460   0.42653   0.33799   0.00000  Uiso   1.00
O380   O     0.58404   0.62545   0.19099   0.00000  Uiso   1.00
C381   C     0.61685   0.62287   0.22025   0.00000  Uiso   1.00
H382   H     0.63202   0.59092   0.21360   0.00000  Uiso   1.00
H383   H     0.60052   0.62684   0.26502   0.00000  Uiso   1.00
C384   C     0.65749   0.65444   0.19879   0.00000  Uiso   1.00
H385   H     0.33861   0.65187   0.15400   0.00000  Uiso   1.00
H386   H     0.64414   0.35334   0.20958   0.00000  Uiso   1.00
C387   C     0.36408   0.64684   0.22270   0.00000  Uiso   1.00
H388   H     0.35058   0.64986   0.26751   0.00000  Uiso   1.00
H389   H     0.39283   0.33697   0.20661   0.00000  Uiso   1.00
H390   H     0.37913   0.61512   0.21153   0.00000  Uiso   1.00
C391   C     0.83384   0.57997   0.24928   0.00000  Uiso   1.00
C392   C     0.81397   0.46774   0.48789   0.00000  Uiso   1.00
C393   C     0.82734   0.46563   0.43112   0.00000  Uiso   1.00
C394   C     0.84996   0.47396   0.01188   0.00000  Uiso   1.00
C395   C     0.89825   0.47073   0.48013   0.00000  Uiso   1.00
C396   C     0.90993   0.45736   0.42646   0.00000  Uiso   1.00
C397   C     0.87432   0.45304   0.40204   0.00000  Uiso   1.00
C398   C     0.83908   0.48651   0.06563   0.00000  Uiso   1.00
C399   C     0.92275   0.49380   0.05648   0.00000  Uiso   1.00
C400   C     0.79316   0.47724   0.40631   0.00000  Uiso   1.00
C401   C     0.87672   0.64599   0.22166   0.00000  Uiso   1.00
C402   C     0.80778   0.49333   0.35073   0.00000  Uiso   1.00
C403   C     0.87533   0.35562   0.22093   0.00000  Uiso   1.00
C404   C     0.83332   0.37604   0.24883   0.00000  Uiso   1.00
C405   C     0.79189   0.35444   0.27634   0.00000  Uiso   1.00
C406   C     0.79254   0.64495   0.27632   0.00000  Uiso   1.00
C407   C     0.83462   0.62422   0.24889   0.00000  Uiso   1.00
C408   C     0.98644   0.47814   0.21163   0.00000  Uiso   1.00
C409   C     0.70096   0.47825   0.21156   0.00000  Uiso   1.00
C410   C     0.68054   0.52135   0.28863   0.00000  Uiso   1.00
C411   C     0.96631   0.52203   0.28860   0.00000  Uiso   1.00
C412   C     0.83324   0.42009   0.24961   0.00000  Uiso   1.00
C413   C     0.85941   0.49998   0.14773   0.00000  Uiso   1.00
C414   C     0.93412   0.48070   0.00250   0.00000  Uiso   1.00
C415   C     0.87462   0.49451   0.08893   0.00000  Uiso   1.00
C416   C     0.74479   0.47572   0.43666   0.00000  Uiso   1.00
C417   C     0.73117   0.46662   0.49160   0.00000  Uiso   1.00
C418   C     0.76516   0.46484   0.01783   0.00000  Uiso   1.00
H419   H     0.90655   0.37306   0.19787   0.00000  Uiso   1.00
H420   H     0.75946   0.37063   0.29814   0.00000  Uiso   1.00
H421   H     0.76041   0.62803   0.29803   0.00000  Uiso   1.00
H422   H     0.97678   0.46064   0.18089   0.00000  Uiso   1.00
H423   H     0.72730   0.46078   0.18071   0.00000  Uiso   1.00
H424   H     0.69060   0.53868   0.31925   0.00000  Uiso   1.00
H425   H     0.94659   0.45078   0.40345   0.00000  Uiso   1.00
H426   H     0.97084   0.47923   0.47752   0.00000  Uiso   1.00
H427   H     0.80258   0.49087   0.08991   0.00000  Uiso   1.00
H428   H     0.71772   0.48166   0.41798   0.00000  Uiso   1.00
H429   H     0.75253   0.46012   0.06108   0.00000  Uiso   1.00
H430   H     0.69422   0.46313   0.01479   0.00000  Uiso   1.00
N431   N     0.71426   0.50001   0.25001   0.00000  Uiso   1.00
N432   N     0.95239   0.49998   0.25001   0.00000  Uiso   1.00
O433   O     0.79512   0.56108   0.25000   0.00000  Uiso   1.00
O434   O     0.87157   0.56107   0.25000   0.00000  Uiso   1.00
O435   O     0.77613   0.50000   0.32681   0.00000  Uiso   1.00
O436   O     0.85258   0.49999   0.32681   0.00000  Uiso   1.00
O437   O     0.79510   0.43893   0.24999   0.00000  Uiso   1.00
O438   O     0.87154   0.43892   0.24999   0.00000  Uiso   1.00
O439   O     0.81409   0.50001   0.17319   0.00000  Uiso   1.00
O440   O     0.89053   0.50000   0.17319   0.00000  Uiso   1.00
Zn441  Zn    0.78229   0.50001   0.25000   0.00000  Uiso   1.00
Zn442  Zn    0.88438   0.49999   0.25000   0.00000  Uiso   1.00
O443   O     0.95909   0.50300   0.07752   0.00000  Uiso   1.00
C444   C     0.96356   0.54687   0.08245   0.00000  Uiso   1.00
H445   H     0.97981   0.55273   0.11489   0.00000  Uiso   1.00
H446   H     0.92871   0.56327   0.09539   0.00000  Uiso   1.00
C447   C     0.99627   0.56551   0.02957   0.00000  Uiso   1.00
H448   H     0.69754   0.54910   0.01728   0.00000  Uiso   1.00
H449   H     0.97986   0.56133   0.49698   0.00000  Uiso   1.00
C450   C     0.67180   0.61201   0.03608   0.00000  Uiso   1.00
H451   H     0.97099   0.62919   0.04944   0.00000  Uiso   1.00
H452   H     0.69419   0.62488   0.49671   0.00000  Uiso   1.00
H453   H     0.69074   0.61676   0.06624   0.00000  Uiso   1.00
O454   O     0.93523   0.54570   0.32828   0.00000  Uiso   1.00
H455   H     0.90890   0.55365   0.31534   0.00000  Uiso   1.00
O456   O     0.88373   0.43362   0.35217   0.00000  Uiso   1.00
H457   H     0.91794   0.42653   0.33799   0.00000  Uiso   1.00
O458   O     0.91737   0.62545   0.19099   0.00000  Uiso   1.00
C459   C     0.95019   0.62287   0.22025   0.00000  Uiso   1.00
H460   H     0.96535   0.59092   0.21360   0.00000  Uiso   1.00
H461   H     0.93385   0.62684   0.26502   0.00000  Uiso   1.00
C462   C     0.99082   0.65444   0.19879   0.00000  Uiso   1.00
H463   H     0.67194   0.65187   0.15400   0.00000  Uiso   1.00
H464   H     0.97747   0.35334   0.20958   0.00000  Uiso   1.00
C465   C     0.69742   0.64684   0.22270   0.00000  Uiso   1.00
H466   H     0.68391   0.64986   0.26751   0.00000  Uiso   1.00
H467   H     0.72616   0.33697   0.20661   0.00000  Uiso   1.00
H468   H     0.71247   0.61512   0.21153   0.00000  Uiso   1.00
C469   C     0.16718   0.91330   0.24928   0.00000  Uiso   1.00
C470   C     0.14730   0.80107   0.48789   0.00000  Uiso   1.00
C471   C     0.16067   0.79896   0.43112   0.00000  Uiso   1.00
C472   C     0.18329   0.80730   0.01188   0.00000  Uiso   1.00
C473   C     0.23158   0.80407   0.48013   0.00000  Uiso   1.00
C474   C     0.24326   0.79069   0.42646   0.00000  Uiso   1.00
C475   C     0.20765   0.78637   0.40204   0.00000  Uiso   1.00
C476   C     0.17242   0.81984   0.06563   0.00000  Uiso   1.00
C477   C     0.25608   0.82713   0.05648   0.00000  Uiso   1.00
C478   C     0.12649   0.81058   0.40631   0.00000  Uiso   1.00
C479   C     0.21006   0.97932   0.22166   0.00000  Uiso   1.00
C480   C     0.14111   0.82666   0.35073   0.00000  Uiso   1.00
C481   C     0.20866   0.68896   0.22093   0.00000  Uiso   1.00
C482   C     0.16666   0.70937   0.24883   0.00000  Uiso   1.00
C483   C     0.12522   0.68777   0.27634   0.00000  Uiso   1.00
C484   C     0.12587   0.97829   0.27632   0.00000  Uiso   1.00
C485   C     0.16795   0.95755   0.24889   0.00000  Uiso   1.00
C486   C     0.31977   0.81148   0.21163   0.00000  Uiso   1.00
C487   C     0.03430   0.81158   0.21156   0.00000  Uiso   1.00
C488   C     0.01387   0.85468   0.28863   0.00000  Uiso   1.00
C489   C     0.29964   0.85536   0.28860   0.00000  Uiso   1.00
C490   C     0.16657   0.75343   0.24961   0.00000  Uiso   1.00
C491   C     0.19274   0.83332   0.14773   0.00000  Uiso   1.00
C492   C     0.26745   0.81404   0.00250   0.00000  Uiso   1.00
C493   C     0.20795   0.82784   0.08893   0.00000  Uiso   1.00
C494   C     0.07813   0.80905   0.43666   0.00000  Uiso   1.00
C495   C     0.06450   0.79995   0.49160   0.00000  Uiso   1.00
C496   C     0.09849   0.79817   0.01783   0.00000  Uiso   1.00
H497   H     0.23988   0.70639   0.19787   0.00000  Uiso   1.00
H498   H     0.09279   0.70396   0.29814   0.00000  Uiso   1.00
H499   H     0.09374   0.96137   0.29803   0.00000  Uiso   1.00
H500   H     0.31011   0.79397   0.18089   0.00000  Uiso   1.00
H501   H     0.06063   0.79412   0.18071   0.00000  Uiso   1.00
H502   H     0.02393   0.87201   0.31925   0.00000  Uiso   1.00
H503   H     0.27993   0.78412   0.40345   0.00000  Uiso   1.00
H504   H     0.30417   0.81256   0.47752   0.00000  Uiso   1.00
H505   H     0.13592   0.82421   0.08991   0.00000  Uiso   1.00
H506   H     0.05106   0.81499   0.41798   0.00000  Uiso   1.00
H507   H     0.08586   0.79346   0.06108   0.00000  Uiso   1.00
H508   H     0.02755   0.79646   0.01479   0.00000  Uiso   1.00
N509   N     0.04760   0.83334   0.25001   0.00000  Uiso   1.00
N510   N     0.28573   0.83331   0.25001   0.00000  Uiso   1.00
O511   O     0.12846   0.89442   0.25000   0.00000  Uiso   1.00
O512   O     0.20490   0.89441   0.25000   0.00000  Uiso   1.00
O513   O     0.10947   0.83333   0.32681   0.00000  Uiso   1.00
O514   O     0.18591   0.83332   0.32681   0.00000  Uiso   1.00
O515   O     0.12843   0.77226   0.24999   0.00000  Uiso   1.00
O516   O     0.20488   0.77225   0.24999   0.00000  Uiso   1.00
O517   O     0.14742   0.83335   0.17319   0.00000  Uiso   1.00
O518   O     0.22387   0.83334   0.17319   0.00000  Uiso   1.00
Zn519  Zn    0.11562   0.83334   0.25000   0.00000  Uiso   1.00
Zn520  Zn    0.21771   0.83333   0.25000   0.00000  Uiso   1.00
O521   O     0.29242   0.83633   0.07752   0.00000  Uiso   1.00
C522   C     0.29690   0.88020   0.08245   0.00000  Uiso   1.00
H523   H     0.31314   0.88607   0.11489   0.00000  Uiso   1.00
H524   H     0.26204   0.89660   0.09539   0.00000  Uiso   1.00
C525   C     0.32960   0.89884   0.02957   0.00000  Uiso   1.00
H526   H     0.03087   0.88243   0.01728   0.00000  Uiso   1.00
H527   H     0.31319   0.89467   0.49698   0.00000  Uiso   1.00
C528   C     0.00513   0.94534   0.03608   0.00000  Uiso   1.00
H529   H     0.30433   0.96252   0.04944   0.00000  Uiso   1.00
H530   H     0.02753   0.95821   0.49671   0.00000  Uiso   1.00
H531   H     0.02407   0.95009   0.06624   0.00000  Uiso   1.00
O532   O     0.26856   0.87903   0.32828   0.00000  Uiso   1.00
H533   H     0.24224   0.88698   0.31534   0.00000  Uiso   1.00
O534   O     0.21706   0.76695   0.35217   0.00000  Uiso   1.00
H535   H     0.25127   0.75986   0.33799   0.00000  Uiso   1.00
O536   O     0.25070   0.95878   0.19099   0.00000  Uiso   1.00
C537   C     0.28352   0.95621   0.22025   0.00000  Uiso   1.00
H538   H     0.29868   0.92426   0.21360   0.00000  Uiso   1.00
H539   H     0.26718   0.96017   0.26502   0.00000  Uiso   1.00
C540   C     0.32416   0.98778   0.19879   0.00000  Uiso   1.00
H541   H     0.00528   0.98521   0.15400   0.00000  Uiso   1.00
H542   H     0.31081   0.68667   0.20958   0.00000  Uiso   1.00
C543   C     0.03075   0.98017   0.22270   0.00000  Uiso   1.00
H544   H     0.01725   0.98320   0.26751   0.00000  Uiso   1.00
H545   H     0.05950   0.67030   0.20661   0.00000  Uiso   1.00
H546   H     0.04580   0.94845   0.21153   0.00000  Uiso   1.00
C547   C     0.50051   0.91330   0.24928   0.00000  Uiso   1.00
C548   C     0.48064   0.80107   0.48789   0.00000  Uiso   1.00
C549   C     0.49401   0.79896   0.43112   0.00000  Uiso   1.00
C550   C     0.51663   0.80730   0.01188   0.00000  Uiso   1.00
C551   C     0.56492   0.80407   0.48013   0.00000  Uiso   1.00
C552   C     0.57659   0.79069   0.42646   0.00000  Uiso   1.00
C553   C     0.54099   0.78637   0.40204   0.00000  Uiso   1.00
C554   C     0.50575   0.81984   0.06563   0.00000  Uiso   1.00
C555   C     0.58942   0.82713   0.05648   0.00000  Uiso   1.00
C556   C     0.45983   0.81058   0.40631   0.00000  Uiso   1.00
C557   C     0.54339   0.97932   0.22166   0.00000  Uiso   1.00
C558   C     0.47445   0.82666   0.35073   0.00000  Uiso   1.00
C559   C     0.54199   0.68896   0.22093   0.00000  Uiso   1.00
C560   C     0.49999   0.70937   0.24883   0.00000  Uiso   1.00
C561   C     0.45856   0.68777   0.27634   0.00000  Uiso   1.00
C562   C     0.45921   0.97829   0.27632   0.00000  Uiso   1.00
C563   C     0.50129   0.95755   0.24889   0.00000  Uiso   1.00
C564   C     0.65310   0.81148   0.21163   0.00000  Uiso   1.00
C565   C     0.36763   0.81158   0.21156   0.00000  Uiso   1.00
C566   C     0.34720   0.85468   0.28863   0.00000  Uiso   1.00
C567   C     0.63298   0.85536   0.28860   0.00000  Uiso   1.00
C568   C     0.49991   0.75343   0.24961   0.00000  Uiso   1.00
C569   C     0.52608   0.83332   0.14773   0.00000  Uiso   1.00
C570   C     0.60078   0.81404   0.00250   0.00000  Uiso   1.00
C571   C     0.54128   0.82784   0.08893   0.00000  Uiso   1.00
C572   C     0.41146   0.80905   0.43666   0.00000  Uiso   1.00
C573   C     0.39784   0.79995   0.49160   0.00000  Uiso   1.00
C574   C     0.43182   0.79817   0.01783   0.00000  Uiso   1.00
H575   H     0.57321   0.70639   0.19787   0.00000  Uiso   1.00
H576   H     0.42612   0.70396   0.29814   0.00000  Uiso   1.00
H577   H     0.42707   0.96137   0.29803   0.00000  Uiso   1.00
H578   H     0.64344   0.79397   0.18089   0.00000  Uiso   1.00
H579   H     0.39397   0.79412   0.18071   0.00000  Uiso   1.00
H580   H     0.35727   0.87201   0.31925   0.00000  Uiso   1.00
H581   H     0.61326   0.78412   0.40345   0.00000  Uiso   1.00
H582   H     0.63750   0.81256   0.47752   0.00000  Uiso   1.00
H583   H     0.46925   0.82421   0.08991   0.00000  Uiso   1.00
H584   H     0.38439   0.81499   0.41798   0.00000  Uiso   1.00
H585   H     0.41920   0.79346   0.06108   0.00000  Uiso   1.00
H586   H     0.36089   0.79646   0.01479   0.00000  Uiso   1.00
N587   N     0.38093   0.83334   0.25001   0.00000  Uiso   1.00
N588   N     0.61906   0.83331   0.25001   0.00000  Uiso   1.00
O589   O     0.46179   0.89442   0.25000   0.00000  Uiso   1.00
O590   O     0.53823   0.89441   0.25000   0.00000  Uiso   1.00
O591   O     0.44280   0.83333   0.32681   0.00000  Uiso   1.00
O592   O     0.51924   0.83332   0.32681   0.00000  Uiso   1.00
O593   O     0.46177   0.77226   0.24999   0.00000  Uiso   1.00
O594   O     0.53821   0.77225   0.24999   0.00000  Uiso   1.00
O595   O     0.48076   0.83335   0.17319   0.00000  Uiso   1.00
O596   O     0.55720   0.83334   0.17319   0.00000  Uiso   1.00
Zn597  Zn    0.44896   0.83334   0.25000   0.00000  Uiso   1.00
Zn598  Zn    0.55104   0.83333   0.25000   0.00000  Uiso   1.00
O599   O     0.62575   0.83633   0.07752   0.00000  Uiso   1.00
C600   C     0.63023   0.88020   0.08245   0.00000  Uiso   1.00
H601   H     0.64647   0.88607   0.11489   0.00000  Uiso   1.00
H602   H     0.59538   0.89660   0.09539   0.00000  Uiso   1.00
C603   C     0.66293   0.89884   0.02957   0.00000  Uiso   1.00
H604   H     0.36420   0.88243   0.01728   0.00000  Uiso   1.00
H605   H     0.64652   0.89467   0.49698   0.00000  Uiso   1.00
C606   C     0.33847   0.94534   0.03608   0.00000  Uiso   1.00
H607   H     0.63766   0.96252   0.04944   0.00000  Uiso   1.00
H608   H     0.36086   0.95821   0.49671   0.00000  Uiso   1.00
H609   H     0.35740   0.95009   0.06624   0.00000  Uiso   1.00
O610   O     0.60190   0.87903   0.32828   0.00000  Uiso   1.00
H611   H     0.57557   0.88698   0.31534   0.00000  Uiso   1.00
O612   O     0.55040   0.76695   0.35217   0.00000  Uiso   1.00
H613   H     0.58460   0.75986   0.33799   0.00000  Uiso   1.00
O614   O     0.58404   0.95878   0.19099   0.00000  Uiso   1.00
C615   C     0.61685   0.95621   0.22025   0.00000  Uiso   1.00
H616   H     0.63202   0.92426   0.21360   0.00000  Uiso   1.00
H617   H     0.60052   0.96017   0.26502   0.00000  Uiso   1.00
C618   C     0.65749   0.98778   0.19879   0.00000  Uiso   1.00
H619   H     0.33861   0.98521   0.15400   0.00000  Uiso   1.00
H620   H     0.64414   0.68667   0.20958   0.00000  Uiso   1.00
C621   C     0.36408   0.98017   0.22270   0.00000  Uiso   1.00
H622   H     0.35058   0.98320   0.26751   0.00000  Uiso   1.00
H623   H     0.39283   0.67030   0.20661   0.00000  Uiso   1.00
H624   H     0.37913   0.94845   0.21153   0.00000  Uiso   1.00
C625   C     0.83384   0.91330   0.24928   0.00000  Uiso   1.00
C626   C     0.81397   0.80107   0.48789   0.00000  Uiso   1.00
C627   C     0.82734   0.79896   0.43112   0.00000  Uiso   1.00
C628   C     0.84996   0.80730   0.01188   0.00000  Uiso   1.00
C629   C     0.89825   0.80407   0.48013   0.00000  Uiso   1.00
C630   C     0.90993   0.79069   0.42646   0.00000  Uiso   1.00
C631   C     0.87432   0.78637   0.40204   0.00000  Uiso   1.00
C632   C     0.83908   0.81984   0.06563   0.00000  Uiso   1.00
C633   C     0.92275   0.82713   0.05648   0.00000  Uiso   1.00
C634   C     0.79316   0.81058   0.40631   0.00000  Uiso   1.00
C635   C     0.87672   0.97932   0.22166   0.00000  Uiso   1.00
C636   C     0.80778   0.82666   0.35073   0.00000  Uiso   1.00
C637   C     0.87533   0.68896   0.22093   0.00000  Uiso   1.00
C638   C     0.83332   0.70937   0.24883   0.00000  Uiso   1.00
C639   C     0.79189   0.68777   0.27634   0.00000  Uiso   1.00
C640   C     0.79254   0.97829   0.27632   0.00000  Uiso   1.00
C641   C     0.83462   0.95755   0.24889   0.00000  Uiso   1.00
C642   C     0.98644   0.81148   0.21163   0.00000  Uiso   1.00
C643   C     0.70096   0.81158   0.21156   0.00000  Uiso   1.00
C644   C     0.68054   0.85468   0.28863   0.00000  Uiso   1.00
C645   C     0.96631   0.85536   0.28860   0.00000  Uiso   1.00
C646   C     0.83324   0.75343   0.24961   0.00000  Uiso   1.00
C647   C     0.85941   0.83332   0.14773   0.00000  Uiso   1.00
C648   C     0.93412   0.81404   0.00250   0.00000  Uiso   1.00
C649   C     0.87462   0.82784   0.08893   0.00000  Uiso   1.00
C650   C     0.74479   0.80905   0.43666   0.00000  Uiso   1.00
C651   C     0.73117   0.79995   0.49160   0.00000  Uiso   1.00
C652   C     0.76516   0.79817   0.01783   0.00000  Uiso   1.00
H653   H     0.90655   0.70639   0.19787   0.00000  Uiso   1.00
H654   H     0.75946   0.70396   0.29814   0.00000  Uiso   1.00
H655   H     0.76041   0.96137   0.29803   0.00000  Uiso   1.00
H656   H     0.97678   0.79397   0.18089   0.00000  Uiso   1.00
H657   H     0.72730   0.79412   0.18071   0.00000  Uiso   1.00
H658   H     0.69060   0.87201   0.31925   0.00000  Uiso   1.00
H659   H     0.94659   0.78412   0.40345   0.00000  Uiso   1.00
H660   H     0.97084   0.81256   0.47752   0.00000  Uiso   1.00
H661   H     0.80258   0.82421   0.08991   0.00000  Uiso   1.00
H662   H     0.71772   0.81499   0.41798   0.00000  Uiso   1.00
H663   H     0.75253   0.79346   0.06108   0.00000  Uiso   1.00
H664   H     0.69422   0.79646   0.01479   0.00000  Uiso   1.00
N665   N     0.71426   0.83334   0.25001   0.00000  Uiso   1.00
N666   N     0.95239   0.83331   0.25001   0.00000  Uiso   1.00
O667   O     0.79512   0.89442   0.25000   0.00000  Uiso   1.00
O668   O     0.87157   0.89441   0.25000   0.00000  Uiso   1.00
O669   O     0.77613   0.83333   0.32681   0.00000  Uiso   1.00
O670   O     0.85258   0.83332   0.32681   0.00000  Uiso   1.00
O671   O     0.79510   0.77226   0.24999   0.00000  Uiso   1.00
O672   O     0.87154   0.77225   0.24999   0.00000  Uiso   1.00
O673   O     0.81409   0.83335   0.17319   0.00000  Uiso   1.00
O674   O     0.89053   0.83334   0.17319   0.00000  Uiso   1.00
Zn675  Zn    0.78229   0.83334   0.25000   0.00000  Uiso   1.00
Zn676  Zn    0.88438   0.83333   0.25000   0.00000  Uiso   1.00
O677   O     0.95909   0.83633   0.07752   0.00000  Uiso   1.00
C678   C     0.96356   0.88020   0.08245   0.00000  Uiso   1.00
H679   H     0.97981   0.88607   0.11489   0.00000  Uiso   1.00
H680   H     0.92871   0.89660   0.09539   0.00000  Uiso   1.00
C681   C     0.99627   0.89884   0.02957   0.00000  Uiso   1.00
H682   H     0.69754   0.88243   0.01728   0.00000  Uiso   1.00
H683   H     0.97986   0.89467   0.49698   0.00000  Uiso   1.00
C684   C     0.67180   0.94534   0.03608   0.00000  Uiso   1.00
H685   H     0.97099   0.96252   0.04944   0.00000  Uiso   1.00
H686   H     0.69419   0.95821   0.49671   0.00000  Uiso   1.00
H687   H     0.69074   0.95009   0.06624   0.00000  Uiso   1.00
O688   O     0.93523   0.87903   0.32828   0.00000  Uiso   1.00
H689   H     0.90890   0.88698   0.31534   0.00000  Uiso   1.00
O690   O     0.88373   0.76695   0.35217   0.00000  Uiso   1.00
H691   H     0.91794   0.75986   0.33799   0.00000  Uiso   1.00
O692   O     0.91737   0.95878   0.19099   0.00000  Uiso   1.00
C693   C     0.95019   0.95621   0.22025   0.00000  Uiso   1.00
H694   H     0.96535   0.92426   0.21360   0.00000  Uiso   1.00
H695   H     0.93385   0.96017   0.26502   0.00000  Uiso   1.00
C696   C     0.99082   0.98778   0.19879   0.00000  Uiso   1.00
H697   H     0.67194   0.98521   0.15400   0.00000  Uiso   1.00
H698   H     0.97747   0.68667   0.20958   0.00000  Uiso   1.00
C699   C     0.69742   0.98017   0.22270   0.00000  Uiso   1.00
H700   H     0.68391   0.98320   0.26751   0.00000  Uiso   1.00
H701   H     0.72616   0.67030   0.20661   0.00000  Uiso   1.00
H702   H     0.71247   0.94845   0.21153   0.00000  Uiso   1.00
C703   C     0.16718   0.24663   0.74928   0.00000  Uiso   1.00
C704   C     0.14730   0.13440   0.98789   0.00000  Uiso   1.00
C705   C     0.16067   0.13230   0.93112   0.00000  Uiso   1.00
C706   C     0.18329   0.14063   0.51188   0.00000  Uiso   1.00
C707   C     0.23158   0.13740   0.98013   0.00000  Uiso   1.00
C708   C     0.24326   0.12402   0.92646   0.00000  Uiso   1.00
C709   C     0.20765   0.11970   0.90204   0.00000  Uiso   1.00
C710   C     0.17242   0.15317   0.56563   0.00000  Uiso   1.00
C711   C     0.25608   0.16047   0.55648   0.00000  Uiso   1.00
C712   C     0.12649   0.14391   0.90631   0.00000  Uiso   1.00
C713   C     0.21006   0.31265   0.72166   0.00000  Uiso   1.00
C714   C     0.14111   0.16000   0.85073   0.00000  Uiso   1.00
C715   C     0.20866   0.02229   0.72093   0.00000  Uiso   1.00
C716   C     0.16666   0.04270   0.74883   0.00000  Uiso   1.00
C717   C     0.12522   0.02110   0.77634   0.00000  Uiso   1.00
C718   C     0.12587   0.31162   0.77632   0.00000  Uiso   1.00
C719   C     0.16795   0.29088   0.74889   0.00000  Uiso   1.00
C720   C     0.31977   0.14481   0.71163   0.00000  Uiso   1.00
C721   C     0.03430   0.14491   0.71156   0.00000  Uiso   1.00
C722   C     0.01387   0.18802   0.78863   0.00000  Uiso   1.00
C723   C     0.29964   0.18869   0.78860   0.00000  Uiso   1.00
C724   C     0.16657   0.08676   0.74961   0.00000  Uiso   1.00
C725   C     0.19274   0.16665   0.64773   0.00000  Uiso   1.00
C726   C     0.26745   0.14737   0.50250   0.00000  Uiso   1.00
C727   C     0.20795   0.16118   0.58893   0.00000  Uiso   1.00
C728   C     0.07813   0.14238   0.93666   0.00000  Uiso   1.00
C729   C     0.06450   0.13329   0.99160   0.00000  Uiso   1.00
C730   C     0.09849   0.13151   0.51783   0.00000  Uiso   1.00
H731   H     0.23988   0.03973   0.69787   0.00000  Uiso   1.00
H732   H     0.09279   0.03730   0.79814   0.00000  Uiso   1.00
H733   H     0.09374   0.29470   0.79803   0.00000  Uiso   1.00
H734   H     0.31011   0.12731   0.68089   0.00000  Uiso   1.00
H735   H     0.06063   0.12745   0.68071   0.00000  Uiso   1.00
H736   H     0.02393   0.20535   0.81925   0.00000  Uiso   1.00
H737   H     0.27993   0.11745   0.90345   0.00000  Uiso   1.00
H738   H     0.30417   0.14589   0.97752   0.00000  Uiso   1.00
H739   H     0.13592   0.15754   0.58991   0.00000  Uiso   1.00
H740   H     0.05106   0.14832   0.91798   0.00000  Uiso   1.00
H741   H     0.08586   0.12679   0.56108   0.00000  Uiso   1.00
H742   H     0.02755   0.12980   0.51479   0.00000  Uiso   1.00
N743   N     0.04760   0.16668   0.75001   0.00000  Uiso   1.00
N744   N     0.28573   0.16665   0.75001   0.00000  Uiso   1.00
O745   O     0.12846   0.22775   0.75000   0.00000  Uiso   1.00
O746   O     0.20490   0.22774   0.75000   0.00000  Uiso   1.00
O747   O     0.10947   0.16666   0.82681   0.00000  Uiso   1.00
O748   O     0.18591   0.16665   0.82681   0.00000  Uiso   1.00
O749   O     0.12843   0.10559   0.74999   0.00000  Uiso   1.00
O750   O     0.20488   0.10558   0.74999   0.00000  Uiso   1.00
O751   O     0.14742   0.16668   0.67319   0.00000  Uiso   1.00
O752   O     0.22387   0.16667   0.67319   0.00000  Uiso   1.00
Zn753  Zn    0.11562   0.16667   0.75000   0.00000  Uiso   1.00
Zn754  Zn    0.21771   0.16666   0.75000   0.00000  Uiso   1.00
O755   O     0.29242   0.16966   0.57752   0.00000  Uiso   1.00
C756   C     0.29690   0.21353   0.58245   0.00000  Uiso   1.00
H757   H     0.31314   0.21940   0.61489   0.00000  Uiso   1.00
H758   H     0.26204   0.22994   0.59539   0.00000  Uiso   1.00
C759   C     0.32960   0.23217   0.52957   0.00000  Uiso   1.00
H760   H     0.03087   0.21576   0.51728   0.00000  Uiso   1.00
H761   H     0.31319   0.22800   0.99698   0.00000  Uiso   1.00
C762   C     0.00513   0.27868   0.53608   0.00000  Uiso   1.00
H763   H     0.30433   0.29586   0.54944   0.00000  Uiso   1.00
H764   H     0.02753   0.29155   0.99671   0.00000  Uiso   1.00
H765   H     0.02407   0.28343   0.56624   0.00000  Uiso   1.00
O766   O     0.26856   0.21236   0.82828   0.00000  Uiso   1.00
H767   H     0.24224   0.22032   0.81534   0.00000  Uiso   1.00
O768   O     0.21706   0.10029   0.85217   0.00000  Uiso   1.00
H769   H     0.25127   0.09320   0.83799   0.00000  Uiso   1.00
O770   O     0.25070   0.29211   0.69099   0.00000  Uiso   1.00
C771   C     0.28352   0.28954   0.72025   0.00000  Uiso   1.00
H772   H     0.29868   0.25759   0.71360   0.00000  Uiso   1.00
H773   H     0.26718   0.29350   0.76502   0.00000  Uiso   1.00
C774   C     0.32416   0.32111   0.69879   0.00000  Uiso   1.00
H775   H     0.00528   0.31854   0.65400   0.00000  Uiso   1.00
H776   H     0.31081   0.02000   0.70958   0.00000  Uiso   1.00
C777   C     0.03075   0.31350   0.72270   0.00000  Uiso   1.00
H778   H     0.01725   0.31653   0.76751   0.00000  Uiso   1.00
H779   H     0.05950   0.00364   0.70661   0.00000  Uiso   1.00
H780   H     0.04580   0.28178   0.71153   0.00000  Uiso   1.00
C781   C     0.50051   0.24663   0.74928   0.00000  Uiso   1.00
C782   C     0.48064   0.13440   0.98789   0.00000  Uiso   1.00
C783   C     0.49401   0.13230   0.93112   0.00000  Uiso   1.00
C784   C     0.51663   0.14063   0.51188   0.00000  Uiso   1.00
C785   C     0.56492   0.13740   0.98013   0.00000  Uiso   1.00
C786   C     0.57659   0.12402   0.92646   0.00000  Uiso   1.00
C787   C     0.54099   0.11970   0.90204   0.00000  Uiso   1.00
C788   C     0.50575   0.15317   0.56563   0.00000  Uiso   1.00
C789   C     0.58942   0.16047   0.55648   0.00000  Uiso   1.00
C790   C     0.45983   0.14391   0.90631   0.00000  Uiso   1.00
C791   C     0.54339   0.31265   0.72166   0.00000  Uiso   1.00
C792   C     0.47445   0.16000   0.85073   0.00000  Uiso   1.00
C793   C     0.54199   0.02229   0.72093   0.00000  Uiso   1.00
C794   C     0.49999   0.04270   0.74883   0.00000  Uiso   1.00
C795   C     0.45856   0.02110   0.77634   0.00000  Uiso   1.00
C796   C     0.45921   0.31162   0.77632   0.00000  Uiso   1.00
C797   C     0.50129   0.29088   0.74889   0.00000  Uiso   1.00
C798   C     0.65310   0.14481   0.71163   0.00000  Uiso   1.00
C799   C     0.36763   0.14491   0.71156   0.00000  Uiso   1.00
C800   C     0.34720   0.18802   0.78863   0.00000  Uiso   1.00
C801   C     0.63298   0.18869   0.78860   0.00000  Uiso   1.00
C802   C     0.49991   0.08676   0.74961   0.00000  Uiso   1.00
C803   C     0.52608   0.16665   0.64773   0.00000  Uiso   1.00
C804   C     0.60078   0.14737   0.50250   0.00000  Uiso   1.00
C805   C     0.54128   0.16118   0.58893   0.00000  Uiso   1.00
C806   C     0.41146   0.14238   0.93666   0.00000  Uiso   1.00
C807   C     0.39784   0.13329   0.99160   0.00000  Uiso   1.00
C808   C     0.43182   0.13151   0.51783   0.00000  Uiso   1.00
H809   H     0.57321   0.03973   0.69787   0.00000  Uiso   1.00
H810   H     0.42612   0.03730   0.79814   0.00000  Uiso   1.00
H811   H     0.42707   0.29470   0.79803   0.00000  Uiso   1.00
H812   H     0.64344   0.12731   0.68089   0.00000  Uiso   1.00
H813   H     0.39397   0.12745   0.68071   0.00000  Uiso   1.00
H814   H     0.35727   0.20535   0.81925   0.00000  Uiso   1.00
H815   H     0.61326   0.11745   0.90345   0.00000  Uiso   1.00
H816   H     0.63750   0.14589   0.97752   0.00000  Uiso   1.00
H817   H     0.46925   0.15754   0.58991   0.00000  Uiso   1.00
H818   H     0.38439   0.14832   0.91798   0.00000  Uiso   1.00
H819   H     0.41920   0.12679   0.56108   0.00000  Uiso   1.00
H820   H     0.36089   0.12980   0.51479   0.00000  Uiso   1.00
N821   N     0.38093   0.16668   0.75001   0.00000  Uiso   1.00
N822   N     0.61906   0.16665   0.75001   0.00000  Uiso   1.00
O823   O     0.46179   0.22775   0.75000   0.00000  Uiso   1.00
O824   O     0.53823   0.22774   0.75000   0.00000  Uiso   1.00
O825   O     0.44280   0.16666   0.82681   0.00000  Uiso   1.00
O826   O     0.51924   0.16665   0.82681   0.00000  Uiso   1.00
O827   O     0.46177   0.10559   0.74999   0.00000  Uiso   1.00
O828   O     0.53821   0.10558   0.74999   0.00000  Uiso   1.00
O829   O     0.48076   0.16668   0.67319   0.00000  Uiso   1.00
O830   O     0.55720   0.16667   0.67319   0.00000  Uiso   1.00
Zn831  Zn    0.44896   0.16667   0.75000   0.00000  Uiso   1.00
Zn832  Zn    0.55104   0.16666   0.75000   0.00000  Uiso   1.00
O833   O     0.62575   0.16966   0.57752   0.00000  Uiso   1.00
C834   C     0.63023   0.21353   0.58245   0.00000  Uiso   1.00
H835   H     0.64647   0.21940   0.61489   0.00000  Uiso   1.00
H836   H     0.59538   0.22994   0.59539   0.00000  Uiso   1.00
C837   C     0.66293   0.23217   0.52957   0.00000  Uiso   1.00
H838   H     0.36420   0.21576   0.51728   0.00000  Uiso   1.00
H839   H     0.64652   0.22800   0.99698   0.00000  Uiso   1.00
C840   C     0.33847   0.27868   0.53608   0.00000  Uiso   1.00
H841   H     0.63766   0.29586   0.54944   0.00000  Uiso   1.00
H842   H     0.36086   0.29155   0.99671   0.00000  Uiso   1.00
H843   H     0.35740   0.28343   0.56624   0.00000  Uiso   1.00
O844   O     0.60190   0.21236   0.82828   0.00000  Uiso   1.00
H845   H     0.57557   0.22032   0.81534   0.00000  Uiso   1.00
O846   O     0.55040   0.10029   0.85217   0.00000  Uiso   1.00
H847   H     0.58460   0.09320   0.83799   0.00000  Uiso   1.00
O848   O     0.58404   0.29211   0.69099   0.00000  Uiso   1.00
C849   C     0.61685   0.28954   0.72025   0.00000  Uiso   1.00
H850   H     0.63202   0.25759   0.71360   0.00000  Uiso   1.00
H851   H     0.60052   0.29350   0.76502   0.00000  Uiso   1.00
C852   C     0.65749   0.32111   0.69879   0.00000  Uiso   1.00
H853   H     0.33861   0.31854   0.65400   0.00000  Uiso   1.00
H854   H     0.64414   0.02000   0.70958   0.00000  Uiso   1.00
C855   C     0.36408   0.31350   0.72270   0.00000  Uiso   1.00
H856   H     0.35058   0.31653   0.76751   0.00000  Uiso   1.00
H857   H     0.39283   0.00364   0.70661   0.00000  Uiso   1.00
H858   H     0.37913   0.28178   0.71153   0.00000  Uiso   1.00
C859   C     0.83384   0.24663   0.74928   0.00000  Uiso   1.00
C860   C     0.81397   0.13440   0.98789   0.00000  Uiso   1.00
C861   C     0.82734   0.13230   0.93112   0.00000  Uiso   1.00
C862   C     0.84996   0.14063   0.51188   0.00000  Uiso   1.00
C863   C     0.89825   0.13740   0.98013   0.00000  Uiso   1.00
C864   C     0.90993   0.12402   0.92646   0.00000  Uiso   1.00
C865   C     0.87432   0.11970   0.90204   0.00000  Uiso   1.00
C866   C     0.83908   0.15317   0.56563   0.00000  Uiso   1.00
C867   C     0.92275   0.16047   0.55648   0.00000  Uiso   1.00
C868   C     0.79316   0.14391   0.90631   0.00000  Uiso   1.00
C869   C     0.87672   0.31265   0.72166   0.00000  Uiso   1.00
C870   C     0.80778   0.16000   0.85073   0.00000  Uiso   1.00
C871   C     0.87533   0.02229   0.72093   0.00000  Uiso   1.00
C872   C     0.83332   0.04270   0.74883   0.00000  Uiso   1.00
C873   C     0.79189   0.02110   0.77634   0.00000  Uiso   1.00
C874   C     0.79254   0.31162   0.77632   0.00000  Uiso   1.00
C875   C     0.83462   0.29088   0.74889   0.00000  Uiso   1.00
C876   C     0.98644   0.14481   0.71163   0.00000  Uiso   1.00
C877   C     0.70096   0.14491   0.71156   0.00000  Uiso   1.00
C878   C     0.68054   0.18802   0.78863   0.00000  Uiso   1.00
C879   C     0.96631   0.18869   0.78860   0.00000  Uiso   1.00
C880   C     0.83324   0.08676   0.74961   0.00000  Uiso   1.00
C881   C     0.85941   0.16665   0.64773   0.00000  Uiso   1.00
C882   C     0.93412   0.14737   0.50250   0.00000  Uiso   1.00
C883   C     0.87462   0.16118   0.58893   0.00000  Uiso   1.00
C884   C     0.74479   0.14238   0.93666   0.00000  Uiso   1.00
C885   C     0.73117   0.13329   0.99160   0.00000  Uiso   1.00
C886   C     0.76516   0.13151   0.51783   0.00000  Uiso   1.00
H887   H     0.90655   0.03973   0.69787   0.00000  Uiso   1.00
H888   H     0.75946   0.03730   0.79814   0.00000  Uiso   1.00
H889   H     0.76041   0.29470   0.79803   0.00000  Uiso   1.00
H890   H     0.97678   0.12731   0.68089   0.00000  Uiso   1.00
H891   H     0.72730   0.12745   0.68071   0.00000  Uiso   1.00
H892   H     0.69060   0.20535   0.81925   0.00000  Uiso   1.00
H893   H     0.94659   0.11745   0.90345   0.00000  Uiso   1.00
H894   H     0.97084   0.14589   0.97752   0.00000  Uiso   1.00
H895   H     0.80258   0.15754   0.58991   0.00000  Uiso   1.00
H896   H     0.71772   0.14832   0.91798   0.00000  Uiso   1.00
H897   H     0.75253   0.12679   0.56108   0.00000  Uiso   1.00
H898   H     0.69422   0.12980   0.51479   0.00000  Uiso   1.00
N899   N     0.71426   0.16668   0.75001   0.00000  Uiso   1.00
N900   N     0.95239   0.16665   0.75001   0.00000  Uiso   1.00
O901   O     0.79512   0.22775   0.75000   0.00000  Uiso   1.00
O902   O     0.87157   0.22774   0.75000   0.00000  Uiso   1.00
O903   O     0.77613   0.16666   0.82681   0.00000  Uiso   1.00
O904   O     0.85258   0.16665   0.82681   0.00000  Uiso   1.00
O905   O     0.79510   0.10559   0.74999   0.00000  Uiso   1.00
O906   O     0.87154   0.10558   0.74999   0.00000  Uiso   1.00
O907   O     0.81409   0.16668   0.67319   0.00000  Uiso   1.00
O908   O     0.89053   0.16667   0.67319   0.00000  Uiso   1.00
Zn909  Zn    0.78229   0.16667   0.75000   0.00000  Uiso   1.00
Zn910  Zn    0.88438   0.16666   0.75000   0.00000  Uiso   1.00
O911   O     0.95909   0.16966   0.57752   0.00000  Uiso   1.00
C912   C     0.96356   0.21353   0.58245   0.00000  Uiso   1.00
H913   H     0.97981   0.21940   0.61489   0.00000  Uiso   1.00
H914   H     0.92871   0.22994   0.59539   0.00000  Uiso   1.00
C915   C     0.99627   0.23217   0.52957   0.00000  Uiso   1.00
H916   H     0.69754   0.21576   0.51728   0.00000  Uiso   1.00
H917   H     0.97986   0.22800   0.99698   0.00000  Uiso   1.00
C918   C     0.67180   0.27868   0.53608   0.00000  Uiso   1.00
H919   H     0.97099   0.29586   0.54944   0.00000  Uiso   1.00
H920   H     0.69419   0.29155   0.99671   0.00000  Uiso   1.00
H921   H     0.69074   0.28343   0.56624   0.00000  Uiso   1.00
O922   O     0.93523   0.21236   0.82828   0.00000  Uiso   1.00
H923   H     0.90890   0.22032   0.81534   0.00000  Uiso   1.00
O924   O     0.88373   0.10029   0.85217   0.00000  Uiso   1.00
H925   H     0.91794   0.09320   0.83799   0.00000  Uiso   1.00
O926   O     0.91737   0.29211   0.69099   0.00000  Uiso   1.00
C927   C     0.95019   0.28954   0.72025   0.00000  Uiso   1.00
H928   H     0.96535   0.25759   0.71360   0.00000  Uiso   1.00
H929   H     0.93385   0.29350   0.76502   0.00000  Uiso   1.00
C930   C     0.99082   0.32111   0.69879   0.00000  Uiso   1.00
H931   H     0.67194   0.31854   0.65400   0.00000  Uiso   1.00
H932   H     0.97747   0.02000   0.70958   0.00000  Uiso   1.00
C933   C     0.69742   0.31350   0.72270   0.00000  Uiso   1.00
H934   H     0.68391   0.31653   0.76751   0.00000  Uiso   1.00
H935   H     0.72616   0.00364   0.70661   0.00000  Uiso   1.00
H936   H     0.71247   0.28178   0.71153   0.00000  Uiso   1.00
C937   C     0.16718   0.57997   0.74928   0.00000  Uiso   1.00
C938   C     0.14730   0.46774   0.98789   0.00000  Uiso   1.00
C939   C     0.16067   0.46563   0.93112   0.00000  Uiso   1.00
C940   C     0.18329   0.47396   0.51188   0.00000  Uiso   1.00
C941   C     0.23158   0.47073   0.98013   0.00000  Uiso   1.00
C942   C     0.24326   0.45736   0.92646   0.00000  Uiso   1.00
C943   C     0.20765   0.45304   0.90204   0.00000  Uiso   1.00
C944   C     0.17242   0.48651   0.56563   0.00000  Uiso   1.00
C945   C     0.25608   0.49380   0.55648   0.00000  Uiso   1.00
C946   C     0.12649   0.47724   0.90631   0.00000  Uiso   1.00
C947   C     0.21006   0.64599   0.72166   0.00000  Uiso   1.00
C948   C     0.14111   0.49333   0.85073   0.00000  Uiso   1.00
C949   C     0.20866   0.35562   0.72093   0.00000  Uiso   1.00
C950   C     0.16666   0.37604   0.74883   0.00000  Uiso   1.00
C951   C     0.12522   0.35444   0.77634   0.00000  Uiso   1.00
C952   C     0.12587   0.64495   0.77632   0.00000  Uiso   1.00
C953   C     0.16795   0.62422   0.74889   0.00000  Uiso   1.00
C954   C     0.31977   0.47814   0.71163   0.00000  Uiso   1.00
C955   C     0.03430   0.47825   0.71156   0.00000  Uiso   1.00
C956   C     0.01387   0.52135   0.78863   0.00000  Uiso   1.00
C957   C     0.29964   0.52203   0.78860   0.00000  Uiso   1.00
C958   C     0.16657   0.42009   0.74961   0.00000  Uiso   1.00
C959   C     0.19274   0.49998   0.64773   0.00000  Uiso   1.00
C960   C     0.26745   0.48070   0.50250   0.00000  Uiso   1.00
C961   C     0.20795   0.49451   0.58893   0.00000  Uiso   1.00
C962   C     0.07813   0.47572   0.93666   0.00000  Uiso   1.00
C963   C     0.06450   0.46662   0.99160   0.00000  Uiso   1.00
C964   C     0.09849   0.46484   0.51783   0.00000  Uiso   1.00
H965   H     0.23988   0.37306   0.69787   0.00000  Uiso   1.00
H966   H     0.09279   0.37063   0.79814   0.00000  Uiso   1.00
H967   H     0.09374   0.62803   0.79803   0.00000  Uiso   1.00
H968   H     0.31011   0.46064   0.68089   0.00000  Uiso   1.00
H969   H     0.06063   0.46078   0.68071   0.00000  Uiso   1.00
H970   H     0.02393   0.53868   0.81925   0.00000  Uiso   1.00
H971   H     0.27993   0.45078   0.90345   0.00000  Uiso   1.00
H972   H     0.30417   0.47923   0.97752   0.00000  Uiso   1.00
H973   H     0.13592   0.49087   0.58991   0.00000  Uiso   1.00
H974   H     0.05106   0.48166   0.91798   0.00000  Uiso   1.00
H975   H     0.08586   0.46012   0.56108   0.00000  Uiso   1.00
H976   H     0.02755   0.46313   0.51479   0.00000  Uiso   1.00
N977   N     0.04760   0.50001   0.75001   0.00000  Uiso   1.00
N978   N     0.28573   0.49998   0.75001   0.00000  Uiso   1.00
O979   O     0.12846   0.56108   0.75000   0.00000  Uiso   1.00
O980   O     0.20490   0.56107   0.75000   0.00000  Uiso   1.00
O981   O     0.10947   0.50000   0.82681   0.00000  Uiso   1.00
O982   O     0.18591   0.49999   0.82681   0.00000  Uiso   1.00
O983   O     0.12843   0.43893   0.74999   0.00000  Uiso   1.00
O984   O     0.20488   0.43892   0.74999   0.00000  Uiso   1.00
O985   O     0.14742   0.50001   0.67319   0.00000  Uiso   1.00
O986   O     0.22387   0.50000   0.67319   0.00000  Uiso   1.00
Zn987  Zn    0.11562   0.50001   0.75000   0.00000  Uiso   1.00
Zn988  Zn    0.21771   0.49999   0.75000   0.00000  Uiso   1.00
O989   O     0.29242   0.50300   0.57752   0.00000  Uiso   1.00
C990   C     0.29690   0.54687   0.58245   0.00000  Uiso   1.00
H991   H     0.31314   0.55273   0.61489   0.00000  Uiso   1.00
H992   H     0.26204   0.56327   0.59539   0.00000  Uiso   1.00
C993   C     0.32960   0.56551   0.52957   0.00000  Uiso   1.00
H994   H     0.03087   0.54910   0.51728   0.00000  Uiso   1.00
H995   H     0.31319   0.56133   0.99698   0.00000  Uiso   1.00
C996   C     0.00513   0.61201   0.53608   0.00000  Uiso   1.00
H997   H     0.30433   0.62919   0.54944   0.00000  Uiso   1.00
H998   H     0.02753   0.62488   0.99671   0.00000  Uiso   1.00
H999   H     0.02407   0.61676   0.56624   0.00000  Uiso   1.00
O1000  O     0.26856   0.54570   0.82828   0.00000  Uiso   1.00
H1001  H     0.24224   0.55365   0.81534   0.00000  Uiso   1.00
O1002  O     0.21706   0.43362   0.85217   0.00000  Uiso   1.00
H1003  H     0.25127   0.42653   0.83799   0.00000  Uiso   1.00
O1004  O     0.25070   0.62545   0.69099   0.00000  Uiso   1.00
C1005  C     0.28352   0.62287   0.72025   0.00000  Uiso   1.00
H1006  H     0.29868   0.59092   0.71360   0.00000  Uiso   1.00
H1007  H     0.26718   0.62684   0.76502   0.00000  Uiso   1.00
C1008  C     0.32416   0.65444   0.69879   0.00000  Uiso   1.00
H1009  H     0.00528   0.65187   0.65400   0.00000  Uiso   1.00
H1010  H     0.31081   0.35334   0.70958   0.00000  Uiso   1.00
C1011  C     0.03075   0.64684   0.72270   0.00000  Uiso   1.00
H1012  H     0.01725   0.64986   0.76751   0.00000  Uiso   1.00
H1013  H     0.05950   0.33697   0.70661   0.00000  Uiso   1.00
H1014  H     0.04580   0.61512   0.71153   0.00000  Uiso   1.00
C1015  C     0.50051   0.57997   0.74928   0.00000  Uiso   1.00
C1016  C     0.48064   0.46774   0.98789   0.00000  Uiso   1.00
C1017  C     0.49401   0.46563   0.93112   0.00000  Uiso   1.00
C1018  C     0.51663   0.47396   0.51188   0.00000  Uiso   1.00
C1019  C     0.56492   0.47073   0.98013   0.00000  Uiso   1.00
C1020  C     0.57659   0.45736   0.92646   0.00000  Uiso   1.00
C1021  C     0.54099   0.45304   0.90204   0.00000  Uiso   1.00
C1022  C     0.50575   0.48651   0.56563   0.00000  Uiso   1.00
C1023  C     0.58942   0.49380   0.55648   0.00000  Uiso   1.00
C1024  C     0.45983   0.47724   0.90631   0.00000  Uiso   1.00
C1025  C     0.54339   0.64599   0.72166   0.00000  Uiso   1.00
C1026  C     0.47445   0.49333   0.85073   0.00000  Uiso   1.00
C1027  C     0.54199   0.35562   0.72093   0.00000  Uiso   1.00
C1028  C     0.49999   0.37604   0.74883   0.00000  Uiso   1.00
C1029  C     0.45856   0.35444   0.77634   0.00000  Uiso   1.00
C1030  C     0.45921   0.64495   0.77632   0.00000  Uiso   1.00
C1031  C     0.50129   0.62422   0.74889   0.00000  Uiso   1.00
C1032  C     0.65310   0.47814   0.71163   0.00000  Uiso   1.00
C1033  C     0.36763   0.47825   0.71156   0.00000  Uiso   1.00
C1034  C     0.34720   0.52135   0.78863   0.00000  Uiso   1.00
C1035  C     0.63298   0.52203   0.78860   0.00000  Uiso   1.00
C1036  C     0.49991   0.42009   0.74961   0.00000  Uiso   1.00
C1037  C     0.52608   0.49998   0.64773   0.00000  Uiso   1.00
C1038  C     0.60078   0.48070   0.50250   0.00000  Uiso   1.00
C1039  C     0.54128   0.49451   0.58893   0.00000  Uiso   1.00
C1040  C     0.41146   0.47572   0.93666   0.00000  Uiso   1.00
C1041  C     0.39784   0.46662   0.99160   0.00000  Uiso   1.00
C1042  C     0.43182   0.46484   0.51783   0.00000  Uiso   1.00
H1043  H     0.57321   0.37306   0.69787   0.00000  Uiso   1.00
H1044  H     0.42612   0.37063   0.79814   0.00000  Uiso   1.00
H1045  H     0.42707   0.62803   0.79803   0.00000  Uiso   1.00
H1046  H     0.64344   0.46064   0.68089   0.00000  Uiso   1.00
H1047  H     0.39397   0.46078   0.68071   0.00000  Uiso   1.00
H1048  H     0.35727   0.53868   0.81925   0.00000  Uiso   1.00
H1049  H     0.61326   0.45078   0.90345   0.00000  Uiso   1.00
H1050  H     0.63750   0.47923   0.97752   0.00000  Uiso   1.00
H1051  H     0.46925   0.49087   0.58991   0.00000  Uiso   1.00
H1052  H     0.38439   0.48166   0.91798   0.00000  Uiso   1.00
H1053  H     0.41920   0.46012   0.56108   0.00000  Uiso   1.00
H1054  H     0.36089   0.46313   0.51479   0.00000  Uiso   1.00
N1055  N     0.38093   0.50001   0.75001   0.00000  Uiso   1.00
N1056  N     0.61906   0.49998   0.75001   0.00000  Uiso   1.00
O1057  O     0.46179   0.56108   0.75000   0.00000  Uiso   1.00
O1058  O     0.53823   0.56107   0.75000   0.00000  Uiso   1.00
O1059  O     0.44280   0.50000   0.82681   0.00000  Uiso   1.00
O1060  O     0.51924   0.49999   0.82681   0.00000  Uiso   1.00
O1061  O     0.46177   0.43893   0.74999   0.00000  Uiso   1.00
O1062  O     0.53821   0.43892   0.74999   0.00000  Uiso   1.00
O1063  O     0.48076   0.50001   0.67319   0.00000  Uiso   1.00
O1064  O     0.55720   0.50000   0.67319   0.00000  Uiso   1.00
Zn1065 Zn    0.44896   0.50001   0.75000   0.00000  Uiso   1.00
Zn1066 Zn    0.55104   0.49999   0.75000   0.00000  Uiso   1.00
O1067  O     0.62575   0.50300   0.57752   0.00000  Uiso   1.00
C1068  C     0.63023   0.54687   0.58245   0.00000  Uiso   1.00
H1069  H     0.64647   0.55273   0.61489   0.00000  Uiso   1.00
H1070  H     0.59538   0.56327   0.59539   0.00000  Uiso   1.00
C1071  C     0.66293   0.56551   0.52957   0.00000  Uiso   1.00
H1072  H     0.36420   0.54910   0.51728   0.00000  Uiso   1.00
H1073  H     0.64652   0.56133   0.99698   0.00000  Uiso   1.00
C1074  C     0.33847   0.61201   0.53608   0.00000  Uiso   1.00
H1075  H     0.63766   0.62919   0.54944   0.00000  Uiso   1.00
H1076  H     0.36086   0.62488   0.99671   0.00000  Uiso   1.00
H1077  H     0.35740   0.61676   0.56624   0.00000  Uiso   1.00
O1078  O     0.60190   0.54570   0.82828   0.00000  Uiso   1.00
H1079  H     0.57557   0.55365   0.81534   0.00000  Uiso   1.00
O1080  O     0.55040   0.43362   0.85217   0.00000  Uiso   1.00
H1081  H     0.58460   0.42653   0.83799   0.00000  Uiso   1.00
O1082  O     0.58404   0.62545   0.69099   0.00000  Uiso   1.00
C1083  C     0.61685   0.62287   0.72025   0.00000  Uiso   1.00
H1084  H     0.63202   0.59092   0.71360   0.00000  Uiso   1.00
H1085  H     0.60052   0.62684   0.76502   0.00000  Uiso   1.00
C1086  C     0.65749   0.65444   0.69879   0.00000  Uiso   1.00
H1087  H     0.33861   0.65187   0.65400   0.00000  Uiso   1.00
H1088  H     0.64414   0.35334   0.70958   0.00000  Uiso   1.00
C1089  C     0.36408   0.64684   0.72270   0.00000  Uiso   1.00
H1090  H     0.35058   0.64986   0.76751   0.00000  Uiso   1.00
H1091  H     0.39283   0.33697   0.70661   0.00000  Uiso   1.00
H1092  H     0.37913   0.61512   0.71153   0.00000  Uiso   1.00
C1093  C     0.83384   0.57997   0.74928   0.00000  Uiso   1.00
C1094  C     0.81397   0.46774   0.98789   0.00000  Uiso   1.00
C1095  C     0.82734   0.46563   0.93112   0.00000  Uiso   1.00
C1096  C     0.84996   0.47396   0.51188   0.00000  Uiso   1.00
C1097  C     0.89825   0.47073   0.98013   0.00000  Uiso   1.00
C1098  C     0.90993   0.45736   0.92646   0.00000  Uiso   1.00
C1099  C     0.87432   0.45304   0.90204   0.00000  Uiso   1.00
C1100  C     0.83908   0.48651   0.56563   0.00000  Uiso   1.00
C1101  C     0.92275   0.49380   0.55648   0.00000  Uiso   1.00
C1102  C     0.79316   0.47724   0.90631   0.00000  Uiso   1.00
C1103  C     0.87672   0.64599   0.72166   0.00000  Uiso   1.00
C1104  C     0.80778   0.49333   0.85073   0.00000  Uiso   1.00
C1105  C     0.87533   0.35562   0.72093   0.00000  Uiso   1.00
C1106  C     0.83332   0.37604   0.74883   0.00000  Uiso   1.00
C1107  C     0.79189   0.35444   0.77634   0.00000  Uiso   1.00
C1108  C     0.79254   0.64495   0.77632   0.00000  Uiso   1.00
C1109  C     0.83462   0.62422   0.74889   0.00000  Uiso   1.00
C1110  C     0.98644   0.47814   0.71163   0.00000  Uiso   1.00
C1111  C     0.70096   0.47825   0.71156   0.00000  Uiso   1.00
C1112  C     0.68054   0.52135   0.78863   0.00000  Uiso   1.00
C1113  C     0.96631   0.52203   0.78860   0.00000  Uiso   1.00
C1114  C     0.83324   0.42009   0.74961   0.00000  Uiso   1.00
C1115  C     0.85941   0.49998   0.64773   0.00000  Uiso   1.00
C1116  C     0.93412   0.48070   0.50250   0.00000  Uiso   1.00
C1117  C     0.87462   0.49451   0.58893   0.00000  Uiso   1.00
C1118  C     0.74479   0.47572   0.93666   0.00000  Uiso   1.00
C1119  C     0.73117   0.46662   0.99160   0.00000  Uiso   1.00
C1120  C     0.76516   0.46484   0.51783   0.00000  Uiso   1.00
H1121  H     0.90655   0.37306   0.69787   0.00000  Uiso   1.00
H1122  H     0.75946   0.37063   0.79814   0.00000  Uiso   1.00
H1123  H     0.76041   0.62803   0.79803   0.00000  Uiso   1.00
H1124  H     0.97678   0.46064   0.68089   0.00000  Uiso   1.00
H1125  H     0.72730   0.46078   0.68071   0.00000  Uiso   1.00
H1126  H     0.69060   0.53868   0.81925   0.00000  Uiso   1.00
H1127  H     0.94659   0.45078   0.90345   0.00000  Uiso   1.00
H1128  H     0.97084   0.47923   0.97752   0.00000  Uiso   1.00
H1129  H     0.80258   0.49087   0.58991   0.00000  Uiso   1.00
H1130  H     0.71772   0.48166   0.91798   0.00000  Uiso   1.00
H1131  H     0.75253   0.46012   0.56108   0.00000  Uiso   1.00
H1132  H     0.69422   0.46313   0.51479   0.00000  Uiso   1.00
N1133  N     0.71426   0.50001   0.75001   0.00000  Uiso   1.00
N1134  N     0.95239   0.49998   0.75001   0.00000  Uiso   1.00
O1135  O     0.79512   0.56108   0.75000   0.00000  Uiso   1.00
O1136  O     0.87157   0.56107   0.75000   0.00000  Uiso   1.00
O1137  O     0.77613   0.50000   0.82681   0.00000  Uiso   1.00
O1138  O     0.85258   0.49999   0.82681   0.00000  Uiso   1.00
O1139  O     0.79510   0.43893   0.74999   0.00000  Uiso   1.00
O1140  O     0.87154   0.43892   0.74999   0.00000  Uiso   1.00
O1141  O     0.81409   0.50001   0.67319   0.00000  Uiso   1.00
O1142  O     0.89053   0.50000   0.67319   0.00000  Uiso   1.00
Zn1143 Zn    0.78229   0.50001   0.75000   0.00000  Uiso   1.00
Zn1144 Zn    0.88438   0.49999   0.75000   0.00000  Uiso   1.00
O1145  O     0.95909   0.50300   0.57752   0.00000  Uiso   1.00
C1146  C     0.96356   0.54687   0.58245   0.00000  Uiso   1.00
H1147  H     0.97981   0.55273   0.61489   0.00000  Uiso   1.00
H1148  H     0.92871   0.56327   0.59539   0.00000  Uiso   1.00
C1149  C     0.99627   0.56551   0.52957   0.00000  Uiso   1.00
H1150  H     0.69754   0.54910   0.51728   0.00000  Uiso   1.00
H1151  H     0.97986   0.56133   0.99698   0.00000  Uiso   1.00
C1152  C     0.67180   0.61201   0.53608   0.00000  Uiso   1.00
H1153  H     0.97099   0.62919   0.54944   0.00000  Uiso   1.00
H1154  H     0.69419   0.62488   0.99671   0.00000  Uiso   1.00
H1155  H     0.69074   0.61676   0.56624   0.00000  Uiso   1.00
O1156  O     0.93523   0.54570   0.82828   0.00000  Uiso   1.00
H1157  H     0.90890   0.55365   0.81534   0.00000  Uiso   1.00
O1158  O     0.88373   0.43362   0.85217   0.00000  Uiso   1.00
H1159  H     0.91794   0.42653   0.83799   0.00000  Uiso   1.00
O1160  O     0.91737   0.62545   0.69099   0.00000  Uiso   1.00
C1161  C     0.95019   0.62287   0.72025   0.00000  Uiso   1.00
H1162  H     0.96535   0.59092   0.71360   0.00000  Uiso   1.00
H1163  H     0.93385   0.62684   0.76502   0.00000  Uiso   1.00
C1164  C     0.99082   0.65444   0.69879   0.00000  Uiso   1.00
H1165  H     0.67194   0.65187   0.65400   0.00000  Uiso   1.00
H1166  H     0.97747   0.35334   0.70958   0.00000  Uiso   1.00
C1167  C     0.69742   0.64684   0.72270   0.00000  Uiso   1.00
H1168  H     0.68391   0.64986   0.76751   0.00000  Uiso   1.00
H1169  H     0.72616   0.33697   0.70661   0.00000  Uiso   1.00
H1170  H     0.71247   0.61512   0.71153   0.00000  Uiso   1.00
C1171  C     0.16718   0.91330   0.74928   0.00000  Uiso   1.00
C1172  C     0.14730   0.80107   0.98789   0.00000  Uiso   1.00
C1173  C     0.16067   0.79896   0.93112   0.00000  Uiso   1.00
C1174  C     0.18329   0.80730   0.51188   0.00000  Uiso   1.00
C1175  C     0.23158   0.80407   0.98013   0.00000  Uiso   1.00
C1176  C     0.24326   0.79069   0.92646   0.00000  Uiso   1.00
C1177  C     0.20765   0.78637   0.90204   0.00000  Uiso   1.00
C1178  C     0.17242   0.81984   0.56563   0.00000  Uiso   1.00
C1179  C     0.25608   0.82713   0.55648   0.00000  Uiso   1.00
C1180  C     0.12649   0.81058   0.90631   0.00000  Uiso   1.00
C1181  C     0.21006   0.97932   0.72166   0.00000  Uiso   1.00
C1182  C     0.14111   0.82666   0.85073   0.00000  Uiso   1.00
C1183  C     0.20866   0.68896   0.72093   0.00000  Uiso   1.00
C1184  C     0.16666   0.70937   0.74883   0.00000  Uiso   1.00
C1185  C     0.12522   0.68777   0.77634   0.00000  Uiso   1.00
C1186  C     0.12587   0.97829   0.77632   0.00000  Uiso   1.00
C1187  C     0.16795   0.95755   0.74889   0.00000  Uiso   1.00
C1188  C     0.31977   0.81148   0.71163   0.00000  Uiso   1.00
C1189  C     0.03430   0.81158   0.71156   0.00000  Uiso   1.00
C1190  C     0.01387   0.85468   0.78863   0.00000  Uiso   1.00
C1191  C     0.29964   0.85536   0.78860   0.00000  Uiso   1.00
C1192  C     0.16657   0.75343   0.74961   0.00000  Uiso   1.00
C1193  C     0.19274   0.83332   0.64773   0.00000  Uiso   1.00
C1194  C     0.26745   0.81404   0.50250   0.00000  Uiso   1.00
C1195  C     0.20795   0.82784   0.58893   0.00000  Uiso   1.00
C1196  C     0.07813   0.80905   0.93666   0.00000  Uiso   1.00
C1197  C     0.06450   0.79995   0.99160   0.00000  Uiso   1.00
C1198  C     0.09849   0.79817   0.51783   0.00000  Uiso   1.00
H1199  H     0.23988   0.70639   0.69787   0.00000  Uiso   1.00
H1200  H     0.09279   0.70396   0.79814   0.00000  Uiso   1.00
H1201  H     0.09374   0.96137   0.79803   0.00000  Uiso   1.00
H1202  H     0.31011   0.79397   0.68089   0.00000  Uiso   1.00
H1203  H     0.06063   0.79412   0.68071   0.00000  Uiso   1.00
H1204  H     0.02393   0.87201   0.81925   0.00000  Uiso   1.00
H1205  H     0.27993   0.78412   0.90345   0.00000  Uiso   1.00
H1206  H     0.30417   0.81256   0.97752   0.00000  Uiso   1.00
H1207  H     0.13592   0.82421   0.58991   0.00000  Uiso   1.00
H1208  H     0.05106   0.81499   0.91798   0.00000  Uiso   1.00
H1209  H     0.08586   0.79346   0.56108   0.00000  Uiso   1.00
H1210  H     0.02755   0.79646   0.51479   0.00000  Uiso   1.00
N1211  N     0.04760   0.83334   0.75001   0.00000  Uiso   1.00
N1212  N     0.28573   0.83331   0.75001   0.00000  Uiso   1.00
O1213  O     0.12846   0.89442   0.75000   0.00000  Uiso   1.00
O1214  O     0.20490   0.89441   0.75000   0.00000  Uiso   1.00
O1215  O     0.10947   0.83333   0.82681   0.00000  Uiso   1.00
O1216  O     0.18591   0.83332   0.82681   0.00000  Uiso   1.00
O1217  O     0.12843   0.77226   0.74999   0.00000  Uiso   1.00
O1218  O     0.20488   0.77225   0.74999   0.00000  Uiso   1.00
O1219  O     0.14742   0.83335   0.67319   0.00000  Uiso   1.00
O1220  O     0.22387   0.83334   0.67319   0.00000  Uiso   1.00
Zn1221 Zn    0.11562   0.83334   0.75000   0.00000  Uiso   1.00
Zn1222 Zn    0.21771   0.83333   0.75000   0.00000  Uiso   1.00
O1223  O     0.29242   0.83633   0.57752   0.00000  Uiso   1.00
C1224  C     0.29690   0.88020   0.58245   0.00000  Uiso   1.00
H1225  H     0.31314   0.88607   0.61489   0.00000  Uiso   1.00
H1226  H     0.26204   0.89660   0.59539   0.00000  Uiso   1.00
C1227  C     0.32960   0.89884   0.52957   0.00000  Uiso   1.00
H1228  H     0.03087   0.88243   0.51728   0.00000  Uiso   1.00
H1229  H     0.31319   0.89467   0.99698   0.00000  Uiso   1.00
C1230  C     0.00513   0.94534   0.53608   0.00000  Uiso   1.00
H1231  H     0.30433   0.96252   0.54944   0.00000  Uiso   1.00
H1232  H     0.02753   0.95821   0.99671   0.00000  Uiso   1.00
H1233  H     0.02407   0.95009   0.56624   0.00000  Uiso   1.00
O1234  O     0.26856   0.87903   0.82828   0.00000  Uiso   1.00
H1235  H     0.24224   0.88698   0.81534   0.00000  Uiso   1.00
O1236  O     0.21706   0.76695   0.85217   0.00000  Uiso   1.00
H1237  H     0.25127   0.75986   0.83799   0.00000  Uiso   1.00
O1238  O     0.25070   0.95878   0.69099   0.00000  Uiso   1.00
C1239  C     0.28352   0.95621   0.72025   0.00000  Uiso   1.00
H1240  H     0.29868   0.92426   0.71360   0.00000  Uiso   1.00
H1241  H     0.26718   0.96017   0.76502   0.00000  Uiso   1.00
C1242  C     0.32416   0.98778   0.69879   0.00000  Uiso   1.00
H1243  H     0.00528   0.98521   0.65400   0.00000  Uiso   1.00
H1244  H     0.31081   0.68667   0.70958   0.00000  Uiso   1.00
C1245  C     0.03075   0.98017   0.72270   0.00000  Uiso   1.00
H1246  H     0.01725   0.98320   0.76751   0.00000  Uiso   1.00
H1247  H     0.05950   0.67030   0.70661   0.00000  Uiso   1.00
H1248  H     0.04580   0.94845   0.71153   0.00000  Uiso   1.00
C1249  C     0.50051   0.91330   0.74928   0.00000  Uiso   1.00
C1250  C     0.48064   0.80107   0.98789   0.00000  Uiso   1.00
C1251  C     0.49401   0.79896   0.93112   0.00000  Uiso   1.00
C1252  C     0.51663   0.80730   0.51188   0.00000  Uiso   1.00
C1253  C     0.56492   0.80407   0.98013   0.00000  Uiso   1.00
C1254  C     0.57659   0.79069   0.92646   0.00000  Uiso   1.00
C1255  C     0.54099   0.78637   0.90204   0.00000  Uiso   1.00
C1256  C     0.50575   0.81984   0.56563   0.00000  Uiso   1.00
C1257  C     0.58942   0.82713   0.55648   0.00000  Uiso   1.00
C1258  C     0.45983   0.81058   0.90631   0.00000  Uiso   1.00
C1259  C     0.54339   0.97932   0.72166   0.00000  Uiso   1.00
C1260  C     0.47445   0.82666   0.85073   0.00000  Uiso   1.00
C1261  C     0.54199   0.68896   0.72093   0.00000  Uiso   1.00
C1262  C     0.49999   0.70937   0.74883   0.00000  Uiso   1.00
C1263  C     0.45856   0.68777   0.77634   0.00000  Uiso   1.00
C1264  C     0.45921   0.97829   0.77632   0.00000  Uiso   1.00
C1265  C     0.50129   0.95755   0.74889   0.00000  Uiso   1.00
C1266  C     0.65310   0.81148   0.71163   0.00000  Uiso   1.00
C1267  C     0.36763   0.81158   0.71156   0.00000  Uiso   1.00
C1268  C     0.34720   0.85468   0.78863   0.00000  Uiso   1.00
C1269  C     0.63298   0.85536   0.78860   0.00000  Uiso   1.00
C1270  C     0.49991   0.75343   0.74961   0.00000  Uiso   1.00
C1271  C     0.52608   0.83332   0.64773   0.00000  Uiso   1.00
C1272  C     0.60078   0.81404   0.50250   0.00000  Uiso   1.00
C1273  C     0.54128   0.82784   0.58893   0.00000  Uiso   1.00
C1274  C     0.41146   0.80905   0.93666   0.00000  Uiso   1.00
C1275  C     0.39784   0.79995   0.99160   0.00000  Uiso   1.00
C1276  C     0.43182   0.79817   0.51783   0.00000  Uiso   1.00
H1277  H     0.57321   0.70639   0.69787   0.00000  Uiso   1.00
H1278  H     0.42612   0.70396   0.79814   0.00000  Uiso   1.00
H1279  H     0.42707   0.96137   0.79803   0.00000  Uiso   1.00
H1280  H     0.64344   0.79397   0.68089   0.00000  Uiso   1.00
H1281  H     0.39397   0.79412   0.68071   0.00000  Uiso   1.00
H1282  H     0.35727   0.87201   0.81925   0.00000  Uiso   1.00
H1283  H     0.61326   0.78412   0.90345   0.00000  Uiso   1.00
H1284  H     0.63750   0.81256   0.97752   0.00000  Uiso   1.00
H1285  H     0.46925   0.82421   0.58991   0.00000  Uiso   1.00
H1286  H     0.38439   0.81499   0.91798   0.00000  Uiso   1.00
H1287  H     0.41920   0.79346   0.56108   0.00000  Uiso   1.00
H1288  H     0.36089   0.79646   0.51479   0.00000  Uiso   1.00
N1289  N     0.38093   0.83334   0.75001   0.00000  Uiso   1.00
N1290  N     0.61906   0.83331   0.75001   0.00000  Uiso   1.00
O1291  O     0.46179   0.89442   0.75000   0.00000  Uiso   1.00
O1292  O     0.53823   0.89441   0.75000   0.00000  Uiso   1.00
O1293  O     0.44280   0.83333   0.82681   0.00000  Uiso   1.00
O1294  O     0.51924   0.83332   0.82681   0.00000  Uiso   1.00
O1295  O     0.46177   0.77226   0.74999   0.00000  Uiso   1.00
O1296  O     0.53821   0.77225   0.74999   0.00000  Uiso   1.00
O1297  O     0.48076   0.83335   0.67319   0.00000  Uiso   1.00
O1298  O     0.55720   0.83334   0.67319   0.00000  Uiso   1.00
Zn1299 Zn    0.44896   0.83334   0.75000   0.00000  Uiso   1.00
Zn1300 Zn    0.55104   0.83333   0.75000   0.00000  Uiso   1.00
O1301  O     0.62575   0.83633   0.57752   0.00000  Uiso   1.00
C1302  C     0.63023   0.88020   0.58245   0.00000  Uiso   1.00
H1303  H     0.64647   0.88607   0.61489   0.00000  Uiso   1.00
H1304  H     0.59538   0.89660   0.59539   0.00000  Uiso   1.00
C1305  C     0.66293   0.89884   0.52957   0.00000  Uiso   1.00
H1306  H     0.36420   0.88243   0.51728   0.00000  Uiso   1.00
H1307  H     0.64652   0.89467   0.99698   0.00000  Uiso   1.00
C1308  C     0.33847   0.94534   0.53608   0.00000  Uiso   1.00
H1309  H     0.63766   0.96252   0.54944   0.00000  Uiso   1.00
H1310  H     0.36086   0.95821   0.99671   0.00000  Uiso   1.00
H1311  H     0.35740   0.95009   0.56624   0.00000  Uiso   1.00
O1312  O     0.60190   0.87903   0.82828   0.00000  Uiso   1.00
H1313  H     0.57557   0.88698   0.81534   0.00000  Uiso   1.00
O1314  O     0.55040   0.76695   0.85217   0.00000  Uiso   1.00
H1315  H     0.58460   0.75986   0.83799   0.00000  Uiso   1.00
O1316  O     0.58404   0.95878   0.69099   0.00000  Uiso   1.00
C1317  C     0.61685   0.95621   0.72025   0.00000  Uiso   1.00
H1318  H     0.63202   0.92426   0.71360   0.00000  Uiso   1.00
H1319  H     0.60052   0.96017   0.76502   0.00000  Uiso   1.00
C1320  C     0.65749   0.98778   0.69879   0.00000  Uiso   1.00
H1321  H     0.33861   0.98521   0.65400   0.00000  Uiso   1.00
H1322  H     0.64414   0.68667   0.70958   0.00000  Uiso   1.00
C1323  C     0.36408   0.98017   0.72270   0.00000  Uiso   1.00
H1324  H     0.35058   0.98320   0.76751   0.00000  Uiso   1.00
H1325  H     0.39283   0.67030   0.70661   0.00000  Uiso   1.00
H1326  H     0.37913   0.94845   0.71153   0.00000  Uiso   1.00
C1327  C     0.83384   0.91330   0.74928   0.00000  Uiso   1.00
C1328  C     0.81397   0.80107   0.98789   0.00000  Uiso   1.00
C1329  C     0.82734   0.79896   0.93112   0.00000  Uiso   1.00
C1330  C     0.84996   0.80730   0.51188   0.00000  Uiso   1.00
C1331  C     0.89825   0.80407   0.98013   0.00000  Uiso   1.00
C1332  C     0.90993   0.79069   0.92646   0.00000  Uiso   1.00
C1333  C     0.87432   0.78637   0.90204   0.00000  Uiso   1.00
C1334  C     0.83908   0.81984   0.56563   0.00000  Uiso   1.00
C1335  C     0.92275   0.82713   0.55648   0.00000  Uiso   1.00
C1336  C     0.79316   0.81058   0.90631   0.00000  Uiso   1.00
C1337  C     0.87672   0.97932   0.72166   0.00000  Uiso   1.00
C1338  C     0.80778   0.82666   0.85073   0.00000  Uiso   1.00
C1339  C     0.87533   0.68896   0.72093   0.00000  Uiso   1.00
C1340  C     0.83332   0.70937   0.74883   0.00000  Uiso   1.00
C1341  C     0.79189   0.68777   0.77634   0.00000  Uiso   1.00
C1342  C     0.79254   0.97829   0.77632   0.00000  Uiso   1.00
C1343  C     0.83462   0.95755   0.74889   0.00000  Uiso   1.00
C1344  C     0.98644   0.81148   0.71163   0.00000  Uiso   1.00
C1345  C     0.70096   0.81158   0.71156   0.00000  Uiso   1.00
C1346  C     0.68054   0.85468   0.78863   0.00000  Uiso   1.00
C1347  C     0.96631   0.85536   0.78860   0.00000  Uiso   1.00
C1348  C     0.83324   0.75343   0.74961   0.00000  Uiso   1.00
C1349  C     0.85941   0.83332   0.64773   0.00000  Uiso   1.00
C1350  C     0.93412   0.81404   0.50250   0.00000  Uiso   1.00
C1351  C     0.87462   0.82784   0.58893   0.00000  Uiso   1.00
C1352  C     0.74479   0.80905   0.93666   0.00000  Uiso   1.00
C1353  C     0.73117   0.79995   0.99160   0.00000  Uiso   1.00
C1354  C     0.76516   0.79817   0.51783   0.00000  Uiso   1.00
H1355  H     0.90655   0.70639   0.69787   0.00000  Uiso   1.00
H1356  H     0.75946   0.70396   0.79814   0.00000  Uiso   1.00
H1357  H     0.76041   0.96137   0.79803   0.00000  Uiso   1.00
H1358  H     0.97678   0.79397   0.68089   0.00000  Uiso   1.00
H1359  H     0.72730   0.79412   0.68071   0.00000  Uiso   1.00
H1360  H     0.69060   0.87201   0.81925   0.00000  Uiso   1.00
H1361  H     0.94659   0.78412   0.90345   0.00000  Uiso   1.00
H1362  H     0.97084   0.81256   0.97752   0.00000  Uiso   1.00
H1363  H     0.80258   0.82421   0.58991   0.00000  Uiso   1.00
H1364  H     0.71772   0.81499   0.91798   0.00000  Uiso   1.00
H1365  H     0.75253   0.79346   0.56108   0.00000  Uiso   1.00
H1366  H     0.69422   0.79646   0.51479   0.00000  Uiso   1.00
N1367  N     0.71426   0.83334   0.75001   0.00000  Uiso   1.00
N1368  N     0.95239   0.83331   0.75001   0.00000  Uiso   1.00
O1369  O     0.79512   0.89442   0.75000   0.00000  Uiso   1.00
O1370  O     0.87157   0.89441   0.75000   0.00000  Uiso   1.00
O1371  O     0.77613   0.83333   0.82681   0.00000  Uiso   1.00
O1372  O     0.85258   0.83332   0.82681   0.00000  Uiso   1.00
O1373  O     0.79510   0.77226   0.74999   0.00000  Uiso   1.00
O1374  O     0.87154   0.77225   0.74999   0.00000  Uiso   1.00
O1375  O     0.81409   0.83335   0.67319   0.00000  Uiso   1.00
O1376  O     0.89053   0.83334   0.67319   0.00000  Uiso   1.00
Zn1377 Zn    0.78229   0.83334   0.75000   0.00000  Uiso   1.00
Zn1378 Zn    0.88438   0.83333   0.75000   0.00000  Uiso   1.00
O1379  O     0.95909   0.83633   0.57752   0.00000  Uiso   1.00
C1380  C     0.96356   0.88020   0.58245   0.00000  Uiso   1.00
H1381  H     0.97981   0.88607   0.61489   0.00000  Uiso   1.00
H1382  H     0.92871   0.89660   0.59539   0.00000  Uiso   1.00
C1383  C     0.99627   0.89884   0.52957   0.00000  Uiso   1.00
H1384  H     0.69754   0.88243   0.51728   0.00000  Uiso   1.00
H1385  H     0.97986   0.89467   0.99698   0.00000  Uiso   1.00
C1386  C     0.67180   0.94534   0.53608   0.00000  Uiso   1.00
H1387  H     0.97099   0.96252   0.54944   0.00000  Uiso   1.00
H1388  H     0.69419   0.95821   0.99671   0.00000  Uiso   1.00
H1389  H     0.69074   0.95009   0.56624   0.00000  Uiso   1.00
O1390  O     0.93523   0.87903   0.82828   0.00000  Uiso   1.00
H1391  H     0.90890   0.88698   0.81534   0.00000  Uiso   1.00
O1392  O     0.88373   0.76695   0.85217   0.00000  Uiso   1.00
H1393  H     0.91794   0.75986   0.83799   0.00000  Uiso   1.00
O1394  O     0.91737   0.95878   0.69099   0.00000  Uiso   1.00
C1395  C     0.95019   0.95621   0.72025   0.00000  Uiso   1.00
H1396  H     0.96535   0.92426   0.71360   0.00000  Uiso   1.00
H1397  H     0.93385   0.96017   0.76502   0.00000  Uiso   1.00
C1398  C     0.99082   0.98778   0.69879   0.00000  Uiso   1.00
H1399  H     0.67194   0.98521   0.65400   0.00000  Uiso   1.00
H1400  H     0.97747   0.68667   0.70958   0.00000  Uiso   1.00
C1401  C     0.69742   0.98017   0.72270   0.00000  Uiso   1.00
H1402  H     0.68391   0.98320   0.76751   0.00000  Uiso   1.00
H1403  H     0.72616   0.67030   0.70661   0.00000  Uiso   1.00
H1404  H     0.71247   0.94845   0.71153   0.00000  Uiso   1.00
loop_
_geom_bond_atom_site_label_1
_geom_bond_atom_site_label_2
_geom_bond_distance
_geom_bond_site_symmetry_2
_ccdc_geom_bond_type
C1     O43     1.288   .     A
C1     O44     1.284   .     A
C1     C17     1.416   .     S
C2     C3      1.405   .     A
C2     C706    1.410   .     S
C2     C730    1.413   .     S
C3     C7      1.420   .     A
C3     C10     1.419   .     A
C4     C8      1.389   .     A
C4     C704    1.410   1_554 S
C4     C707    1.413   1_554 S
C5     C6      1.393   .     A
C5     C706    1.413   .     S
C5     C726    1.399   .     S
C6     H35     1.084   .     S
C6     C7      1.401   .     A
C7     O66     1.381   .     S
C8     C25     1.394   .     A
C8     H37     1.077   .     S
C9     C25     1.411   .     A
C9     O53     1.384   .     S
C9     C24     1.398   .     A
C10    C26     1.403   .     A
C10    C12     1.470   .     S
C11    O68     1.386   .     S
C11    C17     1.407   .     A
C11    C247    1.376   .     S
C12    O46     1.293   .     A
C12    O45     1.302   .     A
C13    H29     1.083   .     S
C13    C14     1.393   .     A
C13    C479    1.376   1_545 S
C14    C22     1.410   .     S
C14    C15     1.391   .     A
C15    H30     1.084   .     S
C15    C484    1.370   1_545 S
C16    H31     1.084   .     S
C16    C17     1.397   .     A
C16    C249    1.370   .     S
C18    N42     1.367   .     A
C18    H32     1.082   .     S
C18    C97     1.420   .     S
C19    H33     1.082   .     S
C19    N41     1.369   .     A
C19    C174    1.420   1_455 S
C20    N41     1.357   .     A
C20    H34     1.082   .     S
C20    C177    1.412   1_455 S
C21    O64     1.373   .     S
C21    N42     1.386   .     A
C21    C98     1.412   .     S
C22    O48     1.284   .     A
C22    O47     1.285   .     A
C23    O49     1.297   .     A
C23    O50     1.297   .     A
C23    C25     1.462   .     S
C24    C707    1.399   1_554 S
C24    H738    1.079   1_554 S
C26    C27     1.391   .     A
C26    H38     1.082   .     S
C27    C730    1.388   .     S
C27    H742    1.076   .     S
C28    H39     1.080   .     S
C28    C729    1.388   1_554 S
C28    C704    1.413   1_554 S
H36    C726    1.079   .     S
H40    C729    1.076   1_554 S
N41    Zn51    2.019   .     S
N42    Zn52    2.019   .     S
O43    Zn51    1.987   .     S
O44    Zn52    1.995   .     S
O45    Zn51    1.950   .     S
O46    Zn52    1.922   .     S
O47    Zn51    1.995   .     S
O48    Zn52    1.987   .     S
O49    Zn51    1.922   .     S
O50    Zn52    1.950   .     S
O53    C54     1.417   .     S
C54    H56     1.116   .     S
C54    H55     1.111   .     S
C54    C57     1.533   .     S
C57    H136    1.110   .     S
C57    H761    1.111   1_554 S
C57    C138    1.525   .     S
H58    C213    1.110   1_455 S
H59    C759    1.111   .     S
C60    H63     1.110   .     S
C60    C213    1.525   1_455 S
C60    H217    1.111   1_455 S
C60    H764    1.110   1_554 S
H61    C138    1.111   .     S
H62    C762    1.110   .     S
O64    H65     0.981   .     S
O66    H67     0.992   .     S
O68    C69     1.418   .     S
C69    H71     1.118   .     S
C69    C72     1.531   .     S
C69    H70     1.111   .     S
C72    H151    1.110   .     S
C72    H308    1.110   .     S
C72    C153    1.526   .     S
H73    C228    1.110   1_455 S
H74    C540    1.110   1_545 S
C75    H76     1.111   .     S
C75    H78     1.111   .     S
C75    C228    1.526   1_455 S
C75    H311    1.110   .     S
H77    C543    1.110   1_545 S
C79    O121    1.288   .     A
C79    O122    1.284   .     A
C79    C95     1.416   .     S
C80    C81     1.405   .     A
C80    C784    1.410   .     S
C80    C808    1.413   .     S
C81    C85     1.420   .     A
C81    C88     1.419   .     A
C82    C86     1.389   .     A
C82    C782    1.410   1_554 S
C82    C785    1.413   1_554 S
C83    C84     1.393   .     A
C83    C784    1.413   .     S
C83    C804    1.399   .     S
C84    H113    1.084   .     S
C84    C85     1.401   .     A
C85    O144    1.381   .     S
C86    C103    1.394   .     A
C86    H115    1.077   .     S
C87    C103    1.411   .     A
C87    O131    1.384   .     S
C87    C102    1.398   .     A
C88    C104    1.403   .     A
C88    C90     1.470   .     S
C89    O146    1.386   .     S
C89    C95     1.407   .     A
C89    C325    1.376   .     S
C90    O124    1.293   .     A
C90    O123    1.302   .     A
C91    H107    1.083   .     S
C91    C92     1.393   .     A
C91    C557    1.376   1_545 S
C92    C100    1.410   .     S
C92    C93     1.391   .     A
C93    H108    1.084   .     S
C93    C562    1.370   1_545 S
C94    H109    1.084   .     S
C94    C95     1.397   .     A
C94    C327    1.370   .     S
C96    N120    1.367   .     A
C96    H110    1.082   .     S
C96    C175    1.420   .     S
C97    H111    1.082   .     S
C97    N119    1.369   .     A
C98    N119    1.357   .     A
C98    H112    1.082   .     S
C99    O142    1.373   .     S
C99    N120    1.386   .     A
C99    C176    1.412   .     S
C100   O126    1.284   .     A
C100   O125    1.285   .     A
C101   O127    1.297   .     A
C101   O128    1.297   .     A
C101   C103    1.462   .     S
C102   C785    1.399   1_554 S
C102   H816    1.079   1_554 S
C104   C105    1.391   .     A
C104   H116    1.082   .     S
C105   C808    1.388   .     S
C105   H820    1.076   .     S
C106   H117    1.080   .     S
C106   C807    1.388   1_554 S
C106   C782    1.413   1_554 S
H114   C804    1.079   .     S
H118   C807    1.076   1_554 S
N119   Zn129   2.019   .     S
N120   Zn130   2.019   .     S
O121   Zn129   1.987   .     S
O122   Zn130   1.995   .     S
O123   Zn129   1.950   .     S
O124   Zn130   1.922   .     S
O125   Zn129   1.995   .     S
O126   Zn130   1.987   .     S
O127   Zn129   1.922   .     S
O128   Zn130   1.950   .     S
O131   C132    1.417   .     S
C132   H134    1.116   .     S
C132   H133    1.111   .     S
C132   C135    1.533   .     S
C135   H214    1.110   .     S
C135   H839    1.111   1_554 S
C135   C216    1.525   .     S
H137   C837    1.111   .     S
C138   H141    1.110   .     S
C138   H842    1.110   1_554 S
H139   C216    1.111   .     S
H140   C840    1.110   .     S
O142   H143    0.981   .     S
O144   H145    0.992   .     S
O146   C147    1.418   .     S
C147   H149    1.118   .     S
C147   C150    1.531   .     S
C147   H148    1.111   .     S
C150   H229    1.110   .     S
C150   H386    1.110   .     S
C150   C231    1.526   .     S
H152   C618    1.110   1_545 S
C153   H154    1.111   .     S
C153   H156    1.111   .     S
C153   H389    1.110   .     S
H155   C621    1.110   1_545 S
C157   O199    1.288   .     A
C157   O200    1.284   .     A
C157   C173    1.416   .     S
C158   C159    1.405   .     A
C158   C862    1.410   .     S
C158   C886    1.413   .     S
C159   C163    1.420   .     A
C159   C166    1.419   .     A
C160   C164    1.389   .     A
C160   C860    1.410   1_554 S
C160   C863    1.413   1_554 S
C161   C162    1.393   .     A
C161   C862    1.413   .     S
C161   C882    1.399   .     S
C162   H191    1.084   .     S
C162   C163    1.401   .     A
C163   O222    1.381   .     S
C164   C181    1.394   .     A
C164   H193    1.077   .     S
C165   C181    1.411   .     A
C165   O209    1.384   .     S
C165   C180    1.398   .     A
C166   C182    1.403   .     A
C166   C168    1.470   .     S
C167   O224    1.386   .     S
C167   C173    1.407   .     A
C167   C403    1.376   .     S
C168   O202    1.293   .     A
C168   O201    1.302   .     A
C169   H185    1.083   .     S
C169   C170    1.393   .     A
C169   C635    1.376   1_545 S
C170   C178    1.410   .     S
C170   C171    1.391   .     A
C171   H186    1.084   .     S
C171   C640    1.370   1_545 S
C172   H187    1.084   .     S
C172   C173    1.397   .     A
C172   C405    1.370   .     S
C174   N198    1.367   .     A
C174   H188    1.082   .     S
C174   C19     1.420   1_655 S
C175   H189    1.082   .     S
C175   N197    1.369   .     A
C176   N197    1.357   .     A
C176   H190    1.082   .     S
C177   O220    1.373   .     S
C177   N198    1.386   .     A
C177   C20     1.412   1_655 S
C178   O204    1.284   .     A
C178   O203    1.285   .     A
C179   O205    1.297   .     A
C179   O206    1.297   .     A
C179   C181    1.462   .     S
C180   C863    1.399   1_554 S
C180   H894    1.079   1_554 S
C182   C183    1.391   .     A
C182   H194    1.082   .     S
C183   C886    1.388   .     S
C183   H898    1.076   .     S
C184   H195    1.080   .     S
C184   C885    1.388   1_554 S
C184   C860    1.413   1_554 S
H192   C882    1.079   .     S
H196   C885    1.076   1_554 S
N197   Zn207   2.019   .     S
N198   Zn208   2.019   .     S
O199   Zn207   1.987   .     S
O200   Zn208   1.995   .     S
O201   Zn207   1.950   .     S
O202   Zn208   1.922   .     S
O203   Zn207   1.995   .     S
O204   Zn208   1.987   .     S
O205   Zn207   1.922   .     S
O206   Zn208   1.950   .     S
O209   C210    1.417   .     S
C210   H212    1.116   .     S
C210   H211    1.111   .     S
C210   C213    1.533   .     S
C213   H58     1.110   1_655 S
C213   H917    1.111   1_554 S
C213   C60     1.525   1_655 S
H215   C915    1.111   .     S
C216   H219    1.110   .     S
C216   H920    1.110   1_554 S
H217   C60     1.111   1_655 S
H218   C918    1.110   .     S
O220   H221    0.981   .     S
O222   H223    0.992   .     S
O224   C225    1.418   .     S
C225   H227    1.118   .     S
C225   C228    1.531   .     S
C225   H226    1.111   .     S
C228   H73     1.110   1_655 S
C228   H464    1.110   .     S
C228   C75     1.526   1_655 S
H230   C696    1.110   1_545 S
C231   H232    1.111   .     S
C231   H234    1.111   .     S
C231   H467    1.110   .     S
H233   C699    1.110   1_545 S
C235   O277    1.288   .     A
C235   O278    1.284   .     A
C235   C251    1.416   .     S
C236   C237    1.405   .     A
C236   C940    1.410   .     S
C236   C964    1.413   .     S
C237   C241    1.420   .     A
C237   C244    1.419   .     A
C238   C242    1.389   .     A
C238   C938    1.410   1_554 S
C238   C941    1.413   1_554 S
C239   C240    1.393   .     A
C239   C940    1.413   .     S
C239   C960    1.399   .     S
C240   H269    1.084   .     S
C240   C241    1.401   .     A
C241   O300    1.381   .     S
C242   C259    1.394   .     A
C242   H271    1.077   .     S
C243   C259    1.411   .     A
C243   O287    1.384   .     S
C243   C258    1.398   .     A
C244   C260    1.403   .     A
C244   C246    1.470   .     S
C245   O302    1.386   .     S
C245   C251    1.407   .     A
C245   C481    1.376   .     S
C246   O280    1.293   .     A
C246   O279    1.302   .     A
C247   H263    1.083   .     S
C247   C248    1.393   .     A
C248   C256    1.410   .     S
C248   C249    1.391   .     A
C249   H264    1.084   .     S
C250   H265    1.084   .     S
C250   C251    1.397   .     A
C250   C483    1.370   .     S
C252   N276    1.367   .     A
C252   H266    1.082   .     S
C252   C331    1.420   .     S
C253   H267    1.082   .     S
C253   N275    1.369   .     A
C253   C408    1.420   1_455 S
C254   N275    1.357   .     A
C254   H268    1.082   .     S
C254   C411    1.412   1_455 S
C255   O298    1.373   .     S
C255   N276    1.386   .     A
C255   C332    1.412   .     S
C256   O282    1.284   .     A
C256   O281    1.285   .     A
C257   O283    1.297   .     A
C257   O284    1.297   .     A
C257   C259    1.462   .     S
C258   C941    1.399   1_554 S
C258   H972    1.079   1_554 S
C260   C261    1.391   .     A
C260   H272    1.082   .     S
C261   C964    1.388   .     S
C261   H976    1.076   .     S
C262   H273    1.080   .     S
C262   C963    1.388   1_554 S
C262   C938    1.413   1_554 S
H270   C960    1.079   .     S
H274   C963    1.076   1_554 S
N275   Zn285   2.019   .     S
N276   Zn286   2.019   .     S
O277   Zn285   1.987   .     S
O278   Zn286   1.995   .     S
O279   Zn285   1.950   .     S
O280   Zn286   1.922   .     S
O281   Zn285   1.995   .     S
O282   Zn286   1.987   .     S
O283   Zn285   1.922   .     S
O284   Zn286   1.950   .     S
O287   C288    1.417   .     S
C288   H290    1.116   .     S
C288   H289    1.111   .     S
C288   C291    1.533   .     S
C291   H370    1.110   .     S
C291   H995    1.111   1_554 S
C291   C372    1.525   .     S
H292   C447    1.110   1_455 S
H293   C993    1.111   .     S
C294   H297    1.110   .     S
C294   C447    1.525   1_455 S
C294   H451    1.111   1_455 S
C294   H998    1.110   1_554 S
H295   C372    1.111   .     S
H296   C996    1.110   .     S
O298   H299    0.981   .     S
O300   H301    0.992   .     S
O302   C303    1.418   .     S
C303   H305    1.118   .     S
C303   C306    1.531   .     S
C303   H304    1.111   .     S
C306   H385    1.110   .     S
C306   H542    1.110   .     S
C306   C387    1.526   .     S
H307   C462    1.110   1_455 S
C309   H310    1.111   .     S
C309   H312    1.111   .     S
C309   C462    1.526   1_455 S
C309   H545    1.110   .     S
C313   O355    1.288   .     A
C313   O356    1.284   .     A
C313   C329    1.416   .     S
C314   C315    1.405   .     A
C314   C1018   1.410   .     S
C314   C1042   1.413   .     S
C315   C319    1.420   .     A
C315   C322    1.419   .     A
C316   C320    1.389   .     A
C316   C1016   1.410   1_554 S
C316   C1019   1.413   1_554 S
C317   C318    1.393   .     A
C317   C1018   1.413   .     S
C317   C1038   1.399   .     S
C318   H347    1.084   .     S
C318   C319    1.401   .     A
C319   O378    1.381   .     S
C320   C337    1.394   .     A
C320   H349    1.077   .     S
C321   C337    1.411   .     A
C321   O365    1.384   .     S
C321   C336    1.398   .     A
C322   C338    1.403   .     A
C322   C324    1.470   .     S
C323   O380    1.386   .     S
C323   C329    1.407   .     A
C323   C559    1.376   .     S
C324   O358    1.293   .     A
C324   O357    1.302   .     A
C325   H341    1.083   .     S
C325   C326    1.393   .     A
C326   C334    1.410   .     S
C326   C327    1.391   .     A
C327   H342    1.084   .     S
C328   H343    1.084   .     S
C328   C329    1.397   .     A
C328   C561    1.370   .     S
C330   N354    1.367   .     A
C330   H344    1.082   .     S
C330   C409    1.420   .     S
C331   H345    1.082   .     S
C331   N353    1.369   .     A
C332   N353    1.357   .     A
C332   H346    1.082   .     S
C333   O376    1.373   .     S
C333   N354    1.386   .     A
C333   C410    1.412   .     S
C334   O360    1.284   .     A
C334   O359    1.285   .     A
C335   O361    1.297   .     A
C335   O362    1.297   .     A
C335   C337    1.462   .     S
C336   C1019   1.399   1_554 S
C336   H1050   1.079   1_554 S
C338   C339    1.391   .     A
C338   H350    1.082   .     S
C339   C1042   1.388   .     S
C339   H1054   1.076   .     S
C340   H351    1.080   .     S
C340   C1041   1.388   1_554 S
C340   C1016   1.413   1_554 S
H348   C1038   1.079   .     S
H352   C1041   1.076   1_554 S
N353   Zn363   2.019   .     S
N354   Zn364   2.019   .     S
O355   Zn363   1.987   .     S
O356   Zn364   1.995   .     S
O357   Zn363   1.950   .     S
O358   Zn364   1.922   .     S
O359   Zn363   1.995   .     S
O360   Zn364   1.987   .     S
O361   Zn363   1.922   .     S
O362   Zn364   1.950   .     S
O365   C366    1.417   .     S
C366   H368    1.116   .     S
C366   H367    1.111   .     S
C366   C369    1.533   .     S
C369   H448    1.110   .     S
C369   H1073   1.111   1_554 S
C369   C450    1.525   .     S
H371   C1071   1.111   .     S
C372   H375    1.110   .     S
C372   H1076   1.110   1_554 S
H373   C450    1.111   .     S
H374   C1074   1.110   .     S
O376   H377    0.981   .     S
O378   H379    0.992   .     S
O380   C381    1.418   .     S
C381   H383    1.118   .     S
C381   C384    1.531   .     S
C381   H382    1.111   .     S
C384   H463    1.110   .     S
C384   H620    1.110   .     S
C384   C465    1.526   .     S
C387   H388    1.111   .     S
C387   H390    1.111   .     S
C387   H623    1.110   .     S
C391   O433    1.288   .     A
C391   O434    1.284   .     A
C391   C407    1.416   .     S
C392   C393    1.405   .     A
C392   C1096   1.410   .     S
C392   C1120   1.413   .     S
C393   C397    1.420   .     A
C393   C400    1.419   .     A
C394   C398    1.389   .     A
C394   C1094   1.410   1_554 S
C394   C1097   1.413   1_554 S
C395   C396    1.393   .     A
C395   C1096   1.413   .     S
C395   C1116   1.399   .     S
C396   H425    1.084   .     S
C396   C397    1.401   .     A
C397   O456    1.381   .     S
C398   C415    1.394   .     A
C398   H427    1.077   .     S
C399   C415    1.411   .     A
C399   O443    1.384   .     S
C399   C414    1.398   .     A
C400   C416    1.403   .     A
C400   C402    1.470   .     S
C401   O458    1.386   .     S
C401   C407    1.407   .     A
C401   C637    1.376   .     S
C402   O436    1.293   .     A
C402   O435    1.302   .     A
C403   H419    1.083   .     S
C403   C404    1.393   .     A
C404   C412    1.410   .     S
C404   C405    1.391   .     A
C405   H420    1.084   .     S
C406   H421    1.084   .     S
C406   C407    1.397   .     A
C406   C639    1.370   .     S
C408   N432    1.367   .     A
C408   H422    1.082   .     S
C408   C253    1.420   1_655 S
C409   H423    1.082   .     S
C409   N431    1.369   .     A
C410   N431    1.357   .     A
C410   H424    1.082   .     S
C411   O454    1.373   .     S
C411   N432    1.386   .     A
C411   C254    1.412   1_655 S
C412   O438    1.284   .     A
C412   O437    1.285   .     A
C413   O439    1.297   .     A
C413   O440    1.297   .     A
C413   C415    1.462   .     S
C414   C1097   1.399   1_554 S
C414   H1128   1.079   1_554 S
C416   C417    1.391   .     A
C416   H428    1.082   .     S
C417   C1120   1.388   .     S
C417   H1132   1.076   .     S
C418   H429    1.080   .     S
C418   C1119   1.388   1_554 S
C418   C1094   1.413   1_554 S
H426   C1116   1.079   .     S
H430   C1119   1.076   1_554 S
N431   Zn441   2.019   .     S
N432   Zn442   2.019   .     S
O433   Zn441   1.987   .     S
O434   Zn442   1.995   .     S
O435   Zn441   1.950   .     S
O436   Zn442   1.922   .     S
O437   Zn441   1.995   .     S
O438   Zn442   1.987   .     S
O439   Zn441   1.922   .     S
O440   Zn442   1.950   .     S
O443   C444    1.417   .     S
C444   H446    1.116   .     S
C444   H445    1.111   .     S
C444   C447    1.533   .     S
C447   H292    1.110   1_655 S
C447   H1151   1.111   1_554 S
C447   C294    1.525   1_655 S
H449   C1149   1.111   .     S
C450   H453    1.110   .     S
C450   H1154   1.110   1_554 S
H451   C294    1.111   1_655 S
H452   C1152   1.110   .     S
O454   H455    0.981   .     S
O456   H457    0.992   .     S
O458   C459    1.418   .     S
C459   H461    1.118   .     S
C459   C462    1.531   .     S
C459   H460    1.111   .     S
C462   H307    1.110   1_655 S
C462   H698    1.110   .     S
C462   C309    1.526   1_655 S
C465   H466    1.111   .     S
C465   H468    1.111   .     S
C465   H701    1.110   .     S
C469   O511    1.288   .     A
C469   O512    1.284   .     A
C469   C485    1.416   .     S
C470   C471    1.405   .     A
C470   C1174   1.410   .     S
C470   C1198   1.413   .     S
C471   C475    1.420   .     A
C471   C478    1.419   .     A
C472   C476    1.389   .     A
C472   C1172   1.410   1_554 S
C472   C1175   1.413   1_554 S
C473   C474    1.393   .     A
C473   C1174   1.413   .     S
C473   C1194   1.399   .     S
C474   H503    1.084   .     S
C474   C475    1.401   .     A
C475   O534    1.381   .     S
C476   C493    1.394   .     A
C476   H505    1.077   .     S
C477   C493    1.411   .     A
C477   O521    1.384   .     S
C477   C492    1.398   .     A
C478   C494    1.403   .     A
C478   C480    1.470   .     S
C479   O536    1.386   .     S
C479   C485    1.407   .     A
C479   C13     1.376   1_565 S
C480   O514    1.293   .     A
C480   O513    1.302   .     A
C481   H497    1.083   .     S
C481   C482    1.393   .     A
C482   C490    1.410   .     S
C482   C483    1.391   .     A
C483   H498    1.084   .     S
C484   H499    1.084   .     S
C484   C485    1.397   .     A
C484   C15     1.370   1_565 S
C486   N510    1.367   .     A
C486   H500    1.082   .     S
C486   C565    1.420   .     S
C487   H501    1.082   .     S
C487   N509    1.369   .     A
C487   C642    1.420   1_455 S
C488   N509    1.357   .     A
C488   H502    1.082   .     S
C488   C645    1.412   1_455 S
C489   O532    1.373   .     S
C489   N510    1.386   .     A
C489   C566    1.412   .     S
C490   O516    1.284   .     A
C490   O515    1.285   .     A
C491   O517    1.297   .     A
C491   O518    1.297   .     A
C491   C493    1.462   .     S
C492   C1175   1.399   1_554 S
C492   H1206   1.079   1_554 S
C494   C495    1.391   .     A
C494   H506    1.082   .     S
C495   C1198   1.388   .     S
C495   H1210   1.076   .     S
C496   H507    1.080   .     S
C496   C1197   1.388   1_554 S
C496   C1172   1.413   1_554 S
H504   C1194   1.079   .     S
H508   C1197   1.076   1_554 S
N509   Zn519   2.019   .     S
N510   Zn520   2.019   .     S
O511   Zn519   1.987   .     S
O512   Zn520   1.995   .     S
O513   Zn519   1.950   .     S
O514   Zn520   1.922   .     S
O515   Zn519   1.995   .     S
O516   Zn520   1.987   .     S
O517   Zn519   1.922   .     S
O518   Zn520   1.950   .     S
O521   C522    1.417   .     S
C522   H524    1.116   .     S
C522   H523    1.111   .     S
C522   C525    1.533   .     S
C525   H604    1.110   .     S
C525   H1229   1.111   1_554 S
C525   C606    1.525   .     S
H526   C681    1.110   1_455 S
H527   C1227   1.111   .     S
C528   H531    1.110   .     S
C528   C681    1.525   1_455 S
C528   H685    1.111   1_455 S
C528   H1232   1.110   1_554 S
H529   C606    1.111   .     S
H530   C1230   1.110   .     S
O532   H533    0.981   .     S
O534   H535    0.992   .     S
O536   C537    1.418   .     S
C537   H539    1.118   .     S
C537   C540    1.531   .     S
C537   H538    1.111   .     S
C540   H619    1.110   .     S
C540   H74     1.110   1_565 S
C540   C621    1.526   .     S
H541   C696    1.110   1_455 S
C543   H544    1.111   .     S
C543   H546    1.111   .     S
C543   C696    1.526   1_455 S
C543   H77     1.110   1_565 S
C547   O589    1.288   .     A
C547   O590    1.284   .     A
C547   C563    1.416   .     S
C548   C549    1.405   .     A
C548   C1252   1.410   .     S
C548   C1276   1.413   .     S
C549   C553    1.420   .     A
C549   C556    1.419   .     A
C550   C554    1.389   .     A
C550   C1250   1.410   1_554 S
C550   C1253   1.413   1_554 S
C551   C552    1.393   .     A
C551   C1252   1.413   .     S
C551   C1272   1.399   .     S
C552   H581    1.084   .     S
C552   C553    1.401   .     A
C553   O612    1.381   .     S
C554   C571    1.394   .     A
C554   H583    1.077   .     S
C555   C571    1.411   .     A
C555   O599    1.384   .     S
C555   C570    1.398   .     A
C556   C572    1.403   .     A
C556   C558    1.470   .     S
C557   O614    1.386   .     S
C557   C563    1.407   .     A
C557   C91     1.376   1_565 S
C558   O592    1.293   .     A
C558   O591    1.302   .     A
C559   H575    1.083   .     S
C559   C560    1.393   .     A
C560   C568    1.410   .     S
C560   C561    1.391   .     A
C561   H576    1.084   .     S
C562   H577    1.084   .     S
C562   C563    1.397   .     A
C562   C93     1.370   1_565 S
C564   N588    1.367   .     A
C564   H578    1.082   .     S
C564   C643    1.420   .     S
C565   H579    1.082   .     S
C565   N587    1.369   .     A
C566   N587    1.357   .     A
C566   H580    1.082   .     S
C567   O610    1.373   .     S
C567   N588    1.386   .     A
C567   C644    1.412   .     S
C568   O594    1.284   .     A
C568   O593    1.285   .     A
C569   O595    1.297   .     A
C569   O596    1.297   .     A
C569   C571    1.462   .     S
C570   C1253   1.399   1_554 S
C570   H1284   1.079   1_554 S
C572   C573    1.391   .     A
C572   H584    1.082   .     S
C573   C1276   1.388   .     S
C573   H1288   1.076   .     S
C574   H585    1.080   .     S
C574   C1275   1.388   1_554 S
C574   C1250   1.413   1_554 S
H582   C1272   1.079   .     S
H586   C1275   1.076   1_554 S
N587   Zn597   2.019   .     S
N588   Zn598   2.019   .     S
O589   Zn597   1.987   .     S
O590   Zn598   1.995   .     S
O591   Zn597   1.950   .     S
O592   Zn598   1.922   .     S
O593   Zn597   1.995   .     S
O594   Zn598   1.987   .     S
O595   Zn597   1.922   .     S
O596   Zn598   1.950   .     S
O599   C600    1.417   .     S
C600   H602    1.116   .     S
C600   H601    1.111   .     S
C600   C603    1.533   .     S
C603   H682    1.110   .     S
C603   H1307   1.111   1_554 S
C603   C684    1.525   .     S
H605   C1305   1.111   .     S
C606   H609    1.110   .     S
C606   H1310   1.110   1_554 S
H607   C684    1.111   .     S
H608   C1308   1.110   .     S
O610   H611    0.981   .     S
O612   H613    0.992   .     S
O614   C615    1.418   .     S
C615   H617    1.118   .     S
C615   C618    1.531   .     S
C615   H616    1.111   .     S
C618   H697    1.110   .     S
C618   H152    1.110   1_565 S
C618   C699    1.526   .     S
C621   H622    1.111   .     S
C621   H624    1.111   .     S
C621   H155    1.110   1_565 S
C625   O667    1.288   .     A
C625   O668    1.284   .     A
C625   C641    1.416   .     S
C626   C627    1.405   .     A
C626   C1330   1.410   .     S
C626   C1354   1.413   .     S
C627   C631    1.420   .     A
C627   C634    1.419   .     A
C628   C632    1.389   .     A
C628   C1328   1.410   1_554 S
C628   C1331   1.413   1_554 S
C629   C630    1.393   .     A
C629   C1330   1.413   .     S
C629   C1350   1.399   .     S
C630   H659    1.084   .     S
C630   C631    1.401   .     A
C631   O690    1.381   .     S
C632   C649    1.394   .     A
C632   H661    1.077   .     S
C633   C649    1.411   .     A
C633   O677    1.384   .     S
C633   C648    1.398   .     A
C634   C650    1.403   .     A
C634   C636    1.470   .     S
C635   O692    1.386   .     S
C635   C641    1.407   .     A
C635   C169    1.376   1_565 S
C636   O670    1.293   .     A
C636   O669    1.302   .     A
C637   H653    1.083   .     S
C637   C638    1.393   .     A
C638   C646    1.410   .     S
C638   C639    1.391   .     A
C639   H654    1.084   .     S
C640   H655    1.084   .     S
C640   C641    1.397   .     A
C640   C171    1.370   1_565 S
C642   N666    1.367   .     A
C642   H656    1.082   .     S
C642   C487    1.420   1_655 S
C643   H657    1.082   .     S
C643   N665    1.369   .     A
C644   N665    1.357   .     A
C644   H658    1.082   .     S
C645   O688    1.373   .     S
C645   N666    1.386   .     A
C645   C488    1.412   1_655 S
C646   O672    1.284   .     A
C646   O671    1.285   .     A
C647   O673    1.297   .     A
C647   O674    1.297   .     A
C647   C649    1.462   .     S
C648   C1331   1.399   1_554 S
C648   H1362   1.079   1_554 S
C650   C651    1.391   .     A
C650   H662    1.082   .     S
C651   C1354   1.388   .     S
C651   H1366   1.076   .     S
C652   H663    1.080   .     S
C652   C1353   1.388   1_554 S
C652   C1328   1.413   1_554 S
H660   C1350   1.079   .     S
H664   C1353   1.076   1_554 S
N665   Zn675   2.019   .     S
N666   Zn676   2.019   .     S
O667   Zn675   1.987   .     S
O668   Zn676   1.995   .     S
O669   Zn675   1.950   .     S
O670   Zn676   1.922   .     S
O671   Zn675   1.995   .     S
O672   Zn676   1.987   .     S
O673   Zn675   1.922   .     S
O674   Zn676   1.950   .     S
O677   C678    1.417   .     S
C678   H680    1.116   .     S
C678   H679    1.111   .     S
C678   C681    1.533   .     S
C681   H526    1.110   1_655 S
C681   H1385   1.111   1_554 S
C681   C528    1.525   1_655 S
H683   C1383   1.111   .     S
C684   H687    1.110   .     S
C684   H1388   1.110   1_554 S
H685   C528    1.111   1_655 S
H686   C1386   1.110   .     S
O688   H689    0.981   .     S
O690   H691    0.992   .     S
O692   C693    1.418   .     S
C693   H695    1.118   .     S
C693   C696    1.531   .     S
C693   H694    1.111   .     S
C696   H541    1.110   1_655 S
C696   H230    1.110   1_565 S
C696   C543    1.526   1_655 S
C699   H700    1.111   .     S
C699   H702    1.111   .     S
C699   H233    1.110   1_565 S
C703   O745    1.288   .     A
C703   O746    1.284   .     A
C703   C719    1.416   .     S
C704   C705    1.405   .     A
C704   C4      1.410   1_556 S
C704   C28     1.413   1_556 S
C705   C709    1.420   .     A
C705   C712    1.419   .     A
C706   C710    1.389   .     A
C707   C708    1.393   .     A
C707   C4      1.413   1_556 S
C707   C24     1.399   1_556 S
C708   H737    1.084   .     S
C708   C709    1.401   .     A
C709   O768    1.381   .     S
C710   C727    1.394   .     A
C710   H739    1.077   .     S
C711   C727    1.411   .     A
C711   O755    1.384   .     S
C711   C726    1.398   .     A
C712   C728    1.403   .     A
C712   C714    1.470   .     S
C713   O770    1.386   .     S
C713   C719    1.407   .     A
C713   C949    1.376   .     S
C714   O748    1.293   .     A
C714   O747    1.302   .     A
C715   H731    1.083   .     S
C715   C716    1.393   .     A
C715   C1181   1.376   1_545 S
C716   C724    1.410   .     S
C716   C717    1.391   .     A
C717   H732    1.084   .     S
C717   C1186   1.370   1_545 S
C718   H733    1.084   .     S
C718   C719    1.397   .     A
C718   C951    1.370   .     S
C720   N744    1.367   .     A
C720   H734    1.082   .     S
C720   C799    1.420   .     S
C721   H735    1.082   .     S
C721   N743    1.369   .     A
C721   C876    1.420   1_455 S
C722   N743    1.357   .     A
C722   H736    1.082   .     S
C722   C879    1.412   1_455 S
C723   O766    1.373   .     S
C723   N744    1.386   .     A
C723   C800    1.412   .     S
C724   O750    1.284   .     A
C724   O749    1.285   .     A
C725   O751    1.297   .     A
C725   O752    1.297   .     A
C725   C727    1.462   .     S
C728   C729    1.391   .     A
C728   H740    1.082   .     S
C729   C28     1.388   1_556 S
C729   H40     1.076   1_556 S
C730   H741    1.080   .     S
H738   C24     1.079   1_556 S
N743   Zn753   2.019   .     S
N744   Zn754   2.019   .     S
O745   Zn753   1.987   .     S
O746   Zn754   1.995   .     S
O747   Zn753   1.950   .     S
O748   Zn754   1.922   .     S
O749   Zn753   1.995   .     S
O750   Zn754   1.987   .     S
O751   Zn753   1.922   .     S
O752   Zn754   1.950   .     S
O755   C756    1.417   .     S
C756   H758    1.116   .     S
C756   H757    1.111   .     S
C756   C759    1.533   .     S
C759   H838    1.110   .     S
C759   C840    1.525   .     S
H760   C915    1.110   1_455 S
H761   C57     1.111   1_556 S
C762   H765    1.110   .     S
C762   C915    1.525   1_455 S
C762   H919    1.111   1_455 S
H763   C840    1.111   .     S
H764   C60     1.110   1_556 S
O766   H767    0.981   .     S
O768   H769    0.992   .     S
O770   C771    1.418   .     S
C771   H773    1.118   .     S
C771   C774    1.531   .     S
C771   H772    1.111   .     S
C774   H853    1.110   .     S
C774   H1010   1.110   .     S
C774   C855    1.526   .     S
H775   C930    1.110   1_455 S
H776   C1242   1.110   1_545 S
C777   H778    1.111   .     S
C777   H780    1.111   .     S
C777   C930    1.526   1_455 S
C777   H1013   1.110   .     S
H779   C1245   1.110   1_545 S
C781   O823    1.288   .     A
C781   O824    1.284   .     A
C781   C797    1.416   .     S
C782   C783    1.405   .     A
C782   C82     1.410   1_556 S
C782   C106    1.413   1_556 S
C783   C787    1.420   .     A
C783   C790    1.419   .     A
C784   C788    1.389   .     A
C785   C786    1.393   .     A
C785   C82     1.413   1_556 S
C785   C102    1.399   1_556 S
C786   H815    1.084   .     S
C786   C787    1.401   .     A
C787   O846    1.381   .     S
C788   C805    1.394   .     A
C788   H817    1.077   .     S
C789   C805    1.411   .     A
C789   O833    1.384   .     S
C789   C804    1.398   .     A
C790   C806    1.403   .     A
C790   C792    1.470   .     S
C791   O848    1.386   .     S
C791   C797    1.407   .     A
C791   C1027   1.376   .     S
C792   O826    1.293   .     A
C792   O825    1.302   .     A
C793   H809    1.083   .     S
C793   C794    1.393   .     A
C793   C1259   1.376   1_545 S
C794   C802    1.410   .     S
C794   C795    1.391   .     A
C795   H810    1.084   .     S
C795   C1264   1.370   1_545 S
C796   H811    1.084   .     S
C796   C797    1.397   .     A
C796   C1029   1.370   .     S
C798   N822    1.367   .     A
C798   H812    1.082   .     S
C798   C877    1.420   .     S
C799   H813    1.082   .     S
C799   N821    1.369   .     A
C800   N821    1.357   .     A
C800   H814    1.082   .     S
C801   O844    1.373   .     S
C801   N822    1.386   .     A
C801   C878    1.412   .     S
C802   O828    1.284   .     A
C802   O827    1.285   .     A
C803   O829    1.297   .     A
C803   O830    1.297   .     A
C803   C805    1.462   .     S
C806   C807    1.391   .     A
C806   H818    1.082   .     S
C807   C106    1.388   1_556 S
C807   H118    1.076   1_556 S
C808   H819    1.080   .     S
H816   C102    1.079   1_556 S
N821   Zn831   2.019   .     S
N822   Zn832   2.019   .     S
O823   Zn831   1.987   .     S
O824   Zn832   1.995   .     S
O825   Zn831   1.950   .     S
O826   Zn832   1.922   .     S
O827   Zn831   1.995   .     S
O828   Zn832   1.987   .     S
O829   Zn831   1.922   .     S
O830   Zn832   1.950   .     S
O833   C834    1.417   .     S
C834   H836    1.116   .     S
C834   H835    1.111   .     S
C834   C837    1.533   .     S
C837   H916    1.110   .     S
C837   C918    1.525   .     S
H839   C135    1.111   1_556 S
C840   H843    1.110   .     S
H841   C918    1.111   .     S
H842   C138    1.110   1_556 S
O844   H845    0.981   .     S
O846   H847    0.992   .     S
O848   C849    1.418   .     S
C849   H851    1.118   .     S
C849   C852    1.531   .     S
C849   H850    1.111   .     S
C852   H931    1.110   .     S
C852   H1088   1.110   .     S
C852   C933    1.526   .     S
H854   C1320   1.110   1_545 S
C855   H856    1.111   .     S
C855   H858    1.111   .     S
C855   H1091   1.110   .     S
H857   C1323   1.110   1_545 S
C859   O901    1.288   .     A
C859   O902    1.284   .     A
C859   C875    1.416   .     S
C860   C861    1.405   .     A
C860   C160    1.410   1_556 S
C860   C184    1.413   1_556 S
C861   C865    1.420   .     A
C861   C868    1.419   .     A
C862   C866    1.389   .     A
C863   C864    1.393   .     A
C863   C160    1.413   1_556 S
C863   C180    1.399   1_556 S
C864   H893    1.084   .     S
C864   C865    1.401   .     A
C865   O924    1.381   .     S
C866   C883    1.394   .     A
C866   H895    1.077   .     S
C867   C883    1.411   .     A
C867   O911    1.384   .     S
C867   C882    1.398   .     A
C868   C884    1.403   .     A
C868   C870    1.470   .     S
C869   O926    1.386   .     S
C869   C875    1.407   .     A
C869   C1105   1.376   .     S
C870   O904    1.293   .     A
C870   O903    1.302   .     A
C871   H887    1.083   .     S
C871   C872    1.393   .     A
C871   C1337   1.376   1_545 S
C872   C880    1.410   .     S
C872   C873    1.391   .     A
C873   H888    1.084   .     S
C873   C1342   1.370   1_545 S
C874   H889    1.084   .     S
C874   C875    1.397   .     A
C874   C1107   1.370   .     S
C876   N900    1.367   .     A
C876   H890    1.082   .     S
C876   C721    1.420   1_655 S
C877   H891    1.082   .     S
C877   N899    1.369   .     A
C878   N899    1.357   .     A
C878   H892    1.082   .     S
C879   O922    1.373   .     S
C879   N900    1.386   .     A
C879   C722    1.412   1_655 S
C880   O906    1.284   .     A
C880   O905    1.285   .     A
C881   O907    1.297   .     A
C881   O908    1.297   .     A
C881   C883    1.462   .     S
C884   C885    1.391   .     A
C884   H896    1.082   .     S
C885   C184    1.388   1_556 S
C885   H196    1.076   1_556 S
C886   H897    1.080   .     S
H894   C180    1.079   1_556 S
N899   Zn909   2.019   .     S
N900   Zn910   2.019   .     S
O901   Zn909   1.987   .     S
O902   Zn910   1.995   .     S
O903   Zn909   1.950   .     S
O904   Zn910   1.922   .     S
O905   Zn909   1.995   .     S
O906   Zn910   1.987   .     S
O907   Zn909   1.922   .     S
O908   Zn910   1.950   .     S
O911   C912    1.417   .     S
C912   H914    1.116   .     S
C912   H913    1.111   .     S
C912   C915    1.533   .     S
C915   H760    1.110   1_655 S
C915   C762    1.525   1_655 S
H917   C213    1.111   1_556 S
C918   H921    1.110   .     S
H919   C762    1.111   1_655 S
H920   C216    1.110   1_556 S
O922   H923    0.981   .     S
O924   H925    0.992   .     S
O926   C927    1.418   .     S
C927   H929    1.118   .     S
C927   C930    1.531   .     S
C927   H928    1.111   .     S
C930   H775    1.110   1_655 S
C930   H1166   1.110   .     S
C930   C777    1.526   1_655 S
H932   C1398   1.110   1_545 S
C933   H934    1.111   .     S
C933   H936    1.111   .     S
C933   H1169   1.110   .     S
H935   C1401   1.110   1_545 S
C937   O979    1.288   .     A
C937   O980    1.284   .     A
C937   C953    1.416   .     S
C938   C939    1.405   .     A
C938   C238    1.410   1_556 S
C938   C262    1.413   1_556 S
C939   C943    1.420   .     A
C939   C946    1.419   .     A
C940   C944    1.389   .     A
C941   C942    1.393   .     A
C941   C238    1.413   1_556 S
C941   C258    1.399   1_556 S
C942   H971    1.084   .     S
C942   C943    1.401   .     A
C943   O1002   1.381   .     S
C944   C961    1.394   .     A
C944   H973    1.077   .     S
C945   C961    1.411   .     A
C945   O989    1.384   .     S
C945   C960    1.398   .     A
C946   C962    1.403   .     A
C946   C948    1.470   .     S
C947   O1004   1.386   .     S
C947   C953    1.407   .     A
C947   C1183   1.376   .     S
C948   O982    1.293   .     A
C948   O981    1.302   .     A
C949   H965    1.083   .     S
C949   C950    1.393   .     A
C950   C958    1.410   .     S
C950   C951    1.391   .     A
C951   H966    1.084   .     S
C952   H967    1.084   .     S
C952   C953    1.397   .     A
C952   C1185   1.370   .     S
C954   N978    1.367   .     A
C954   H968    1.082   .     S
C954   C1033   1.420   .     S
C955   H969    1.082   .     S
C955   N977    1.369   .     A
C955   C1110   1.420   1_455 S
C956   N977    1.357   .     A
C956   H970    1.082   .     S
C956   C1113   1.412   1_455 S
C957   O1000   1.373   .     S
C957   N978    1.386   .     A
C957   C1034   1.412   .     S
C958   O984    1.284   .     A
C958   O983    1.285   .     A
C959   O985    1.297   .     A
C959   O986    1.297   .     A
C959   C961    1.462   .     S
C962   C963    1.391   .     A
C962   H974    1.082   .     S
C963   C262    1.388   1_556 S
C963   H274    1.076   1_556 S
C964   H975    1.080   .     S
H972   C258    1.079   1_556 S
N977   Zn987   2.019   .     S
N978   Zn988   2.019   .     S
O979   Zn987   1.987   .     S
O980   Zn988   1.995   .     S
O981   Zn987   1.950   .     S
O982   Zn988   1.922   .     S
O983   Zn987   1.995   .     S
O984   Zn988   1.987   .     S
O985   Zn987   1.922   .     S
O986   Zn988   1.950   .     S
O989   C990    1.417   .     S
C990   H992    1.116   .     S
C990   H991    1.111   .     S
C990   C993    1.533   .     S
C993   H1072   1.110   .     S
C993   C1074   1.525   .     S
H994   C1149   1.110   1_455 S
H995   C291    1.111   1_556 S
C996   H999    1.110   .     S
C996   C1149   1.525   1_455 S
C996   H1153   1.111   1_455 S
H997   C1074   1.111   .     S
H998   C294    1.110   1_556 S
O1000  H1001   0.981   .     S
O1002  H1003   0.992   .     S
O1004  C1005   1.418   .     S
C1005  H1007   1.118   .     S
C1005  C1008   1.531   .     S
C1005  H1006   1.111   .     S
C1008  H1087   1.110   .     S
C1008  H1244   1.110   .     S
C1008  C1089   1.526   .     S
H1009  C1164   1.110   1_455 S
C1011  H1012   1.111   .     S
C1011  H1014   1.111   .     S
C1011  C1164   1.526   1_455 S
C1011  H1247   1.110   .     S
C1015  O1057   1.288   .     A
C1015  O1058   1.284   .     A
C1015  C1031   1.416   .     S
C1016  C1017   1.405   .     A
C1016  C316    1.410   1_556 S
C1016  C340    1.413   1_556 S
C1017  C1021   1.420   .     A
C1017  C1024   1.419   .     A
C1018  C1022   1.389   .     A
C1019  C1020   1.393   .     A
C1019  C316    1.413   1_556 S
C1019  C336    1.399   1_556 S
C1020  H1049   1.084   .     S
C1020  C1021   1.401   .     A
C1021  O1080   1.381   .     S
C1022  C1039   1.394   .     A
C1022  H1051   1.077   .     S
C1023  C1039   1.411   .     A
C1023  O1067   1.384   .     S
C1023  C1038   1.398   .     A
C1024  C1040   1.403   .     A
C1024  C1026   1.470   .     S
C1025  O1082   1.386   .     S
C1025  C1031   1.407   .     A
C1025  C1261   1.376   .     S
C1026  O1060   1.293   .     A
C1026  O1059   1.302   .     A
C1027  H1043   1.083   .     S
C1027  C1028   1.393   .     A
C1028  C1036   1.410   .     S
C1028  C1029   1.391   .     A
C1029  H1044   1.084   .     S
C1030  H1045   1.084   .     S
C1030  C1031   1.397   .     A
C1030  C1263   1.370   .     S
C1032  N1056   1.367   .     A
C1032  H1046   1.082   .     S
C1032  C1111   1.420   .     S
C1033  H1047   1.082   .     S
C1033  N1055   1.369   .     A
C1034  N1055   1.357   .     A
C1034  H1048   1.082   .     S
C1035  O1078   1.373   .     S
C1035  N1056   1.386   .     A
C1035  C1112   1.412   .     S
C1036  O1062   1.284   .     A
C1036  O1061   1.285   .     A
C1037  O1063   1.297   .     A
C1037  O1064   1.297   .     A
C1037  C1039   1.462   .     S
C1040  C1041   1.391   .     A
C1040  H1052   1.082   .     S
C1041  C340    1.388   1_556 S
C1041  H352    1.076   1_556 S
C1042  H1053   1.080   .     S
H1050  C336    1.079   1_556 S
N1055  Zn1065  2.019   .     S
N1056  Zn1066  2.019   .     S
O1057  Zn1065  1.987   .     S
O1058  Zn1066  1.995   .     S
O1059  Zn1065  1.950   .     S
O1060  Zn1066  1.922   .     S
O1061  Zn1065  1.995   .     S
O1062  Zn1066  1.987   .     S
O1063  Zn1065  1.922   .     S
O1064  Zn1066  1.950   .     S
O1067  C1068   1.417   .     S
C1068  H1070   1.116   .     S
C1068  H1069   1.111   .     S
C1068  C1071   1.533   .     S
C1071  H1150   1.110   .     S
C1071  C1152   1.525   .     S
H1073  C369    1.111   1_556 S
C1074  H1077   1.110   .     S
H1075  C1152   1.111   .     S
H1076  C372    1.110   1_556 S
O1078  H1079   0.981   .     S
O1080  H1081   0.992   .     S
O1082  C1083   1.418   .     S
C1083  H1085   1.118   .     S
C1083  C1086   1.531   .     S
C1083  H1084   1.111   .     S
C1086  H1165   1.110   .     S
C1086  H1322   1.110   .     S
C1086  C1167   1.526   .     S
C1089  H1090   1.111   .     S
C1089  H1092   1.111   .     S
C1089  H1325   1.110   .     S
C1093  O1135   1.288   .     A
C1093  O1136   1.284   .     A
C1093  C1109   1.416   .     S
C1094  C1095   1.405   .     A
C1094  C394    1.410   1_556 S
C1094  C418    1.413   1_556 S
C1095  C1099   1.420   .     A
C1095  C1102   1.419   .     A
C1096  C1100   1.389   .     A
C1097  C1098   1.393   .     A
C1097  C394    1.413   1_556 S
C1097  C414    1.399   1_556 S
C1098  H1127   1.084   .     S
C1098  C1099   1.401   .     A
C1099  O1158   1.381   .     S
C1100  C1117   1.394   .     A
C1100  H1129   1.077   .     S
C1101  C1117   1.411   .     A
C1101  O1145   1.384   .     S
C1101  C1116   1.398   .     A
C1102  C1118   1.403   .     A
C1102  C1104   1.470   .     S
C1103  O1160   1.386   .     S
C1103  C1109   1.407   .     A
C1103  C1339   1.376   .     S
C1104  O1138   1.293   .     A
C1104  O1137   1.302   .     A
C1105  H1121   1.083   .     S
C1105  C1106   1.393   .     A
C1106  C1114   1.410   .     S
C1106  C1107   1.391   .     A
C1107  H1122   1.084   .     S
C1108  H1123   1.084   .     S
C1108  C1109   1.397   .     A
C1108  C1341   1.370   .     S
C1110  N1134   1.367   .     A
C1110  H1124   1.082   .     S
C1110  C955    1.420   1_655 S
C1111  H1125   1.082   .     S
C1111  N1133   1.369   .     A
C1112  N1133   1.357   .     A
C1112  H1126   1.082   .     S
C1113  O1156   1.373   .     S
C1113  N1134   1.386   .     A
C1113  C956    1.412   1_655 S
C1114  O1140   1.284   .     A
C1114  O1139   1.285   .     A
C1115  O1141   1.297   .     A
C1115  O1142   1.297   .     A
C1115  C1117   1.462   .     S
C1118  C1119   1.391   .     A
C1118  H1130   1.082   .     S
C1119  C418    1.388   1_556 S
C1119  H430    1.076   1_556 S
C1120  H1131   1.080   .     S
H1128  C414    1.079   1_556 S
N1133  Zn1143  2.019   .     S
N1134  Zn1144  2.019   .     S
O1135  Zn1143  1.987   .     S
O1136  Zn1144  1.995   .     S
O1137  Zn1143  1.950   .     S
O1138  Zn1144  1.922   .     S
O1139  Zn1143  1.995   .     S
O1140  Zn1144  1.987   .     S
O1141  Zn1143  1.922   .     S
O1142  Zn1144  1.950   .     S
O1145  C1146   1.417   .     S
C1146  H1148   1.116   .     S
C1146  H1147   1.111   .     S
C1146  C1149   1.533   .     S
C1149  H994    1.110   1_655 S
C1149  C996    1.525   1_655 S
H1151  C447    1.111   1_556 S
C1152  H1155   1.110   .     S
H1153  C996    1.111   1_655 S
H1154  C450    1.110   1_556 S
O1156  H1157   0.981   .     S
O1158  H1159   0.992   .     S
O1160  C1161   1.418   .     S
C1161  H1163   1.118   .     S
C1161  C1164   1.531   .     S
C1161  H1162   1.111   .     S
C1164  H1009   1.110   1_655 S
C1164  H1400   1.110   .     S
C1164  C1011   1.526   1_655 S
C1167  H1168   1.111   .     S
C1167  H1170   1.111   .     S
C1167  H1403   1.110   .     S
C1171  O1213   1.288   .     A
C1171  O1214   1.284   .     A
C1171  C1187   1.416   .     S
C1172  C1173   1.405   .     A
C1172  C472    1.410   1_556 S
C1172  C496    1.413   1_556 S
C1173  C1177   1.420   .     A
C1173  C1180   1.419   .     A
C1174  C1178   1.389   .     A
C1175  C1176   1.393   .     A
C1175  C472    1.413   1_556 S
C1175  C492    1.399   1_556 S
C1176  H1205   1.084   .     S
C1176  C1177   1.401   .     A
C1177  O1236   1.381   .     S
C1178  C1195   1.394   .     A
C1178  H1207   1.077   .     S
C1179  C1195   1.411   .     A
C1179  O1223   1.384   .     S
C1179  C1194   1.398   .     A
C1180  C1196   1.403   .     A
C1180  C1182   1.470   .     S
C1181  O1238   1.386   .     S
C1181  C1187   1.407   .     A
C1181  C715    1.376   1_565 S
C1182  O1216   1.293   .     A
C1182  O1215   1.302   .     A
C1183  H1199   1.083   .     S
C1183  C1184   1.393   .     A
C1184  C1192   1.410   .     S
C1184  C1185   1.391   .     A
C1185  H1200   1.084   .     S
C1186  H1201   1.084   .     S
C1186  C1187   1.397   .     A
C1186  C717    1.370   1_565 S
C1188  N1212   1.367   .     A
C1188  H1202   1.082   .     S
C1188  C1267   1.420   .     S
C1189  H1203   1.082   .     S
C1189  N1211   1.369   .     A
C1189  C1344   1.420   1_455 S
C1190  N1211   1.357   .     A
C1190  H1204   1.082   .     S
C1190  C1347   1.412   1_455 S
C1191  O1234   1.373   .     S
C1191  N1212   1.386   .     A
C1191  C1268   1.412   .     S
C1192  O1218   1.284   .     A
C1192  O1217   1.285   .     A
C1193  O1219   1.297   .     A
C1193  O1220   1.297   .     A
C1193  C1195   1.462   .     S
C1196  C1197   1.391   .     A
C1196  H1208   1.082   .     S
C1197  C496    1.388   1_556 S
C1197  H508    1.076   1_556 S
C1198  H1209   1.080   .     S
H1206  C492    1.079   1_556 S
N1211  Zn1221  2.019   .     S
N1212  Zn1222  2.019   .     S
O1213  Zn1221  1.987   .     S
O1214  Zn1222  1.995   .     S
O1215  Zn1221  1.950   .     S
O1216  Zn1222  1.922   .     S
O1217  Zn1221  1.995   .     S
O1218  Zn1222  1.987   .     S
O1219  Zn1221  1.922   .     S
O1220  Zn1222  1.950   .     S
O1223  C1224   1.417   .     S
C1224  H1226   1.116   .     S
C1224  H1225   1.111   .     S
C1224  C1227   1.533   .     S
C1227  H1306   1.110   .     S
C1227  C1308   1.525   .     S
H1228  C1383   1.110   1_455 S
H1229  C525    1.111   1_556 S
C1230  H1233   1.110   .     S
C1230  C1383   1.525   1_455 S
C1230  H1387   1.111   1_455 S
H1231  C1308   1.111   .     S
H1232  C528    1.110   1_556 S
O1234  H1235   0.981   .     S
O1236  H1237   0.992   .     S
O1238  C1239   1.418   .     S
C1239  H1241   1.118   .     S
C1239  C1242   1.531   .     S
C1239  H1240   1.111   .     S
C1242  H1321   1.110   .     S
C1242  H776    1.110   1_565 S
C1242  C1323   1.526   .     S
H1243  C1398   1.110   1_455 S
C1245  H1246   1.111   .     S
C1245  H1248   1.111   .     S
C1245  C1398   1.526   1_455 S
C1245  H779    1.110   1_565 S
C1249  O1291   1.288   .     A
C1249  O1292   1.284   .     A
C1249  C1265   1.416   .     S
C1250  C1251   1.405   .     A
C1250  C550    1.410   1_556 S
C1250  C574    1.413   1_556 S
C1251  C1255   1.420   .     A
C1251  C1258   1.419   .     A
C1252  C1256   1.389   .     A
C1253  C1254   1.393   .     A
C1253  C550    1.413   1_556 S
C1253  C570    1.399   1_556 S
C1254  H1283   1.084   .     S
C1254  C1255   1.401   .     A
C1255  O1314   1.381   .     S
C1256  C1273   1.394   .     A
C1256  H1285   1.077   .     S
C1257  C1273   1.411   .     A
C1257  O1301   1.384   .     S
C1257  C1272   1.398   .     A
C1258  C1274   1.403   .     A
C1258  C1260   1.470   .     S
C1259  O1316   1.386   .     S
C1259  C1265   1.407   .     A
C1259  C793    1.376   1_565 S
C1260  O1294   1.293   .     A
C1260  O1293   1.302   .     A
C1261  H1277   1.083   .     S
C1261  C1262   1.393   .     A
C1262  C1270   1.410   .     S
C1262  C1263   1.391   .     A
C1263  H1278   1.084   .     S
C1264  H1279   1.084   .     S
C1264  C1265   1.397   .     A
C1264  C795    1.370   1_565 S
C1266  N1290   1.367   .     A
C1266  H1280   1.082   .     S
C1266  C1345   1.420   .     S
C1267  H1281   1.082   .     S
C1267  N1289   1.369   .     A
C1268  N1289   1.357   .     A
C1268  H1282   1.082   .     S
C1269  O1312   1.373   .     S
C1269  N1290   1.386   .     A
C1269  C1346   1.412   .     S
C1270  O1296   1.284   .     A
C1270  O1295   1.285   .     A
C1271  O1297   1.297   .     A
C1271  O1298   1.297   .     A
C1271  C1273   1.462   .     S
C1274  C1275   1.391   .     A
C1274  H1286   1.082   .     S
C1275  C574    1.388   1_556 S
C1275  H586    1.076   1_556 S
C1276  H1287   1.080   .     S
H1284  C570    1.079   1_556 S
N1289  Zn1299  2.019   .     S
N1290  Zn1300  2.019   .     S
O1291  Zn1299  1.987   .     S
O1292  Zn1300  1.995   .     S
O1293  Zn1299  1.950   .     S
O1294  Zn1300  1.922   .     S
O1295  Zn1299  1.995   .     S
O1296  Zn1300  1.987   .     S
O1297  Zn1299  1.922   .     S
O1298  Zn1300  1.950   .     S
O1301  C1302   1.417   .     S
C1302  H1304   1.116   .     S
C1302  H1303   1.111   .     S
C1302  C1305   1.533   .     S
C1305  H1384   1.110   .     S
C1305  C1386   1.525   .     S
H1307  C603    1.111   1_556 S
C1308  H1311   1.110   .     S
H1309  C1386   1.111   .     S
H1310  C606    1.110   1_556 S
O1312  H1313   0.981   .     S
O1314  H1315   0.992   .     S
O1316  C1317   1.418   .     S
C1317  H1319   1.118   .     S
C1317  C1320   1.531   .     S
C1317  H1318   1.111   .     S
C1320  H1399   1.110   .     S
C1320  H854    1.110   1_565 S
C1320  C1401   1.526   .     S
C1323  H1324   1.111   .     S
C1323  H1326   1.111   .     S
C1323  H857    1.110   1_565 S
C1327  O1369   1.288   .     A
C1327  O1370   1.284   .     A
C1327  C1343   1.416   .     S
C1328  C1329   1.405   .     A
C1328  C628    1.410   1_556 S
C1328  C652    1.413   1_556 S
C1329  C1333   1.420   .     A
C1329  C1336   1.419   .     A
C1330  C1334   1.389   .     A
C1331  C1332   1.393   .     A
C1331  C628    1.413   1_556 S
C1331  C648    1.399   1_556 S
C1332  H1361   1.084   .     S
C1332  C1333   1.401   .     A
C1333  O1392   1.381   .     S
C1334  C1351   1.394   .     A
C1334  H1363   1.077   .     S
C1335  C1351   1.411   .     A
C1335  O1379   1.384   .     S
C1335  C1350   1.398   .     A
C1336  C1352   1.403   .     A
C1336  C1338   1.470   .     S
C1337  O1394   1.386   .     S
C1337  C1343   1.407   .     A
C1337  C871    1.376   1_565 S
C1338  O1372   1.293   .     A
C1338  O1371   1.302   .     A
C1339  H1355   1.083   .     S
C1339  C1340   1.393   .     A
C1340  C1348   1.410   .     S
C1340  C1341   1.391   .     A
C1341  H1356   1.084   .     S
C1342  H1357   1.084   .     S
C1342  C1343   1.397   .     A
C1342  C873    1.370   1_565 S
C1344  N1368   1.367   .     A
C1344  H1358   1.082   .     S
C1344  C1189   1.420   1_655 S
C1345  H1359   1.082   .     S
C1345  N1367   1.369   .     A
C1346  N1367   1.357   .     A
C1346  H1360   1.082   .     S
C1347  O1390   1.373   .     S
C1347  N1368   1.386   .     A
C1347  C1190   1.412   1_655 S
C1348  O1374   1.284   .     A
C1348  O1373   1.285   .     A
C1349  O1375   1.297   .     A
C1349  O1376   1.297   .     A
C1349  C1351   1.462   .     S
C1352  C1353   1.391   .     A
C1352  H1364   1.082   .     S
C1353  C652    1.388   1_556 S
C1353  H664    1.076   1_556 S
C1354  H1365   1.080   .     S
H1362  C648    1.079   1_556 S
N1367  Zn1377  2.019   .     S
N1368  Zn1378  2.019   .     S
O1369  Zn1377  1.987   .     S
O1370  Zn1378  1.995   .     S
O1371  Zn1377  1.950   .     S
O1372  Zn1378  1.922   .     S
O1373  Zn1377  1.995   .     S
O1374  Zn1378  1.987   .     S
O1375  Zn1377  1.922   .     S
O1376  Zn1378  1.950   .     S
O1379  C1380   1.417   .     S
C1380  H1382   1.116   .     S
C1380  H1381   1.111   .     S
C1380  C1383   1.533   .     S
C1383  H1228   1.110   1_655 S
C1383  C1230   1.525   1_655 S
H1385  C681    1.111   1_556 S
C1386  H1389   1.110   .     S
H1387  C1230   1.111   1_655 S
H1388  C684    1.110   1_556 S
O1390  H1391   0.981   .     S
O1392  H1393   0.992   .     S
O1394  C1395   1.418   .     S
C1395  H1397   1.118   .     S
C1395  C1398   1.531   .     S
C1395  H1396   1.111   .     S
C1398  H1243   1.110   1_655 S
C1398  H932    1.110   1_565 S
C1398  C1245   1.526   1_655 S
C1401  H1402   1.111   .     S
C1401  H1404   1.111   .     S
C1401  H935    1.110   1_565 S
