data_str_m3_o10_o17_pcu_sym.72
_audit_creation_date              2020-01-03
_audit_creation_method            'Materials Studio'
_symmetry_space_group_name_H-M    'P1'
_symmetry_Int_Tables_number       1
_symmetry_cell_setting            triclinic
loop_
_symmetry_equiv_pos_as_xyz
  x,y,z
_cell_length_a                    23.5296
_cell_length_b                    25.6237
_cell_length_c                    29.8139
_cell_angle_alpha                 92.2758
_cell_angle_beta                  84.8389
_cell_angle_gamma                 93.5905
loop_
_atom_site_label
_atom_site_type_symbol
_atom_site_fract_x
_atom_site_fract_y
_atom_site_fract_z
_atom_site_U_iso_or_equiv
_atom_site_adp_type
_atom_site_occupancy
C1     C     0.18180   0.26480   0.24890   0.00000  Uiso   1.00
C2     C     0.19404   0.20847   0.40579   0.00000  Uiso   1.00
C3     C     0.16668   0.16724   0.11613   0.00000  Uiso   1.00
C4     C     0.16666   0.16609   0.38387   0.00000  Uiso   1.00
C5     C     0.19556   0.20879   0.09292   0.00000  Uiso   1.00
C6     C     0.13778   0.12454   0.40708   0.00000  Uiso   1.00
C7     C     0.19613   0.20857   0.04609   0.00000  Uiso   1.00
C8     C     0.13721   0.12476   0.45390   0.00000  Uiso   1.00
C9     C     0.16689   0.16676   0.02346   0.00000  Uiso   1.00
C10    C     0.16644   0.16657   0.47654   0.00000  Uiso   1.00
C11    C     0.13800   0.12517   0.04766   0.00000  Uiso   1.00
C12    C     0.15153   0.06853   0.25110   0.00000  Uiso   1.00
C13    C     0.19534   0.20817   0.45233   0.00000  Uiso   1.00
C14    C     0.22496   0.24917   0.02138   0.00000  Uiso   1.00
C15    C     0.10837   0.08416   0.47862   0.00000  Uiso   1.00
C16    C     0.15038   0.04575   0.12317   0.00000  Uiso   1.00
C17    C     0.18295   0.28758   0.37683   0.00000  Uiso   1.00
C18    C     0.22474   0.24883   0.47500   0.00000  Uiso   1.00
C19    C     0.10859   0.08450   0.02500   0.00000  Uiso   1.00
C20    C     0.18977   0.31933   0.24818   0.00000  Uiso   1.00
C21    C     0.14357   0.01400   0.25182   0.00000  Uiso   1.00
C22    C     0.16677   0.16638   0.33623   0.00000  Uiso   1.00
C23    C     0.16657   0.16695   0.16377   0.00000  Uiso   1.00
C24    C     0.13930   0.12487   0.09421   0.00000  Uiso   1.00
Cl25   Cl    0.22943   0.26126   0.12326   0.00000  Uiso   1.00
Cl26   Cl    0.10391   0.07207   0.37674   0.00000  Uiso   1.00
Cl27   Cl    0.01284   0.10562   0.20151   0.00000  Uiso   1.00
Cl28   Cl    0.32050   0.22772   0.29848   0.00000  Uiso   1.00
H29    H     0.24798   0.28155   0.03744   0.00000  Uiso   1.00
H30    H     0.16675   0.30421   0.41027   0.00000  Uiso   1.00
H31    H     0.14654   0.27227   0.35782   0.00000  Uiso   1.00
H32    H     0.20550   0.31999   0.35751   0.00000  Uiso   1.00
H33    H     0.08535   0.05178   0.46256   0.00000  Uiso   1.00
H34    H     0.24763   0.28073   0.45702   0.00000  Uiso   1.00
H35    H     0.08571   0.05260   0.04298   0.00000  Uiso   1.00
H36    H     0.23345   0.00290   0.24463   0.00000  Uiso   1.00
H37    H     0.09988   0.33043   0.25537   0.00000  Uiso   1.00
H38    H     0.18680   0.06106   0.14218   0.00000  Uiso   1.00
H39    H     0.16657   0.02912   0.08973   0.00000  Uiso   1.00
H40    H     0.12784   0.01335   0.14250   0.00000  Uiso   1.00
N41    N     0.31678   0.15265   0.23783   0.00000  Uiso   1.00
N42    N     0.01656   0.18068   0.26217   0.00000  Uiso   1.00
O43    O     0.12975   0.24619   0.25298   0.00000  Uiso   1.00
O44    O     0.22191   0.24878   0.38120   0.00000  Uiso   1.00
O45    O     0.20358   0.08714   0.24701   0.00000  Uiso   1.00
O46    O     0.22613   0.23721   0.24518   0.00000  Uiso   1.00
O47    O     0.10720   0.09613   0.25481   0.00000  Uiso   1.00
O48    O     0.11847   0.17117   0.31997   0.00000  Uiso   1.00
O49    O     0.21486   0.16216   0.18002   0.00000  Uiso   1.00
O50    O     0.21485   0.16219   0.31217   0.00000  Uiso   1.00
O51    O     0.11848   0.17115   0.18782   0.00000  Uiso   1.00
O52    O     0.11143   0.08456   0.11879   0.00000  Uiso   1.00
Zn53   Zn    0.10231   0.17266   0.25521   0.00000  Uiso   1.00
Zn54   Zn    0.23102   0.16067   0.24479   0.00000  Uiso   1.00
C55    C     0.51514   0.26480   0.24890   0.00000  Uiso   1.00
C56    C     0.52737   0.20847   0.40579   0.00000  Uiso   1.00
C57    C     0.50001   0.16724   0.11613   0.00000  Uiso   1.00
C58    C     0.49999   0.16609   0.38387   0.00000  Uiso   1.00
C59    C     0.52889   0.20879   0.09292   0.00000  Uiso   1.00
C60    C     0.47111   0.12454   0.40708   0.00000  Uiso   1.00
C61    C     0.52946   0.20857   0.04609   0.00000  Uiso   1.00
C62    C     0.47054   0.12476   0.45390   0.00000  Uiso   1.00
C63    C     0.50022   0.16676   0.02346   0.00000  Uiso   1.00
C64    C     0.49978   0.16657   0.47654   0.00000  Uiso   1.00
C65    C     0.47133   0.12517   0.04766   0.00000  Uiso   1.00
C66    C     0.48486   0.06853   0.25110   0.00000  Uiso   1.00
C67    C     0.52867   0.20817   0.45233   0.00000  Uiso   1.00
C68    C     0.55830   0.24917   0.02138   0.00000  Uiso   1.00
C69    C     0.44170   0.08416   0.47862   0.00000  Uiso   1.00
C70    C     0.48371   0.04575   0.12317   0.00000  Uiso   1.00
C71    C     0.51629   0.28758   0.37683   0.00000  Uiso   1.00
C72    C     0.55808   0.24883   0.47500   0.00000  Uiso   1.00
C73    C     0.44192   0.08450   0.02500   0.00000  Uiso   1.00
C74    C     0.52310   0.31933   0.24818   0.00000  Uiso   1.00
C75    C     0.47690   0.01400   0.25182   0.00000  Uiso   1.00
C76    C     0.50010   0.16638   0.33623   0.00000  Uiso   1.00
C77    C     0.49990   0.16695   0.16377   0.00000  Uiso   1.00
C78    C     0.47263   0.12487   0.09421   0.00000  Uiso   1.00
Cl79   Cl    0.56276   0.26126   0.12326   0.00000  Uiso   1.00
Cl80   Cl    0.43724   0.07207   0.37674   0.00000  Uiso   1.00
Cl81   Cl    0.34617   0.10562   0.20151   0.00000  Uiso   1.00
Cl82   Cl    0.65383   0.22772   0.29848   0.00000  Uiso   1.00
H83    H     0.58131   0.28155   0.03744   0.00000  Uiso   1.00
H84    H     0.50008   0.30421   0.41027   0.00000  Uiso   1.00
H85    H     0.47987   0.27227   0.35782   0.00000  Uiso   1.00
H86    H     0.53883   0.31999   0.35751   0.00000  Uiso   1.00
H87    H     0.41869   0.05178   0.46256   0.00000  Uiso   1.00
H88    H     0.58096   0.28073   0.45702   0.00000  Uiso   1.00
H89    H     0.41904   0.05260   0.04298   0.00000  Uiso   1.00
H90    H     0.56678   0.00290   0.24463   0.00000  Uiso   1.00
H91    H     0.43322   0.33043   0.25537   0.00000  Uiso   1.00
H92    H     0.52014   0.06106   0.14218   0.00000  Uiso   1.00
H93    H     0.49991   0.02912   0.08973   0.00000  Uiso   1.00
H94    H     0.46117   0.01335   0.14250   0.00000  Uiso   1.00
N95    N     0.65011   0.15265   0.23783   0.00000  Uiso   1.00
N96    N     0.34989   0.18068   0.26217   0.00000  Uiso   1.00
O97    O     0.46308   0.24619   0.25298   0.00000  Uiso   1.00
O98    O     0.55524   0.24878   0.38120   0.00000  Uiso   1.00
O99    O     0.53692   0.08714   0.24701   0.00000  Uiso   1.00
O100   O     0.55946   0.23721   0.24518   0.00000  Uiso   1.00
O101   O     0.44054   0.09613   0.25481   0.00000  Uiso   1.00
O102   O     0.45181   0.17117   0.31997   0.00000  Uiso   1.00
O103   O     0.54819   0.16216   0.18002   0.00000  Uiso   1.00
O104   O     0.54819   0.16219   0.31217   0.00000  Uiso   1.00
O105   O     0.45181   0.17115   0.18782   0.00000  Uiso   1.00
O106   O     0.44476   0.08456   0.11879   0.00000  Uiso   1.00
Zn107  Zn    0.43565   0.17266   0.25521   0.00000  Uiso   1.00
Zn108  Zn    0.56435   0.16067   0.24479   0.00000  Uiso   1.00
C109   C     0.84847   0.26480   0.24890   0.00000  Uiso   1.00
C110   C     0.86070   0.20847   0.40579   0.00000  Uiso   1.00
C111   C     0.83334   0.16724   0.11613   0.00000  Uiso   1.00
C112   C     0.83332   0.16609   0.38387   0.00000  Uiso   1.00
C113   C     0.86222   0.20879   0.09292   0.00000  Uiso   1.00
C114   C     0.80444   0.12454   0.40708   0.00000  Uiso   1.00
C115   C     0.86279   0.20857   0.04609   0.00000  Uiso   1.00
C116   C     0.80388   0.12476   0.45390   0.00000  Uiso   1.00
C117   C     0.83356   0.16676   0.02346   0.00000  Uiso   1.00
C118   C     0.83311   0.16657   0.47654   0.00000  Uiso   1.00
C119   C     0.80466   0.12517   0.04766   0.00000  Uiso   1.00
C120   C     0.81820   0.06853   0.25110   0.00000  Uiso   1.00
C121   C     0.86200   0.20817   0.45233   0.00000  Uiso   1.00
C122   C     0.89163   0.24917   0.02138   0.00000  Uiso   1.00
C123   C     0.77504   0.08416   0.47862   0.00000  Uiso   1.00
C124   C     0.81705   0.04575   0.12317   0.00000  Uiso   1.00
C125   C     0.84962   0.28758   0.37683   0.00000  Uiso   1.00
C126   C     0.89141   0.24883   0.47500   0.00000  Uiso   1.00
C127   C     0.77526   0.08450   0.02500   0.00000  Uiso   1.00
C128   C     0.85643   0.31933   0.24818   0.00000  Uiso   1.00
C129   C     0.81023   0.01400   0.25182   0.00000  Uiso   1.00
C130   C     0.83343   0.16638   0.33623   0.00000  Uiso   1.00
C131   C     0.83323   0.16695   0.16377   0.00000  Uiso   1.00
C132   C     0.80596   0.12487   0.09421   0.00000  Uiso   1.00
Cl133  Cl    0.89609   0.26126   0.12326   0.00000  Uiso   1.00
Cl134  Cl    0.77057   0.07207   0.37674   0.00000  Uiso   1.00
Cl135  Cl    0.67950   0.10562   0.20151   0.00000  Uiso   1.00
Cl136  Cl    0.98716   0.22772   0.29848   0.00000  Uiso   1.00
H137   H     0.91465   0.28155   0.03744   0.00000  Uiso   1.00
H138   H     0.83342   0.30421   0.41027   0.00000  Uiso   1.00
H139   H     0.81320   0.27227   0.35782   0.00000  Uiso   1.00
H140   H     0.87216   0.31999   0.35751   0.00000  Uiso   1.00
H141   H     0.75202   0.05178   0.46256   0.00000  Uiso   1.00
H142   H     0.91429   0.28073   0.45702   0.00000  Uiso   1.00
H143   H     0.75237   0.05260   0.04298   0.00000  Uiso   1.00
H144   H     0.90012   0.00290   0.24463   0.00000  Uiso   1.00
H145   H     0.76655   0.33043   0.25537   0.00000  Uiso   1.00
H146   H     0.85347   0.06106   0.14218   0.00000  Uiso   1.00
H147   H     0.83324   0.02912   0.08973   0.00000  Uiso   1.00
H148   H     0.79450   0.01335   0.14250   0.00000  Uiso   1.00
N149   N     0.98344   0.15265   0.23783   0.00000  Uiso   1.00
N150   N     0.68322   0.18068   0.26217   0.00000  Uiso   1.00
O151   O     0.79642   0.24619   0.25298   0.00000  Uiso   1.00
O152   O     0.88857   0.24878   0.38120   0.00000  Uiso   1.00
O153   O     0.87025   0.08714   0.24701   0.00000  Uiso   1.00
O154   O     0.89280   0.23721   0.24518   0.00000  Uiso   1.00
O155   O     0.77387   0.09613   0.25481   0.00000  Uiso   1.00
O156   O     0.78514   0.17117   0.31997   0.00000  Uiso   1.00
O157   O     0.88153   0.16216   0.18002   0.00000  Uiso   1.00
O158   O     0.88152   0.16219   0.31217   0.00000  Uiso   1.00
O159   O     0.78515   0.17115   0.18782   0.00000  Uiso   1.00
O160   O     0.77809   0.08456   0.11879   0.00000  Uiso   1.00
Zn161  Zn    0.76898   0.17266   0.25521   0.00000  Uiso   1.00
Zn162  Zn    0.89769   0.16067   0.24479   0.00000  Uiso   1.00
C163   C     0.18180   0.59813   0.24890   0.00000  Uiso   1.00
C164   C     0.19404   0.54180   0.40579   0.00000  Uiso   1.00
C165   C     0.16668   0.50058   0.11613   0.00000  Uiso   1.00
C166   C     0.16666   0.49942   0.38387   0.00000  Uiso   1.00
C167   C     0.19556   0.54212   0.09292   0.00000  Uiso   1.00
C168   C     0.13778   0.45788   0.40708   0.00000  Uiso   1.00
C169   C     0.19613   0.54191   0.04609   0.00000  Uiso   1.00
C170   C     0.13721   0.45809   0.45390   0.00000  Uiso   1.00
C171   C     0.16689   0.50010   0.02346   0.00000  Uiso   1.00
C172   C     0.16644   0.49990   0.47654   0.00000  Uiso   1.00
C173   C     0.13800   0.45850   0.04766   0.00000  Uiso   1.00
C174   C     0.15153   0.40187   0.25110   0.00000  Uiso   1.00
C175   C     0.19534   0.54150   0.45233   0.00000  Uiso   1.00
C176   C     0.22496   0.58251   0.02138   0.00000  Uiso   1.00
C177   C     0.10837   0.41749   0.47862   0.00000  Uiso   1.00
C178   C     0.15038   0.37908   0.12317   0.00000  Uiso   1.00
C179   C     0.18295   0.62092   0.37683   0.00000  Uiso   1.00
C180   C     0.22474   0.58216   0.47500   0.00000  Uiso   1.00
C181   C     0.10859   0.41784   0.02500   0.00000  Uiso   1.00
C182   C     0.18977   0.65267   0.24818   0.00000  Uiso   1.00
C183   C     0.14357   0.34733   0.25182   0.00000  Uiso   1.00
C184   C     0.16677   0.49972   0.33623   0.00000  Uiso   1.00
C185   C     0.16657   0.50028   0.16377   0.00000  Uiso   1.00
C186   C     0.13930   0.45820   0.09421   0.00000  Uiso   1.00
Cl187  Cl    0.22943   0.59459   0.12326   0.00000  Uiso   1.00
Cl188  Cl    0.10391   0.40541   0.37674   0.00000  Uiso   1.00
Cl189  Cl    0.01284   0.43895   0.20151   0.00000  Uiso   1.00
Cl190  Cl    0.32050   0.56105   0.29848   0.00000  Uiso   1.00
H191   H     0.24798   0.61489   0.03744   0.00000  Uiso   1.00
H192   H     0.16675   0.63754   0.41027   0.00000  Uiso   1.00
H193   H     0.14654   0.60560   0.35782   0.00000  Uiso   1.00
H194   H     0.20550   0.65332   0.35751   0.00000  Uiso   1.00
H195   H     0.08535   0.38511   0.46256   0.00000  Uiso   1.00
H196   H     0.24763   0.61407   0.45702   0.00000  Uiso   1.00
H197   H     0.08571   0.38593   0.04298   0.00000  Uiso   1.00
H198   H     0.23345   0.33623   0.24463   0.00000  Uiso   1.00
H199   H     0.09988   0.66377   0.25537   0.00000  Uiso   1.00
H200   H     0.18680   0.39440   0.14218   0.00000  Uiso   1.00
H201   H     0.16657   0.36245   0.08973   0.00000  Uiso   1.00
H202   H     0.12784   0.34668   0.14250   0.00000  Uiso   1.00
N203   N     0.31678   0.48598   0.23783   0.00000  Uiso   1.00
N204   N     0.01656   0.51402   0.26217   0.00000  Uiso   1.00
O205   O     0.12975   0.57952   0.25298   0.00000  Uiso   1.00
O206   O     0.22191   0.58211   0.38120   0.00000  Uiso   1.00
O207   O     0.20358   0.42048   0.24701   0.00000  Uiso   1.00
O208   O     0.22613   0.57054   0.24518   0.00000  Uiso   1.00
O209   O     0.10720   0.42946   0.25481   0.00000  Uiso   1.00
O210   O     0.11847   0.50450   0.31997   0.00000  Uiso   1.00
O211   O     0.21486   0.49550   0.18002   0.00000  Uiso   1.00
O212   O     0.21485   0.49552   0.31217   0.00000  Uiso   1.00
O213   O     0.11848   0.50448   0.18782   0.00000  Uiso   1.00
O214   O     0.11143   0.41789   0.11879   0.00000  Uiso   1.00
Zn215  Zn    0.10231   0.50600   0.25521   0.00000  Uiso   1.00
Zn216  Zn    0.23102   0.49400   0.24479   0.00000  Uiso   1.00
C217   C     0.51514   0.59813   0.24890   0.00000  Uiso   1.00
C218   C     0.52737   0.54180   0.40579   0.00000  Uiso   1.00
C219   C     0.50001   0.50058   0.11613   0.00000  Uiso   1.00
C220   C     0.49999   0.49942   0.38387   0.00000  Uiso   1.00
C221   C     0.52889   0.54212   0.09292   0.00000  Uiso   1.00
C222   C     0.47111   0.45788   0.40708   0.00000  Uiso   1.00
C223   C     0.52946   0.54191   0.04609   0.00000  Uiso   1.00
C224   C     0.47054   0.45809   0.45390   0.00000  Uiso   1.00
C225   C     0.50022   0.50010   0.02346   0.00000  Uiso   1.00
C226   C     0.49978   0.49990   0.47654   0.00000  Uiso   1.00
C227   C     0.47133   0.45850   0.04766   0.00000  Uiso   1.00
C228   C     0.48486   0.40187   0.25110   0.00000  Uiso   1.00
C229   C     0.52867   0.54150   0.45233   0.00000  Uiso   1.00
C230   C     0.55830   0.58251   0.02138   0.00000  Uiso   1.00
C231   C     0.44170   0.41749   0.47862   0.00000  Uiso   1.00
C232   C     0.48371   0.37908   0.12317   0.00000  Uiso   1.00
C233   C     0.51629   0.62092   0.37683   0.00000  Uiso   1.00
C234   C     0.55808   0.58216   0.47500   0.00000  Uiso   1.00
C235   C     0.44192   0.41784   0.02500   0.00000  Uiso   1.00
C236   C     0.52310   0.65267   0.24818   0.00000  Uiso   1.00
C237   C     0.47690   0.34733   0.25182   0.00000  Uiso   1.00
C238   C     0.50010   0.49972   0.33623   0.00000  Uiso   1.00
C239   C     0.49990   0.50028   0.16377   0.00000  Uiso   1.00
C240   C     0.47263   0.45820   0.09421   0.00000  Uiso   1.00
Cl241  Cl    0.56276   0.59459   0.12326   0.00000  Uiso   1.00
Cl242  Cl    0.43724   0.40541   0.37674   0.00000  Uiso   1.00
Cl243  Cl    0.34617   0.43895   0.20151   0.00000  Uiso   1.00
Cl244  Cl    0.65383   0.56105   0.29848   0.00000  Uiso   1.00
H245   H     0.58131   0.61489   0.03744   0.00000  Uiso   1.00
H246   H     0.50008   0.63754   0.41027   0.00000  Uiso   1.00
H247   H     0.47987   0.60560   0.35782   0.00000  Uiso   1.00
H248   H     0.53883   0.65332   0.35751   0.00000  Uiso   1.00
H249   H     0.41869   0.38511   0.46256   0.00000  Uiso   1.00
H250   H     0.58096   0.61407   0.45702   0.00000  Uiso   1.00
H251   H     0.41904   0.38593   0.04298   0.00000  Uiso   1.00
H252   H     0.56678   0.33623   0.24463   0.00000  Uiso   1.00
H253   H     0.43322   0.66377   0.25537   0.00000  Uiso   1.00
H254   H     0.52014   0.39440   0.14218   0.00000  Uiso   1.00
H255   H     0.49991   0.36245   0.08973   0.00000  Uiso   1.00
H256   H     0.46117   0.34668   0.14250   0.00000  Uiso   1.00
N257   N     0.65011   0.48598   0.23783   0.00000  Uiso   1.00
N258   N     0.34989   0.51402   0.26217   0.00000  Uiso   1.00
O259   O     0.46308   0.57952   0.25298   0.00000  Uiso   1.00
O260   O     0.55524   0.58211   0.38120   0.00000  Uiso   1.00
O261   O     0.53692   0.42048   0.24701   0.00000  Uiso   1.00
O262   O     0.55946   0.57054   0.24518   0.00000  Uiso   1.00
O263   O     0.44054   0.42946   0.25481   0.00000  Uiso   1.00
O264   O     0.45181   0.50450   0.31997   0.00000  Uiso   1.00
O265   O     0.54819   0.49550   0.18002   0.00000  Uiso   1.00
O266   O     0.54819   0.49552   0.31217   0.00000  Uiso   1.00
O267   O     0.45181   0.50448   0.18782   0.00000  Uiso   1.00
O268   O     0.44476   0.41789   0.11879   0.00000  Uiso   1.00
Zn269  Zn    0.43565   0.50600   0.25521   0.00000  Uiso   1.00
Zn270  Zn    0.56435   0.49400   0.24479   0.00000  Uiso   1.00
C271   C     0.84847   0.59813   0.24890   0.00000  Uiso   1.00
C272   C     0.86070   0.54180   0.40579   0.00000  Uiso   1.00
C273   C     0.83334   0.50058   0.11613   0.00000  Uiso   1.00
C274   C     0.83332   0.49942   0.38387   0.00000  Uiso   1.00
C275   C     0.86222   0.54212   0.09292   0.00000  Uiso   1.00
C276   C     0.80444   0.45788   0.40708   0.00000  Uiso   1.00
C277   C     0.86279   0.54191   0.04609   0.00000  Uiso   1.00
C278   C     0.80388   0.45809   0.45390   0.00000  Uiso   1.00
C279   C     0.83356   0.50010   0.02346   0.00000  Uiso   1.00
C280   C     0.83311   0.49990   0.47654   0.00000  Uiso   1.00
C281   C     0.80466   0.45850   0.04766   0.00000  Uiso   1.00
C282   C     0.81820   0.40187   0.25110   0.00000  Uiso   1.00
C283   C     0.86200   0.54150   0.45233   0.00000  Uiso   1.00
C284   C     0.89163   0.58251   0.02138   0.00000  Uiso   1.00
C285   C     0.77504   0.41749   0.47862   0.00000  Uiso   1.00
C286   C     0.81705   0.37908   0.12317   0.00000  Uiso   1.00
C287   C     0.84962   0.62092   0.37683   0.00000  Uiso   1.00
C288   C     0.89141   0.58216   0.47500   0.00000  Uiso   1.00
C289   C     0.77526   0.41784   0.02500   0.00000  Uiso   1.00
C290   C     0.85643   0.65267   0.24818   0.00000  Uiso   1.00
C291   C     0.81023   0.34733   0.25182   0.00000  Uiso   1.00
C292   C     0.83343   0.49972   0.33623   0.00000  Uiso   1.00
C293   C     0.83323   0.50028   0.16377   0.00000  Uiso   1.00
C294   C     0.80596   0.45820   0.09421   0.00000  Uiso   1.00
Cl295  Cl    0.89609   0.59459   0.12326   0.00000  Uiso   1.00
Cl296  Cl    0.77057   0.40541   0.37674   0.00000  Uiso   1.00
Cl297  Cl    0.67950   0.43895   0.20151   0.00000  Uiso   1.00
Cl298  Cl    0.98716   0.56105   0.29848   0.00000  Uiso   1.00
H299   H     0.91465   0.61489   0.03744   0.00000  Uiso   1.00
H300   H     0.83342   0.63754   0.41027   0.00000  Uiso   1.00
H301   H     0.81320   0.60560   0.35782   0.00000  Uiso   1.00
H302   H     0.87216   0.65332   0.35751   0.00000  Uiso   1.00
H303   H     0.75202   0.38511   0.46256   0.00000  Uiso   1.00
H304   H     0.91429   0.61407   0.45702   0.00000  Uiso   1.00
H305   H     0.75237   0.38593   0.04298   0.00000  Uiso   1.00
H306   H     0.90012   0.33623   0.24463   0.00000  Uiso   1.00
H307   H     0.76655   0.66377   0.25537   0.00000  Uiso   1.00
H308   H     0.85347   0.39440   0.14218   0.00000  Uiso   1.00
H309   H     0.83324   0.36245   0.08973   0.00000  Uiso   1.00
H310   H     0.79450   0.34668   0.14250   0.00000  Uiso   1.00
N311   N     0.98344   0.48598   0.23783   0.00000  Uiso   1.00
N312   N     0.68322   0.51402   0.26217   0.00000  Uiso   1.00
O313   O     0.79642   0.57952   0.25298   0.00000  Uiso   1.00
O314   O     0.88857   0.58211   0.38120   0.00000  Uiso   1.00
O315   O     0.87025   0.42048   0.24701   0.00000  Uiso   1.00
O316   O     0.89280   0.57054   0.24518   0.00000  Uiso   1.00
O317   O     0.77387   0.42946   0.25481   0.00000  Uiso   1.00
O318   O     0.78514   0.50450   0.31997   0.00000  Uiso   1.00
O319   O     0.88153   0.49550   0.18002   0.00000  Uiso   1.00
O320   O     0.88152   0.49552   0.31217   0.00000  Uiso   1.00
O321   O     0.78515   0.50448   0.18782   0.00000  Uiso   1.00
O322   O     0.77809   0.41789   0.11879   0.00000  Uiso   1.00
Zn323  Zn    0.76898   0.50600   0.25521   0.00000  Uiso   1.00
Zn324  Zn    0.89769   0.49400   0.24479   0.00000  Uiso   1.00
C325   C     0.18180   0.93147   0.24890   0.00000  Uiso   1.00
C326   C     0.19404   0.87513   0.40579   0.00000  Uiso   1.00
C327   C     0.16668   0.83391   0.11613   0.00000  Uiso   1.00
C328   C     0.16666   0.83275   0.38387   0.00000  Uiso   1.00
C329   C     0.19556   0.87546   0.09292   0.00000  Uiso   1.00
C330   C     0.13778   0.79121   0.40708   0.00000  Uiso   1.00
C331   C     0.19613   0.87524   0.04609   0.00000  Uiso   1.00
C332   C     0.13721   0.79143   0.45390   0.00000  Uiso   1.00
C333   C     0.16689   0.83343   0.02346   0.00000  Uiso   1.00
C334   C     0.16644   0.83324   0.47654   0.00000  Uiso   1.00
C335   C     0.13800   0.79183   0.04766   0.00000  Uiso   1.00
C336   C     0.15153   0.73520   0.25110   0.00000  Uiso   1.00
C337   C     0.19534   0.87483   0.45233   0.00000  Uiso   1.00
C338   C     0.22496   0.91584   0.02138   0.00000  Uiso   1.00
C339   C     0.10837   0.75083   0.47862   0.00000  Uiso   1.00
C340   C     0.15038   0.71242   0.12317   0.00000  Uiso   1.00
C341   C     0.18295   0.95425   0.37683   0.00000  Uiso   1.00
C342   C     0.22474   0.91550   0.47500   0.00000  Uiso   1.00
C343   C     0.10859   0.75117   0.02500   0.00000  Uiso   1.00
C344   C     0.18977   0.98600   0.24818   0.00000  Uiso   1.00
C345   C     0.14357   0.68067   0.25182   0.00000  Uiso   1.00
C346   C     0.16677   0.83305   0.33623   0.00000  Uiso   1.00
C347   C     0.16657   0.83362   0.16377   0.00000  Uiso   1.00
C348   C     0.13930   0.79153   0.09421   0.00000  Uiso   1.00
Cl349  Cl    0.22943   0.92793   0.12326   0.00000  Uiso   1.00
Cl350  Cl    0.10391   0.73874   0.37674   0.00000  Uiso   1.00
Cl351  Cl    0.01284   0.77228   0.20151   0.00000  Uiso   1.00
Cl352  Cl    0.32050   0.89438   0.29848   0.00000  Uiso   1.00
H353   H     0.24798   0.94822   0.03744   0.00000  Uiso   1.00
H354   H     0.16675   0.97088   0.41027   0.00000  Uiso   1.00
H355   H     0.14654   0.93894   0.35782   0.00000  Uiso   1.00
H356   H     0.20550   0.98666   0.35751   0.00000  Uiso   1.00
H357   H     0.08535   0.71845   0.46256   0.00000  Uiso   1.00
H358   H     0.24763   0.94740   0.45702   0.00000  Uiso   1.00
H359   H     0.08571   0.71927   0.04298   0.00000  Uiso   1.00
H360   H     0.23345   0.66957   0.24463   0.00000  Uiso   1.00
H361   H     0.09988   0.99710   0.25537   0.00000  Uiso   1.00
H362   H     0.18680   0.72773   0.14218   0.00000  Uiso   1.00
H363   H     0.16657   0.69578   0.08973   0.00000  Uiso   1.00
H364   H     0.12784   0.68001   0.14250   0.00000  Uiso   1.00
N365   N     0.31678   0.81932   0.23783   0.00000  Uiso   1.00
N366   N     0.01656   0.84735   0.26217   0.00000  Uiso   1.00
O367   O     0.12975   0.91286   0.25298   0.00000  Uiso   1.00
O368   O     0.22191   0.91544   0.38120   0.00000  Uiso   1.00
O369   O     0.20358   0.75381   0.24701   0.00000  Uiso   1.00
O370   O     0.22613   0.90387   0.24518   0.00000  Uiso   1.00
O371   O     0.10720   0.76279   0.25481   0.00000  Uiso   1.00
O372   O     0.11847   0.83784   0.31997   0.00000  Uiso   1.00
O373   O     0.21486   0.82883   0.18002   0.00000  Uiso   1.00
O374   O     0.21485   0.82885   0.31217   0.00000  Uiso   1.00
O375   O     0.11848   0.83781   0.18782   0.00000  Uiso   1.00
O376   O     0.11143   0.75122   0.11879   0.00000  Uiso   1.00
Zn377  Zn    0.10231   0.83933   0.25521   0.00000  Uiso   1.00
Zn378  Zn    0.23102   0.82734   0.24479   0.00000  Uiso   1.00
C379   C     0.51514   0.93147   0.24890   0.00000  Uiso   1.00
C380   C     0.52737   0.87513   0.40579   0.00000  Uiso   1.00
C381   C     0.50001   0.83391   0.11613   0.00000  Uiso   1.00
C382   C     0.49999   0.83275   0.38387   0.00000  Uiso   1.00
C383   C     0.52889   0.87546   0.09292   0.00000  Uiso   1.00
C384   C     0.47111   0.79121   0.40708   0.00000  Uiso   1.00
C385   C     0.52946   0.87524   0.04609   0.00000  Uiso   1.00
C386   C     0.47054   0.79143   0.45390   0.00000  Uiso   1.00
C387   C     0.50022   0.83343   0.02346   0.00000  Uiso   1.00
C388   C     0.49978   0.83324   0.47654   0.00000  Uiso   1.00
C389   C     0.47133   0.79183   0.04766   0.00000  Uiso   1.00
C390   C     0.48486   0.73520   0.25110   0.00000  Uiso   1.00
C391   C     0.52867   0.87483   0.45233   0.00000  Uiso   1.00
C392   C     0.55830   0.91584   0.02138   0.00000  Uiso   1.00
C393   C     0.44170   0.75083   0.47862   0.00000  Uiso   1.00
C394   C     0.48371   0.71242   0.12317   0.00000  Uiso   1.00
C395   C     0.51629   0.95425   0.37683   0.00000  Uiso   1.00
C396   C     0.55808   0.91550   0.47500   0.00000  Uiso   1.00
C397   C     0.44192   0.75117   0.02500   0.00000  Uiso   1.00
C398   C     0.52310   0.98600   0.24818   0.00000  Uiso   1.00
C399   C     0.47690   0.68067   0.25182   0.00000  Uiso   1.00
C400   C     0.50010   0.83305   0.33623   0.00000  Uiso   1.00
C401   C     0.49990   0.83362   0.16377   0.00000  Uiso   1.00
C402   C     0.47263   0.79153   0.09421   0.00000  Uiso   1.00
Cl403  Cl    0.56276   0.92793   0.12326   0.00000  Uiso   1.00
Cl404  Cl    0.43724   0.73874   0.37674   0.00000  Uiso   1.00
Cl405  Cl    0.34617   0.77228   0.20151   0.00000  Uiso   1.00
Cl406  Cl    0.65383   0.89438   0.29848   0.00000  Uiso   1.00
H407   H     0.58131   0.94822   0.03744   0.00000  Uiso   1.00
H408   H     0.50008   0.97088   0.41027   0.00000  Uiso   1.00
H409   H     0.47987   0.93894   0.35782   0.00000  Uiso   1.00
H410   H     0.53883   0.98666   0.35751   0.00000  Uiso   1.00
H411   H     0.41869   0.71845   0.46256   0.00000  Uiso   1.00
H412   H     0.58096   0.94740   0.45702   0.00000  Uiso   1.00
H413   H     0.41904   0.71927   0.04298   0.00000  Uiso   1.00
H414   H     0.56678   0.66957   0.24463   0.00000  Uiso   1.00
H415   H     0.43322   0.99710   0.25537   0.00000  Uiso   1.00
H416   H     0.52014   0.72773   0.14218   0.00000  Uiso   1.00
H417   H     0.49991   0.69578   0.08973   0.00000  Uiso   1.00
H418   H     0.46117   0.68001   0.14250   0.00000  Uiso   1.00
N419   N     0.65011   0.81932   0.23783   0.00000  Uiso   1.00
N420   N     0.34989   0.84735   0.26217   0.00000  Uiso   1.00
O421   O     0.46308   0.91286   0.25298   0.00000  Uiso   1.00
O422   O     0.55524   0.91544   0.38120   0.00000  Uiso   1.00
O423   O     0.53692   0.75381   0.24701   0.00000  Uiso   1.00
O424   O     0.55946   0.90387   0.24518   0.00000  Uiso   1.00
O425   O     0.44054   0.76279   0.25481   0.00000  Uiso   1.00
O426   O     0.45181   0.83784   0.31997   0.00000  Uiso   1.00
O427   O     0.54819   0.82883   0.18002   0.00000  Uiso   1.00
O428   O     0.54819   0.82885   0.31217   0.00000  Uiso   1.00
O429   O     0.45181   0.83781   0.18782   0.00000  Uiso   1.00
O430   O     0.44476   0.75122   0.11879   0.00000  Uiso   1.00
Zn431  Zn    0.43565   0.83933   0.25521   0.00000  Uiso   1.00
Zn432  Zn    0.56435   0.82734   0.24479   0.00000  Uiso   1.00
C433   C     0.84847   0.93147   0.24890   0.00000  Uiso   1.00
C434   C     0.86070   0.87513   0.40579   0.00000  Uiso   1.00
C435   C     0.83334   0.83391   0.11613   0.00000  Uiso   1.00
C436   C     0.83332   0.83275   0.38387   0.00000  Uiso   1.00
C437   C     0.86222   0.87546   0.09292   0.00000  Uiso   1.00
C438   C     0.80444   0.79121   0.40708   0.00000  Uiso   1.00
C439   C     0.86279   0.87524   0.04609   0.00000  Uiso   1.00
C440   C     0.80388   0.79143   0.45390   0.00000  Uiso   1.00
C441   C     0.83356   0.83343   0.02346   0.00000  Uiso   1.00
C442   C     0.83311   0.83324   0.47654   0.00000  Uiso   1.00
C443   C     0.80466   0.79183   0.04766   0.00000  Uiso   1.00
C444   C     0.81820   0.73520   0.25110   0.00000  Uiso   1.00
C445   C     0.86200   0.87483   0.45233   0.00000  Uiso   1.00
C446   C     0.89163   0.91584   0.02138   0.00000  Uiso   1.00
C447   C     0.77504   0.75083   0.47862   0.00000  Uiso   1.00
C448   C     0.81705   0.71242   0.12317   0.00000  Uiso   1.00
C449   C     0.84962   0.95425   0.37683   0.00000  Uiso   1.00
C450   C     0.89141   0.91550   0.47500   0.00000  Uiso   1.00
C451   C     0.77526   0.75117   0.02500   0.00000  Uiso   1.00
C452   C     0.85643   0.98600   0.24818   0.00000  Uiso   1.00
C453   C     0.81023   0.68067   0.25182   0.00000  Uiso   1.00
C454   C     0.83343   0.83305   0.33623   0.00000  Uiso   1.00
C455   C     0.83323   0.83362   0.16377   0.00000  Uiso   1.00
C456   C     0.80596   0.79153   0.09421   0.00000  Uiso   1.00
Cl457  Cl    0.89609   0.92793   0.12326   0.00000  Uiso   1.00
Cl458  Cl    0.77057   0.73874   0.37674   0.00000  Uiso   1.00
Cl459  Cl    0.67950   0.77228   0.20151   0.00000  Uiso   1.00
Cl460  Cl    0.98716   0.89438   0.29848   0.00000  Uiso   1.00
H461   H     0.91465   0.94822   0.03744   0.00000  Uiso   1.00
H462   H     0.83342   0.97088   0.41027   0.00000  Uiso   1.00
H463   H     0.81320   0.93894   0.35782   0.00000  Uiso   1.00
H464   H     0.87216   0.98666   0.35751   0.00000  Uiso   1.00
H465   H     0.75202   0.71845   0.46256   0.00000  Uiso   1.00
H466   H     0.91429   0.94740   0.45702   0.00000  Uiso   1.00
H467   H     0.75237   0.71927   0.04298   0.00000  Uiso   1.00
H468   H     0.90012   0.66957   0.24463   0.00000  Uiso   1.00
H469   H     0.76655   0.99710   0.25537   0.00000  Uiso   1.00
H470   H     0.85347   0.72773   0.14218   0.00000  Uiso   1.00
H471   H     0.83324   0.69578   0.08973   0.00000  Uiso   1.00
H472   H     0.79450   0.68001   0.14250   0.00000  Uiso   1.00
N473   N     0.98344   0.81932   0.23783   0.00000  Uiso   1.00
N474   N     0.68322   0.84735   0.26217   0.00000  Uiso   1.00
O475   O     0.79642   0.91286   0.25298   0.00000  Uiso   1.00
O476   O     0.88857   0.91544   0.38120   0.00000  Uiso   1.00
O477   O     0.87025   0.75381   0.24701   0.00000  Uiso   1.00
O478   O     0.89280   0.90387   0.24518   0.00000  Uiso   1.00
O479   O     0.77387   0.76279   0.25481   0.00000  Uiso   1.00
O480   O     0.78514   0.83784   0.31997   0.00000  Uiso   1.00
O481   O     0.88153   0.82883   0.18002   0.00000  Uiso   1.00
O482   O     0.88152   0.82885   0.31217   0.00000  Uiso   1.00
O483   O     0.78515   0.83781   0.18782   0.00000  Uiso   1.00
O484   O     0.77809   0.75122   0.11879   0.00000  Uiso   1.00
Zn485  Zn    0.76898   0.83933   0.25521   0.00000  Uiso   1.00
Zn486  Zn    0.89769   0.82734   0.24479   0.00000  Uiso   1.00
C487   C     0.18180   0.26480   0.74890   0.00000  Uiso   1.00
C488   C     0.19404   0.20847   0.90579   0.00000  Uiso   1.00
C489   C     0.16668   0.16724   0.61613   0.00000  Uiso   1.00
C490   C     0.16666   0.16609   0.88387   0.00000  Uiso   1.00
C491   C     0.19556   0.20879   0.59292   0.00000  Uiso   1.00
C492   C     0.13778   0.12454   0.90708   0.00000  Uiso   1.00
C493   C     0.19613   0.20857   0.54609   0.00000  Uiso   1.00
C494   C     0.13721   0.12476   0.95390   0.00000  Uiso   1.00
C495   C     0.16689   0.16676   0.52346   0.00000  Uiso   1.00
C496   C     0.16644   0.16657   0.97654   0.00000  Uiso   1.00
C497   C     0.13800   0.12517   0.54766   0.00000  Uiso   1.00
C498   C     0.15153   0.06853   0.75110   0.00000  Uiso   1.00
C499   C     0.19534   0.20817   0.95233   0.00000  Uiso   1.00
C500   C     0.22496   0.24917   0.52138   0.00000  Uiso   1.00
C501   C     0.10837   0.08416   0.97862   0.00000  Uiso   1.00
C502   C     0.15038   0.04575   0.62317   0.00000  Uiso   1.00
C503   C     0.18295   0.28758   0.87683   0.00000  Uiso   1.00
C504   C     0.22474   0.24883   0.97500   0.00000  Uiso   1.00
C505   C     0.10859   0.08450   0.52500   0.00000  Uiso   1.00
C506   C     0.18977   0.31933   0.74818   0.00000  Uiso   1.00
C507   C     0.14357   0.01400   0.75182   0.00000  Uiso   1.00
C508   C     0.16677   0.16638   0.83623   0.00000  Uiso   1.00
C509   C     0.16657   0.16695   0.66377   0.00000  Uiso   1.00
C510   C     0.13930   0.12487   0.59421   0.00000  Uiso   1.00
Cl511  Cl    0.22943   0.26126   0.62326   0.00000  Uiso   1.00
Cl512  Cl    0.10391   0.07207   0.87674   0.00000  Uiso   1.00
Cl513  Cl    0.01284   0.10562   0.70151   0.00000  Uiso   1.00
Cl514  Cl    0.32050   0.22772   0.79848   0.00000  Uiso   1.00
H515   H     0.24798   0.28155   0.53744   0.00000  Uiso   1.00
H516   H     0.16675   0.30421   0.91027   0.00000  Uiso   1.00
H517   H     0.14654   0.27227   0.85782   0.00000  Uiso   1.00
H518   H     0.20550   0.31999   0.85751   0.00000  Uiso   1.00
H519   H     0.08535   0.05178   0.96256   0.00000  Uiso   1.00
H520   H     0.24763   0.28073   0.95702   0.00000  Uiso   1.00
H521   H     0.08571   0.05260   0.54298   0.00000  Uiso   1.00
H522   H     0.23345   0.00290   0.74463   0.00000  Uiso   1.00
H523   H     0.09988   0.33043   0.75537   0.00000  Uiso   1.00
H524   H     0.18680   0.06106   0.64218   0.00000  Uiso   1.00
H525   H     0.16657   0.02912   0.58973   0.00000  Uiso   1.00
H526   H     0.12784   0.01335   0.64250   0.00000  Uiso   1.00
N527   N     0.31678   0.15265   0.73783   0.00000  Uiso   1.00
N528   N     0.01656   0.18068   0.76217   0.00000  Uiso   1.00
O529   O     0.12975   0.24619   0.75298   0.00000  Uiso   1.00
O530   O     0.22191   0.24878   0.88120   0.00000  Uiso   1.00
O531   O     0.20358   0.08714   0.74701   0.00000  Uiso   1.00
O532   O     0.22613   0.23721   0.74518   0.00000  Uiso   1.00
O533   O     0.10720   0.09613   0.75481   0.00000  Uiso   1.00
O534   O     0.11847   0.17117   0.81997   0.00000  Uiso   1.00
O535   O     0.21486   0.16216   0.68002   0.00000  Uiso   1.00
O536   O     0.21485   0.16219   0.81217   0.00000  Uiso   1.00
O537   O     0.11848   0.17115   0.68782   0.00000  Uiso   1.00
O538   O     0.11143   0.08456   0.61879   0.00000  Uiso   1.00
Zn539  Zn    0.10231   0.17266   0.75521   0.00000  Uiso   1.00
Zn540  Zn    0.23102   0.16067   0.74479   0.00000  Uiso   1.00
C541   C     0.51514   0.26480   0.74890   0.00000  Uiso   1.00
C542   C     0.52737   0.20847   0.90579   0.00000  Uiso   1.00
C543   C     0.50001   0.16724   0.61613   0.00000  Uiso   1.00
C544   C     0.49999   0.16609   0.88387   0.00000  Uiso   1.00
C545   C     0.52889   0.20879   0.59292   0.00000  Uiso   1.00
C546   C     0.47111   0.12454   0.90708   0.00000  Uiso   1.00
C547   C     0.52946   0.20857   0.54609   0.00000  Uiso   1.00
C548   C     0.47054   0.12476   0.95390   0.00000  Uiso   1.00
C549   C     0.50022   0.16676   0.52346   0.00000  Uiso   1.00
C550   C     0.49978   0.16657   0.97654   0.00000  Uiso   1.00
C551   C     0.47133   0.12517   0.54766   0.00000  Uiso   1.00
C552   C     0.48486   0.06853   0.75110   0.00000  Uiso   1.00
C553   C     0.52867   0.20817   0.95233   0.00000  Uiso   1.00
C554   C     0.55830   0.24917   0.52138   0.00000  Uiso   1.00
C555   C     0.44170   0.08416   0.97862   0.00000  Uiso   1.00
C556   C     0.48371   0.04575   0.62317   0.00000  Uiso   1.00
C557   C     0.51629   0.28758   0.87683   0.00000  Uiso   1.00
C558   C     0.55808   0.24883   0.97500   0.00000  Uiso   1.00
C559   C     0.44192   0.08450   0.52500   0.00000  Uiso   1.00
C560   C     0.52310   0.31933   0.74818   0.00000  Uiso   1.00
C561   C     0.47690   0.01400   0.75182   0.00000  Uiso   1.00
C562   C     0.50010   0.16638   0.83623   0.00000  Uiso   1.00
C563   C     0.49990   0.16695   0.66377   0.00000  Uiso   1.00
C564   C     0.47263   0.12487   0.59421   0.00000  Uiso   1.00
Cl565  Cl    0.56276   0.26126   0.62326   0.00000  Uiso   1.00
Cl566  Cl    0.43724   0.07207   0.87674   0.00000  Uiso   1.00
Cl567  Cl    0.34617   0.10562   0.70151   0.00000  Uiso   1.00
Cl568  Cl    0.65383   0.22772   0.79848   0.00000  Uiso   1.00
H569   H     0.58131   0.28155   0.53744   0.00000  Uiso   1.00
H570   H     0.50008   0.30421   0.91027   0.00000  Uiso   1.00
H571   H     0.47987   0.27227   0.85782   0.00000  Uiso   1.00
H572   H     0.53883   0.31999   0.85751   0.00000  Uiso   1.00
H573   H     0.41869   0.05178   0.96256   0.00000  Uiso   1.00
H574   H     0.58096   0.28073   0.95702   0.00000  Uiso   1.00
H575   H     0.41904   0.05260   0.54298   0.00000  Uiso   1.00
H576   H     0.56678   0.00290   0.74463   0.00000  Uiso   1.00
H577   H     0.43322   0.33043   0.75537   0.00000  Uiso   1.00
H578   H     0.52014   0.06106   0.64218   0.00000  Uiso   1.00
H579   H     0.49991   0.02912   0.58973   0.00000  Uiso   1.00
H580   H     0.46117   0.01335   0.64250   0.00000  Uiso   1.00
N581   N     0.65011   0.15265   0.73783   0.00000  Uiso   1.00
N582   N     0.34989   0.18068   0.76217   0.00000  Uiso   1.00
O583   O     0.46308   0.24619   0.75298   0.00000  Uiso   1.00
O584   O     0.55524   0.24878   0.88120   0.00000  Uiso   1.00
O585   O     0.53692   0.08714   0.74701   0.00000  Uiso   1.00
O586   O     0.55946   0.23721   0.74518   0.00000  Uiso   1.00
O587   O     0.44054   0.09613   0.75481   0.00000  Uiso   1.00
O588   O     0.45181   0.17117   0.81997   0.00000  Uiso   1.00
O589   O     0.54819   0.16216   0.68002   0.00000  Uiso   1.00
O590   O     0.54819   0.16219   0.81217   0.00000  Uiso   1.00
O591   O     0.45181   0.17115   0.68782   0.00000  Uiso   1.00
O592   O     0.44476   0.08456   0.61879   0.00000  Uiso   1.00
Zn593  Zn    0.43565   0.17266   0.75521   0.00000  Uiso   1.00
Zn594  Zn    0.56435   0.16067   0.74479   0.00000  Uiso   1.00
C595   C     0.84847   0.26480   0.74890   0.00000  Uiso   1.00
C596   C     0.86070   0.20847   0.90579   0.00000  Uiso   1.00
C597   C     0.83334   0.16724   0.61613   0.00000  Uiso   1.00
C598   C     0.83332   0.16609   0.88387   0.00000  Uiso   1.00
C599   C     0.86222   0.20879   0.59292   0.00000  Uiso   1.00
C600   C     0.80444   0.12454   0.90708   0.00000  Uiso   1.00
C601   C     0.86279   0.20857   0.54609   0.00000  Uiso   1.00
C602   C     0.80388   0.12476   0.95390   0.00000  Uiso   1.00
C603   C     0.83356   0.16676   0.52346   0.00000  Uiso   1.00
C604   C     0.83311   0.16657   0.97654   0.00000  Uiso   1.00
C605   C     0.80466   0.12517   0.54766   0.00000  Uiso   1.00
C606   C     0.81820   0.06853   0.75110   0.00000  Uiso   1.00
C607   C     0.86200   0.20817   0.95233   0.00000  Uiso   1.00
C608   C     0.89163   0.24917   0.52138   0.00000  Uiso   1.00
C609   C     0.77504   0.08416   0.97862   0.00000  Uiso   1.00
C610   C     0.81705   0.04575   0.62317   0.00000  Uiso   1.00
C611   C     0.84962   0.28758   0.87683   0.00000  Uiso   1.00
C612   C     0.89141   0.24883   0.97500   0.00000  Uiso   1.00
C613   C     0.77526   0.08450   0.52500   0.00000  Uiso   1.00
C614   C     0.85643   0.31933   0.74818   0.00000  Uiso   1.00
C615   C     0.81023   0.01400   0.75182   0.00000  Uiso   1.00
C616   C     0.83343   0.16638   0.83623   0.00000  Uiso   1.00
C617   C     0.83323   0.16695   0.66377   0.00000  Uiso   1.00
C618   C     0.80596   0.12487   0.59421   0.00000  Uiso   1.00
Cl619  Cl    0.89609   0.26126   0.62326   0.00000  Uiso   1.00
Cl620  Cl    0.77057   0.07207   0.87674   0.00000  Uiso   1.00
Cl621  Cl    0.67950   0.10562   0.70151   0.00000  Uiso   1.00
Cl622  Cl    0.98716   0.22772   0.79848   0.00000  Uiso   1.00
H623   H     0.91465   0.28155   0.53744   0.00000  Uiso   1.00
H624   H     0.83342   0.30421   0.91027   0.00000  Uiso   1.00
H625   H     0.81320   0.27227   0.85782   0.00000  Uiso   1.00
H626   H     0.87216   0.31999   0.85751   0.00000  Uiso   1.00
H627   H     0.75202   0.05178   0.96256   0.00000  Uiso   1.00
H628   H     0.91429   0.28073   0.95702   0.00000  Uiso   1.00
H629   H     0.75237   0.05260   0.54298   0.00000  Uiso   1.00
H630   H     0.90012   0.00290   0.74463   0.00000  Uiso   1.00
H631   H     0.76655   0.33043   0.75537   0.00000  Uiso   1.00
H632   H     0.85347   0.06106   0.64218   0.00000  Uiso   1.00
H633   H     0.83324   0.02912   0.58973   0.00000  Uiso   1.00
H634   H     0.79450   0.01335   0.64250   0.00000  Uiso   1.00
N635   N     0.98344   0.15265   0.73783   0.00000  Uiso   1.00
N636   N     0.68322   0.18068   0.76217   0.00000  Uiso   1.00
O637   O     0.79642   0.24619   0.75298   0.00000  Uiso   1.00
O638   O     0.88857   0.24878   0.88120   0.00000  Uiso   1.00
O639   O     0.87025   0.08714   0.74701   0.00000  Uiso   1.00
O640   O     0.89280   0.23721   0.74518   0.00000  Uiso   1.00
O641   O     0.77387   0.09613   0.75481   0.00000  Uiso   1.00
O642   O     0.78514   0.17117   0.81997   0.00000  Uiso   1.00
O643   O     0.88153   0.16216   0.68002   0.00000  Uiso   1.00
O644   O     0.88152   0.16219   0.81217   0.00000  Uiso   1.00
O645   O     0.78515   0.17115   0.68782   0.00000  Uiso   1.00
O646   O     0.77809   0.08456   0.61879   0.00000  Uiso   1.00
Zn647  Zn    0.76898   0.17266   0.75521   0.00000  Uiso   1.00
Zn648  Zn    0.89769   0.16067   0.74479   0.00000  Uiso   1.00
C649   C     0.18180   0.59813   0.74890   0.00000  Uiso   1.00
C650   C     0.19404   0.54180   0.90579   0.00000  Uiso   1.00
C651   C     0.16668   0.50058   0.61613   0.00000  Uiso   1.00
C652   C     0.16666   0.49942   0.88387   0.00000  Uiso   1.00
C653   C     0.19556   0.54212   0.59292   0.00000  Uiso   1.00
C654   C     0.13778   0.45788   0.90708   0.00000  Uiso   1.00
C655   C     0.19613   0.54191   0.54609   0.00000  Uiso   1.00
C656   C     0.13721   0.45809   0.95390   0.00000  Uiso   1.00
C657   C     0.16689   0.50010   0.52346   0.00000  Uiso   1.00
C658   C     0.16644   0.49990   0.97654   0.00000  Uiso   1.00
C659   C     0.13800   0.45850   0.54766   0.00000  Uiso   1.00
C660   C     0.15153   0.40187   0.75110   0.00000  Uiso   1.00
C661   C     0.19534   0.54150   0.95233   0.00000  Uiso   1.00
C662   C     0.22496   0.58251   0.52138   0.00000  Uiso   1.00
C663   C     0.10837   0.41749   0.97862   0.00000  Uiso   1.00
C664   C     0.15038   0.37908   0.62317   0.00000  Uiso   1.00
C665   C     0.18295   0.62092   0.87683   0.00000  Uiso   1.00
C666   C     0.22474   0.58216   0.97500   0.00000  Uiso   1.00
C667   C     0.10859   0.41784   0.52500   0.00000  Uiso   1.00
C668   C     0.18977   0.65267   0.74818   0.00000  Uiso   1.00
C669   C     0.14357   0.34733   0.75182   0.00000  Uiso   1.00
C670   C     0.16677   0.49972   0.83623   0.00000  Uiso   1.00
C671   C     0.16657   0.50028   0.66377   0.00000  Uiso   1.00
C672   C     0.13930   0.45820   0.59421   0.00000  Uiso   1.00
Cl673  Cl    0.22943   0.59459   0.62326   0.00000  Uiso   1.00
Cl674  Cl    0.10391   0.40541   0.87674   0.00000  Uiso   1.00
Cl675  Cl    0.01284   0.43895   0.70151   0.00000  Uiso   1.00
Cl676  Cl    0.32050   0.56105   0.79848   0.00000  Uiso   1.00
H677   H     0.24798   0.61489   0.53744   0.00000  Uiso   1.00
H678   H     0.16675   0.63754   0.91027   0.00000  Uiso   1.00
H679   H     0.14654   0.60560   0.85782   0.00000  Uiso   1.00
H680   H     0.20550   0.65332   0.85751   0.00000  Uiso   1.00
H681   H     0.08535   0.38511   0.96256   0.00000  Uiso   1.00
H682   H     0.24763   0.61407   0.95702   0.00000  Uiso   1.00
H683   H     0.08571   0.38593   0.54298   0.00000  Uiso   1.00
H684   H     0.23345   0.33623   0.74463   0.00000  Uiso   1.00
H685   H     0.09988   0.66377   0.75537   0.00000  Uiso   1.00
H686   H     0.18680   0.39440   0.64218   0.00000  Uiso   1.00
H687   H     0.16657   0.36245   0.58973   0.00000  Uiso   1.00
H688   H     0.12784   0.34668   0.64250   0.00000  Uiso   1.00
N689   N     0.31678   0.48598   0.73783   0.00000  Uiso   1.00
N690   N     0.01656   0.51402   0.76217   0.00000  Uiso   1.00
O691   O     0.12975   0.57952   0.75298   0.00000  Uiso   1.00
O692   O     0.22191   0.58211   0.88120   0.00000  Uiso   1.00
O693   O     0.20358   0.42048   0.74701   0.00000  Uiso   1.00
O694   O     0.22613   0.57054   0.74518   0.00000  Uiso   1.00
O695   O     0.10720   0.42946   0.75481   0.00000  Uiso   1.00
O696   O     0.11847   0.50450   0.81997   0.00000  Uiso   1.00
O697   O     0.21486   0.49550   0.68002   0.00000  Uiso   1.00
O698   O     0.21485   0.49552   0.81217   0.00000  Uiso   1.00
O699   O     0.11848   0.50448   0.68782   0.00000  Uiso   1.00
O700   O     0.11143   0.41789   0.61879   0.00000  Uiso   1.00
Zn701  Zn    0.10231   0.50600   0.75521   0.00000  Uiso   1.00
Zn702  Zn    0.23102   0.49400   0.74479   0.00000  Uiso   1.00
C703   C     0.51514   0.59813   0.74890   0.00000  Uiso   1.00
C704   C     0.52737   0.54180   0.90579   0.00000  Uiso   1.00
C705   C     0.50001   0.50058   0.61613   0.00000  Uiso   1.00
C706   C     0.49999   0.49942   0.88387   0.00000  Uiso   1.00
C707   C     0.52889   0.54212   0.59292   0.00000  Uiso   1.00
C708   C     0.47111   0.45788   0.90708   0.00000  Uiso   1.00
C709   C     0.52946   0.54191   0.54609   0.00000  Uiso   1.00
C710   C     0.47054   0.45809   0.95390   0.00000  Uiso   1.00
C711   C     0.50022   0.50010   0.52346   0.00000  Uiso   1.00
C712   C     0.49978   0.49990   0.97654   0.00000  Uiso   1.00
C713   C     0.47133   0.45850   0.54766   0.00000  Uiso   1.00
C714   C     0.48486   0.40187   0.75110   0.00000  Uiso   1.00
C715   C     0.52867   0.54150   0.95233   0.00000  Uiso   1.00
C716   C     0.55830   0.58251   0.52138   0.00000  Uiso   1.00
C717   C     0.44170   0.41749   0.97862   0.00000  Uiso   1.00
C718   C     0.48371   0.37908   0.62317   0.00000  Uiso   1.00
C719   C     0.51629   0.62092   0.87683   0.00000  Uiso   1.00
C720   C     0.55808   0.58216   0.97500   0.00000  Uiso   1.00
C721   C     0.44192   0.41784   0.52500   0.00000  Uiso   1.00
C722   C     0.52310   0.65267   0.74818   0.00000  Uiso   1.00
C723   C     0.47690   0.34733   0.75182   0.00000  Uiso   1.00
C724   C     0.50010   0.49972   0.83623   0.00000  Uiso   1.00
C725   C     0.49990   0.50028   0.66377   0.00000  Uiso   1.00
C726   C     0.47263   0.45820   0.59421   0.00000  Uiso   1.00
Cl727  Cl    0.56276   0.59459   0.62326   0.00000  Uiso   1.00
Cl728  Cl    0.43724   0.40541   0.87674   0.00000  Uiso   1.00
Cl729  Cl    0.34617   0.43895   0.70151   0.00000  Uiso   1.00
Cl730  Cl    0.65383   0.56105   0.79848   0.00000  Uiso   1.00
H731   H     0.58131   0.61489   0.53744   0.00000  Uiso   1.00
H732   H     0.50008   0.63754   0.91027   0.00000  Uiso   1.00
H733   H     0.47987   0.60560   0.85782   0.00000  Uiso   1.00
H734   H     0.53883   0.65332   0.85751   0.00000  Uiso   1.00
H735   H     0.41869   0.38511   0.96256   0.00000  Uiso   1.00
H736   H     0.58096   0.61407   0.95702   0.00000  Uiso   1.00
H737   H     0.41904   0.38593   0.54298   0.00000  Uiso   1.00
H738   H     0.56678   0.33623   0.74463   0.00000  Uiso   1.00
H739   H     0.43322   0.66377   0.75537   0.00000  Uiso   1.00
H740   H     0.52014   0.39440   0.64218   0.00000  Uiso   1.00
H741   H     0.49991   0.36245   0.58973   0.00000  Uiso   1.00
H742   H     0.46117   0.34668   0.64250   0.00000  Uiso   1.00
N743   N     0.65011   0.48598   0.73783   0.00000  Uiso   1.00
N744   N     0.34989   0.51402   0.76217   0.00000  Uiso   1.00
O745   O     0.46308   0.57952   0.75298   0.00000  Uiso   1.00
O746   O     0.55524   0.58211   0.88120   0.00000  Uiso   1.00
O747   O     0.53692   0.42048   0.74701   0.00000  Uiso   1.00
O748   O     0.55946   0.57054   0.74518   0.00000  Uiso   1.00
O749   O     0.44054   0.42946   0.75481   0.00000  Uiso   1.00
O750   O     0.45181   0.50450   0.81997   0.00000  Uiso   1.00
O751   O     0.54819   0.49550   0.68002   0.00000  Uiso   1.00
O752   O     0.54819   0.49552   0.81217   0.00000  Uiso   1.00
O753   O     0.45181   0.50448   0.68782   0.00000  Uiso   1.00
O754   O     0.44476   0.41789   0.61879   0.00000  Uiso   1.00
Zn755  Zn    0.43565   0.50600   0.75521   0.00000  Uiso   1.00
Zn756  Zn    0.56435   0.49400   0.74479   0.00000  Uiso   1.00
C757   C     0.84847   0.59813   0.74890   0.00000  Uiso   1.00
C758   C     0.86070   0.54180   0.90579   0.00000  Uiso   1.00
C759   C     0.83334   0.50058   0.61613   0.00000  Uiso   1.00
C760   C     0.83332   0.49942   0.88387   0.00000  Uiso   1.00
C761   C     0.86222   0.54212   0.59292   0.00000  Uiso   1.00
C762   C     0.80444   0.45788   0.90708   0.00000  Uiso   1.00
C763   C     0.86279   0.54191   0.54609   0.00000  Uiso   1.00
C764   C     0.80388   0.45809   0.95390   0.00000  Uiso   1.00
C765   C     0.83356   0.50010   0.52346   0.00000  Uiso   1.00
C766   C     0.83311   0.49990   0.97654   0.00000  Uiso   1.00
C767   C     0.80466   0.45850   0.54766   0.00000  Uiso   1.00
C768   C     0.81820   0.40187   0.75110   0.00000  Uiso   1.00
C769   C     0.86200   0.54150   0.95233   0.00000  Uiso   1.00
C770   C     0.89163   0.58251   0.52138   0.00000  Uiso   1.00
C771   C     0.77504   0.41749   0.97862   0.00000  Uiso   1.00
C772   C     0.81705   0.37908   0.62317   0.00000  Uiso   1.00
C773   C     0.84962   0.62092   0.87683   0.00000  Uiso   1.00
C774   C     0.89141   0.58216   0.97500   0.00000  Uiso   1.00
C775   C     0.77526   0.41784   0.52500   0.00000  Uiso   1.00
C776   C     0.85643   0.65267   0.74818   0.00000  Uiso   1.00
C777   C     0.81023   0.34733   0.75182   0.00000  Uiso   1.00
C778   C     0.83343   0.49972   0.83623   0.00000  Uiso   1.00
C779   C     0.83323   0.50028   0.66377   0.00000  Uiso   1.00
C780   C     0.80596   0.45820   0.59421   0.00000  Uiso   1.00
Cl781  Cl    0.89609   0.59459   0.62326   0.00000  Uiso   1.00
Cl782  Cl    0.77057   0.40541   0.87674   0.00000  Uiso   1.00
Cl783  Cl    0.67950   0.43895   0.70151   0.00000  Uiso   1.00
Cl784  Cl    0.98716   0.56105   0.79848   0.00000  Uiso   1.00
H785   H     0.91465   0.61489   0.53744   0.00000  Uiso   1.00
H786   H     0.83342   0.63754   0.91027   0.00000  Uiso   1.00
H787   H     0.81320   0.60560   0.85782   0.00000  Uiso   1.00
H788   H     0.87216   0.65332   0.85751   0.00000  Uiso   1.00
H789   H     0.75202   0.38511   0.96256   0.00000  Uiso   1.00
H790   H     0.91429   0.61407   0.95702   0.00000  Uiso   1.00
H791   H     0.75237   0.38593   0.54298   0.00000  Uiso   1.00
H792   H     0.90012   0.33623   0.74463   0.00000  Uiso   1.00
H793   H     0.76655   0.66377   0.75537   0.00000  Uiso   1.00
H794   H     0.85347   0.39440   0.64218   0.00000  Uiso   1.00
H795   H     0.83324   0.36245   0.58973   0.00000  Uiso   1.00
H796   H     0.79450   0.34668   0.64250   0.00000  Uiso   1.00
N797   N     0.98344   0.48598   0.73783   0.00000  Uiso   1.00
N798   N     0.68322   0.51402   0.76217   0.00000  Uiso   1.00
O799   O     0.79642   0.57952   0.75298   0.00000  Uiso   1.00
O800   O     0.88857   0.58211   0.88120   0.00000  Uiso   1.00
O801   O     0.87025   0.42048   0.74701   0.00000  Uiso   1.00
O802   O     0.89280   0.57054   0.74518   0.00000  Uiso   1.00
O803   O     0.77387   0.42946   0.75481   0.00000  Uiso   1.00
O804   O     0.78514   0.50450   0.81997   0.00000  Uiso   1.00
O805   O     0.88153   0.49550   0.68002   0.00000  Uiso   1.00
O806   O     0.88152   0.49552   0.81217   0.00000  Uiso   1.00
O807   O     0.78515   0.50448   0.68782   0.00000  Uiso   1.00
O808   O     0.77809   0.41789   0.61879   0.00000  Uiso   1.00
Zn809  Zn    0.76898   0.50600   0.75521   0.00000  Uiso   1.00
Zn810  Zn    0.89769   0.49400   0.74479   0.00000  Uiso   1.00
C811   C     0.18180   0.93147   0.74890   0.00000  Uiso   1.00
C812   C     0.19404   0.87513   0.90579   0.00000  Uiso   1.00
C813   C     0.16668   0.83391   0.61613   0.00000  Uiso   1.00
C814   C     0.16666   0.83275   0.88387   0.00000  Uiso   1.00
C815   C     0.19556   0.87546   0.59292   0.00000  Uiso   1.00
C816   C     0.13778   0.79121   0.90708   0.00000  Uiso   1.00
C817   C     0.19613   0.87524   0.54609   0.00000  Uiso   1.00
C818   C     0.13721   0.79143   0.95390   0.00000  Uiso   1.00
C819   C     0.16689   0.83343   0.52346   0.00000  Uiso   1.00
C820   C     0.16644   0.83324   0.97654   0.00000  Uiso   1.00
C821   C     0.13800   0.79183   0.54766   0.00000  Uiso   1.00
C822   C     0.15153   0.73520   0.75110   0.00000  Uiso   1.00
C823   C     0.19534   0.87483   0.95233   0.00000  Uiso   1.00
C824   C     0.22496   0.91584   0.52138   0.00000  Uiso   1.00
C825   C     0.10837   0.75083   0.97862   0.00000  Uiso   1.00
C826   C     0.15038   0.71242   0.62317   0.00000  Uiso   1.00
C827   C     0.18295   0.95425   0.87683   0.00000  Uiso   1.00
C828   C     0.22474   0.91550   0.97500   0.00000  Uiso   1.00
C829   C     0.10859   0.75117   0.52500   0.00000  Uiso   1.00
C830   C     0.18977   0.98600   0.74818   0.00000  Uiso   1.00
C831   C     0.14357   0.68067   0.75182   0.00000  Uiso   1.00
C832   C     0.16677   0.83305   0.83623   0.00000  Uiso   1.00
C833   C     0.16657   0.83362   0.66377   0.00000  Uiso   1.00
C834   C     0.13930   0.79153   0.59421   0.00000  Uiso   1.00
Cl835  Cl    0.22943   0.92793   0.62326   0.00000  Uiso   1.00
Cl836  Cl    0.10391   0.73874   0.87674   0.00000  Uiso   1.00
Cl837  Cl    0.01284   0.77228   0.70151   0.00000  Uiso   1.00
Cl838  Cl    0.32050   0.89438   0.79848   0.00000  Uiso   1.00
H839   H     0.24798   0.94822   0.53744   0.00000  Uiso   1.00
H840   H     0.16675   0.97088   0.91027   0.00000  Uiso   1.00
H841   H     0.14654   0.93894   0.85782   0.00000  Uiso   1.00
H842   H     0.20550   0.98666   0.85751   0.00000  Uiso   1.00
H843   H     0.08535   0.71845   0.96256   0.00000  Uiso   1.00
H844   H     0.24763   0.94740   0.95702   0.00000  Uiso   1.00
H845   H     0.08571   0.71927   0.54298   0.00000  Uiso   1.00
H846   H     0.23345   0.66957   0.74463   0.00000  Uiso   1.00
H847   H     0.09988   0.99710   0.75537   0.00000  Uiso   1.00
H848   H     0.18680   0.72773   0.64218   0.00000  Uiso   1.00
H849   H     0.16657   0.69578   0.58973   0.00000  Uiso   1.00
H850   H     0.12784   0.68001   0.64250   0.00000  Uiso   1.00
N851   N     0.31678   0.81932   0.73783   0.00000  Uiso   1.00
N852   N     0.01656   0.84735   0.76217   0.00000  Uiso   1.00
O853   O     0.12975   0.91286   0.75298   0.00000  Uiso   1.00
O854   O     0.22191   0.91544   0.88120   0.00000  Uiso   1.00
O855   O     0.20358   0.75381   0.74701   0.00000  Uiso   1.00
O856   O     0.22613   0.90387   0.74518   0.00000  Uiso   1.00
O857   O     0.10720   0.76279   0.75481   0.00000  Uiso   1.00
O858   O     0.11847   0.83784   0.81997   0.00000  Uiso   1.00
O859   O     0.21486   0.82883   0.68002   0.00000  Uiso   1.00
O860   O     0.21485   0.82885   0.81217   0.00000  Uiso   1.00
O861   O     0.11848   0.83781   0.68782   0.00000  Uiso   1.00
O862   O     0.11143   0.75122   0.61879   0.00000  Uiso   1.00
Zn863  Zn    0.10231   0.83933   0.75521   0.00000  Uiso   1.00
Zn864  Zn    0.23102   0.82734   0.74479   0.00000  Uiso   1.00
C865   C     0.51514   0.93147   0.74890   0.00000  Uiso   1.00
C866   C     0.52737   0.87513   0.90579   0.00000  Uiso   1.00
C867   C     0.50001   0.83391   0.61613   0.00000  Uiso   1.00
C868   C     0.49999   0.83275   0.88387   0.00000  Uiso   1.00
C869   C     0.52889   0.87546   0.59292   0.00000  Uiso   1.00
C870   C     0.47111   0.79121   0.90708   0.00000  Uiso   1.00
C871   C     0.52946   0.87524   0.54609   0.00000  Uiso   1.00
C872   C     0.47054   0.79143   0.95390   0.00000  Uiso   1.00
C873   C     0.50022   0.83343   0.52346   0.00000  Uiso   1.00
C874   C     0.49978   0.83324   0.97654   0.00000  Uiso   1.00
C875   C     0.47133   0.79183   0.54766   0.00000  Uiso   1.00
C876   C     0.48486   0.73520   0.75110   0.00000  Uiso   1.00
C877   C     0.52867   0.87483   0.95233   0.00000  Uiso   1.00
C878   C     0.55830   0.91584   0.52138   0.00000  Uiso   1.00
C879   C     0.44170   0.75083   0.97862   0.00000  Uiso   1.00
C880   C     0.48371   0.71242   0.62317   0.00000  Uiso   1.00
C881   C     0.51629   0.95425   0.87683   0.00000  Uiso   1.00
C882   C     0.55808   0.91550   0.97500   0.00000  Uiso   1.00
C883   C     0.44192   0.75117   0.52500   0.00000  Uiso   1.00
C884   C     0.52310   0.98600   0.74818   0.00000  Uiso   1.00
C885   C     0.47690   0.68067   0.75182   0.00000  Uiso   1.00
C886   C     0.50010   0.83305   0.83623   0.00000  Uiso   1.00
C887   C     0.49990   0.83362   0.66377   0.00000  Uiso   1.00
C888   C     0.47263   0.79153   0.59421   0.00000  Uiso   1.00
Cl889  Cl    0.56276   0.92793   0.62326   0.00000  Uiso   1.00
Cl890  Cl    0.43724   0.73874   0.87674   0.00000  Uiso   1.00
Cl891  Cl    0.34617   0.77228   0.70151   0.00000  Uiso   1.00
Cl892  Cl    0.65383   0.89438   0.79848   0.00000  Uiso   1.00
H893   H     0.58131   0.94822   0.53744   0.00000  Uiso   1.00
H894   H     0.50008   0.97088   0.91027   0.00000  Uiso   1.00
H895   H     0.47987   0.93894   0.85782   0.00000  Uiso   1.00
H896   H     0.53883   0.98666   0.85751   0.00000  Uiso   1.00
H897   H     0.41869   0.71845   0.96256   0.00000  Uiso   1.00
H898   H     0.58096   0.94740   0.95702   0.00000  Uiso   1.00
H899   H     0.41904   0.71927   0.54298   0.00000  Uiso   1.00
H900   H     0.56678   0.66957   0.74463   0.00000  Uiso   1.00
H901   H     0.43322   0.99710   0.75537   0.00000  Uiso   1.00
H902   H     0.52014   0.72773   0.64218   0.00000  Uiso   1.00
H903   H     0.49991   0.69578   0.58973   0.00000  Uiso   1.00
H904   H     0.46117   0.68001   0.64250   0.00000  Uiso   1.00
N905   N     0.65011   0.81932   0.73783   0.00000  Uiso   1.00
N906   N     0.34989   0.84735   0.76217   0.00000  Uiso   1.00
O907   O     0.46308   0.91286   0.75298   0.00000  Uiso   1.00
O908   O     0.55524   0.91544   0.88120   0.00000  Uiso   1.00
O909   O     0.53692   0.75381   0.74701   0.00000  Uiso   1.00
O910   O     0.55946   0.90387   0.74518   0.00000  Uiso   1.00
O911   O     0.44054   0.76279   0.75481   0.00000  Uiso   1.00
O912   O     0.45181   0.83784   0.81997   0.00000  Uiso   1.00
O913   O     0.54819   0.82883   0.68002   0.00000  Uiso   1.00
O914   O     0.54819   0.82885   0.81217   0.00000  Uiso   1.00
O915   O     0.45181   0.83781   0.68782   0.00000  Uiso   1.00
O916   O     0.44476   0.75122   0.61879   0.00000  Uiso   1.00
Zn917  Zn    0.43565   0.83933   0.75521   0.00000  Uiso   1.00
Zn918  Zn    0.56435   0.82734   0.74479   0.00000  Uiso   1.00
C919   C     0.84847   0.93147   0.74890   0.00000  Uiso   1.00
C920   C     0.86070   0.87513   0.90579   0.00000  Uiso   1.00
C921   C     0.83334   0.83391   0.61613   0.00000  Uiso   1.00
C922   C     0.83332   0.83275   0.88387   0.00000  Uiso   1.00
C923   C     0.86222   0.87546   0.59292   0.00000  Uiso   1.00
C924   C     0.80444   0.79121   0.90708   0.00000  Uiso   1.00
C925   C     0.86279   0.87524   0.54609   0.00000  Uiso   1.00
C926   C     0.80388   0.79143   0.95390   0.00000  Uiso   1.00
C927   C     0.83356   0.83343   0.52346   0.00000  Uiso   1.00
C928   C     0.83311   0.83324   0.97654   0.00000  Uiso   1.00
C929   C     0.80466   0.79183   0.54766   0.00000  Uiso   1.00
C930   C     0.81820   0.73520   0.75110   0.00000  Uiso   1.00
C931   C     0.86200   0.87483   0.95233   0.00000  Uiso   1.00
C932   C     0.89163   0.91584   0.52138   0.00000  Uiso   1.00
C933   C     0.77504   0.75083   0.97862   0.00000  Uiso   1.00
C934   C     0.81705   0.71242   0.62317   0.00000  Uiso   1.00
C935   C     0.84962   0.95425   0.87683   0.00000  Uiso   1.00
C936   C     0.89141   0.91550   0.97500   0.00000  Uiso   1.00
C937   C     0.77526   0.75117   0.52500   0.00000  Uiso   1.00
C938   C     0.85643   0.98600   0.74818   0.00000  Uiso   1.00
C939   C     0.81023   0.68067   0.75182   0.00000  Uiso   1.00
C940   C     0.83343   0.83305   0.83623   0.00000  Uiso   1.00
C941   C     0.83323   0.83362   0.66377   0.00000  Uiso   1.00
C942   C     0.80596   0.79153   0.59421   0.00000  Uiso   1.00
Cl943  Cl    0.89609   0.92793   0.62326   0.00000  Uiso   1.00
Cl944  Cl    0.77057   0.73874   0.87674   0.00000  Uiso   1.00
Cl945  Cl    0.67950   0.77228   0.70151   0.00000  Uiso   1.00
Cl946  Cl    0.98716   0.89438   0.79848   0.00000  Uiso   1.00
H947   H     0.91465   0.94822   0.53744   0.00000  Uiso   1.00
H948   H     0.83342   0.97088   0.91027   0.00000  Uiso   1.00
H949   H     0.81320   0.93894   0.85782   0.00000  Uiso   1.00
H950   H     0.87216   0.98666   0.85751   0.00000  Uiso   1.00
H951   H     0.75202   0.71845   0.96256   0.00000  Uiso   1.00
H952   H     0.91429   0.94740   0.95702   0.00000  Uiso   1.00
H953   H     0.75237   0.71927   0.54298   0.00000  Uiso   1.00
H954   H     0.90012   0.66957   0.74463   0.00000  Uiso   1.00
H955   H     0.76655   0.99710   0.75537   0.00000  Uiso   1.00
H956   H     0.85347   0.72773   0.64218   0.00000  Uiso   1.00
H957   H     0.83324   0.69578   0.58973   0.00000  Uiso   1.00
H958   H     0.79450   0.68001   0.64250   0.00000  Uiso   1.00
N959   N     0.98344   0.81932   0.73783   0.00000  Uiso   1.00
N960   N     0.68322   0.84735   0.76217   0.00000  Uiso   1.00
O961   O     0.79642   0.91286   0.75298   0.00000  Uiso   1.00
O962   O     0.88857   0.91544   0.88120   0.00000  Uiso   1.00
O963   O     0.87025   0.75381   0.74701   0.00000  Uiso   1.00
O964   O     0.89280   0.90387   0.74518   0.00000  Uiso   1.00
O965   O     0.77387   0.76279   0.75481   0.00000  Uiso   1.00
O966   O     0.78514   0.83784   0.81997   0.00000  Uiso   1.00
O967   O     0.88153   0.82883   0.68002   0.00000  Uiso   1.00
O968   O     0.88152   0.82885   0.81217   0.00000  Uiso   1.00
O969   O     0.78515   0.83781   0.68782   0.00000  Uiso   1.00
O970   O     0.77809   0.75122   0.61879   0.00000  Uiso   1.00
Zn971  Zn    0.76898   0.83933   0.75521   0.00000  Uiso   1.00
Zn972  Zn    0.89769   0.82734   0.74479   0.00000  Uiso   1.00
loop_
_geom_bond_atom_site_label_1
_geom_bond_atom_site_label_2
_geom_bond_distance
_geom_bond_site_symmetry_2
_ccdc_geom_bond_type
C1     O46     1.290   .     A
C1     C20     1.399   .     S
C1     O43     1.283   .     A
C2     C4      1.398   .     A
C2     C13     1.391   .     A
C2     O44     1.387   .     S
C3     C24     1.398   .     A
C3     C5      1.399   .     A
C3     C23     1.420   .     S
C4     C22     1.420   .     S
C4     C6      1.399   .     A
C5     Cl25    1.778   .     S
C5     C7      1.395   .     A
C6     Cl26    1.778   .     S
C6     C8      1.395   .     A
C7     C9      1.418   .     A
C7     C14     1.403   .     A
C8     C10     1.418   .     A
C8     C15     1.403   .     A
C9     C11     1.415   .     A
C9     C496    1.400   1_554 S
C10    C13     1.415   .     A
C10    C495    1.400   .     S
C11    C19     1.400   .     A
C11    C24     1.391   .     A
C12    O47     1.290   .     A
C12    C21     1.399   .     S
C12    O45     1.283   .     A
C13    C18     1.400   .     A
C14    H29     1.081   .     S
C14    C504    1.383   1_554 S
C15    H33     1.081   .     S
C15    C505    1.383   .     S
C16    H40     1.109   .     S
C16    H39     1.113   .     S
C16    O52     1.411   .     S
C16    H38     1.112   .     S
C17    O44     1.411   .     S
C17    H30     1.113   .     S
C17    H31     1.112   .     S
C17    H32     1.109   .     S
C18    H34     1.083   .     S
C18    C500    1.383   .     S
C19    H35     1.083   .     S
C19    C501    1.383   1_554 S
C20    C183    1.334   .     S
C20    H198    1.088   .     S
C21    C344    1.334   1_545 S
C21    H361    1.088   1_545 S
C22    O50     1.292   .     A
C22    O48     1.289   .     A
C23    O51     1.292   .     A
C23    O49     1.289   .     A
C24    O52     1.387   .     S
Cl27   N149    1.723   1_455 S
Cl28   N96     1.723   .     S
H36    C344    1.088   1_545 S
H37    C183    1.088   .     S
N41    Zn54    2.032   .     S
N41    Cl81    1.723   .     S
N41    N96     1.281   .     S
N42    Zn53    2.032   .     S
N42    N149    1.281   1_455 S
N42    Cl136   1.723   1_455 S
O43    Zn53    1.955   .     S
O45    Zn54    1.955   .     S
O46    Zn54    1.971   .     S
O47    Zn53    1.971   .     S
O48    Zn53    2.004   .     S
O49    Zn54    2.004   .     S
O50    Zn54    2.010   .     S
O51    Zn53    2.010   .     S
C55    O100    1.290   .     A
C55    C74     1.399   .     S
C55    O97     1.283   .     A
C56    C58     1.398   .     A
C56    C67     1.391   .     A
C56    O98     1.387   .     S
C57    C78     1.398   .     A
C57    C59     1.399   .     A
C57    C77     1.420   .     S
C58    C76     1.420   .     S
C58    C60     1.399   .     A
C59    Cl79    1.778   .     S
C59    C61     1.395   .     A
C60    Cl80    1.778   .     S
C60    C62     1.395   .     A
C61    C63     1.418   .     A
C61    C68     1.403   .     A
C62    C64     1.418   .     A
C62    C69     1.403   .     A
C63    C65     1.415   .     A
C63    C550    1.400   1_554 S
C64    C67     1.415   .     A
C64    C549    1.400   .     S
C65    C73     1.400   .     A
C65    C78     1.391   .     A
C66    O101    1.290   .     A
C66    C75     1.399   .     S
C66    O99     1.283   .     A
C67    C72     1.400   .     A
C68    H83     1.081   .     S
C68    C558    1.383   1_554 S
C69    H87     1.081   .     S
C69    C559    1.383   .     S
C70    H94     1.109   .     S
C70    H93     1.113   .     S
C70    O106    1.411   .     S
C70    H92     1.112   .     S
C71    O98     1.411   .     S
C71    H84     1.113   .     S
C71    H85     1.112   .     S
C71    H86     1.109   .     S
C72    H88     1.083   .     S
C72    C554    1.383   .     S
C73    H89     1.083   .     S
C73    C555    1.383   1_554 S
C74    C237    1.334   .     S
C74    H252    1.088   .     S
C75    C398    1.334   1_545 S
C75    H415    1.088   1_545 S
C76    O104    1.292   .     A
C76    O102    1.289   .     A
C77    O105    1.292   .     A
C77    O103    1.289   .     A
C78    O106    1.387   .     S
Cl82   N150    1.723   .     S
H90    C398    1.088   1_545 S
H91    C237    1.088   .     S
N95    Zn108   2.032   .     S
N95    Cl135   1.723   .     S
N95    N150    1.281   .     S
N96    Zn107   2.032   .     S
O97    Zn107   1.955   .     S
O99    Zn108   1.955   .     S
O100   Zn108   1.971   .     S
O101   Zn107   1.971   .     S
O102   Zn107   2.004   .     S
O103   Zn108   2.004   .     S
O104   Zn108   2.010   .     S
O105   Zn107   2.010   .     S
C109   O154    1.290   .     A
C109   C128    1.399   .     S
C109   O151    1.283   .     A
C110   C112    1.398   .     A
C110   C121    1.391   .     A
C110   O152    1.387   .     S
C111   C132    1.398   .     A
C111   C113    1.399   .     A
C111   C131    1.420   .     S
C112   C130    1.420   .     S
C112   C114    1.399   .     A
C113   Cl133   1.778   .     S
C113   C115    1.395   .     A
C114   Cl134   1.778   .     S
C114   C116    1.395   .     A
C115   C117    1.418   .     A
C115   C122    1.403   .     A
C116   C118    1.418   .     A
C116   C123    1.403   .     A
C117   C119    1.415   .     A
C117   C604    1.400   1_554 S
C118   C121    1.415   .     A
C118   C603    1.400   .     S
C119   C127    1.400   .     A
C119   C132    1.391   .     A
C120   O155    1.290   .     A
C120   C129    1.399   .     S
C120   O153    1.283   .     A
C121   C126    1.400   .     A
C122   H137    1.081   .     S
C122   C612    1.383   1_554 S
C123   H141    1.081   .     S
C123   C613    1.383   .     S
C124   H148    1.109   .     S
C124   H147    1.113   .     S
C124   O160    1.411   .     S
C124   H146    1.112   .     S
C125   O152    1.411   .     S
C125   H138    1.113   .     S
C125   H139    1.112   .     S
C125   H140    1.109   .     S
C126   H142    1.083   .     S
C126   C608    1.383   .     S
C127   H143    1.083   .     S
C127   C609    1.383   1_554 S
C128   C291    1.334   .     S
C128   H306    1.088   .     S
C129   C452    1.334   1_545 S
C129   H469    1.088   1_545 S
C130   O158    1.292   .     A
C130   O156    1.289   .     A
C131   O159    1.292   .     A
C131   O157    1.289   .     A
C132   O160    1.387   .     S
Cl136  N42     1.723   1_655 S
H144   C452    1.088   1_545 S
H145   C291    1.088   .     S
N149   Zn162   2.032   .     S
N149   Cl27    1.723   1_655 S
N149   N42     1.281   1_655 S
N150   Zn161   2.032   .     S
O151   Zn161   1.955   .     S
O153   Zn162   1.955   .     S
O154   Zn162   1.971   .     S
O155   Zn161   1.971   .     S
O156   Zn161   2.004   .     S
O157   Zn162   2.004   .     S
O158   Zn162   2.010   .     S
O159   Zn161   2.010   .     S
C163   O208    1.290   .     A
C163   C182    1.399   .     S
C163   O205    1.283   .     A
C164   C166    1.398   .     A
C164   C175    1.391   .     A
C164   O206    1.387   .     S
C165   C186    1.398   .     A
C165   C167    1.399   .     A
C165   C185    1.420   .     S
C166   C184    1.420   .     S
C166   C168    1.399   .     A
C167   Cl187   1.778   .     S
C167   C169    1.395   .     A
C168   Cl188   1.778   .     S
C168   C170    1.395   .     A
C169   C171    1.418   .     A
C169   C176    1.403   .     A
C170   C172    1.418   .     A
C170   C177    1.403   .     A
C171   C173    1.415   .     A
C171   C658    1.400   1_554 S
C172   C175    1.415   .     A
C172   C657    1.400   .     S
C173   C181    1.400   .     A
C173   C186    1.391   .     A
C174   O209    1.290   .     A
C174   C183    1.399   .     S
C174   O207    1.283   .     A
C175   C180    1.400   .     A
C176   H191    1.081   .     S
C176   C666    1.383   1_554 S
C177   H195    1.081   .     S
C177   C667    1.383   .     S
C178   H202    1.109   .     S
C178   H201    1.113   .     S
C178   O214    1.411   .     S
C178   H200    1.112   .     S
C179   O206    1.411   .     S
C179   H192    1.113   .     S
C179   H193    1.112   .     S
C179   H194    1.109   .     S
C180   H196    1.083   .     S
C180   C662    1.383   .     S
C181   H197    1.083   .     S
C181   C663    1.383   1_554 S
C182   C345    1.334   .     S
C182   H360    1.088   .     S
C184   O212    1.292   .     A
C184   O210    1.289   .     A
C185   O213    1.292   .     A
C185   O211    1.289   .     A
C186   O214    1.387   .     S
Cl189  N311    1.723   1_455 S
Cl190  N258    1.723   .     S
H199   C345    1.088   .     S
N203   Zn216   2.032   .     S
N203   Cl243   1.723   .     S
N203   N258    1.281   .     S
N204   Zn215   2.032   .     S
N204   N311    1.281   1_455 S
N204   Cl298   1.723   1_455 S
O205   Zn215   1.955   .     S
O207   Zn216   1.955   .     S
O208   Zn216   1.971   .     S
O209   Zn215   1.971   .     S
O210   Zn215   2.004   .     S
O211   Zn216   2.004   .     S
O212   Zn216   2.010   .     S
O213   Zn215   2.010   .     S
C217   O262    1.290   .     A
C217   C236    1.399   .     S
C217   O259    1.283   .     A
C218   C220    1.398   .     A
C218   C229    1.391   .     A
C218   O260    1.387   .     S
C219   C240    1.398   .     A
C219   C221    1.399   .     A
C219   C239    1.420   .     S
C220   C238    1.420   .     S
C220   C222    1.399   .     A
C221   Cl241   1.778   .     S
C221   C223    1.395   .     A
C222   Cl242   1.778   .     S
C222   C224    1.395   .     A
C223   C225    1.418   .     A
C223   C230    1.403   .     A
C224   C226    1.418   .     A
C224   C231    1.403   .     A
C225   C227    1.415   .     A
C225   C712    1.400   1_554 S
C226   C229    1.415   .     A
C226   C711    1.400   .     S
C227   C235    1.400   .     A
C227   C240    1.391   .     A
C228   O263    1.290   .     A
C228   C237    1.399   .     S
C228   O261    1.283   .     A
C229   C234    1.400   .     A
C230   H245    1.081   .     S
C230   C720    1.383   1_554 S
C231   H249    1.081   .     S
C231   C721    1.383   .     S
C232   H256    1.109   .     S
C232   H255    1.113   .     S
C232   O268    1.411   .     S
C232   H254    1.112   .     S
C233   O260    1.411   .     S
C233   H246    1.113   .     S
C233   H247    1.112   .     S
C233   H248    1.109   .     S
C234   H250    1.083   .     S
C234   C716    1.383   .     S
C235   H251    1.083   .     S
C235   C717    1.383   1_554 S
C236   C399    1.334   .     S
C236   H414    1.088   .     S
C238   O266    1.292   .     A
C238   O264    1.289   .     A
C239   O267    1.292   .     A
C239   O265    1.289   .     A
C240   O268    1.387   .     S
Cl244  N312    1.723   .     S
H253   C399    1.088   .     S
N257   Zn270   2.032   .     S
N257   Cl297   1.723   .     S
N257   N312    1.281   .     S
N258   Zn269   2.032   .     S
O259   Zn269   1.955   .     S
O261   Zn270   1.955   .     S
O262   Zn270   1.971   .     S
O263   Zn269   1.971   .     S
O264   Zn269   2.004   .     S
O265   Zn270   2.004   .     S
O266   Zn270   2.010   .     S
O267   Zn269   2.010   .     S
C271   O316    1.290   .     A
C271   C290    1.399   .     S
C271   O313    1.283   .     A
C272   C274    1.398   .     A
C272   C283    1.391   .     A
C272   O314    1.387   .     S
C273   C294    1.398   .     A
C273   C275    1.399   .     A
C273   C293    1.420   .     S
C274   C292    1.420   .     S
C274   C276    1.399   .     A
C275   Cl295   1.778   .     S
C275   C277    1.395   .     A
C276   Cl296   1.778   .     S
C276   C278    1.395   .     A
C277   C279    1.418   .     A
C277   C284    1.403   .     A
C278   C280    1.418   .     A
C278   C285    1.403   .     A
C279   C281    1.415   .     A
C279   C766    1.400   1_554 S
C280   C283    1.415   .     A
C280   C765    1.400   .     S
C281   C289    1.400   .     A
C281   C294    1.391   .     A
C282   O317    1.290   .     A
C282   C291    1.399   .     S
C282   O315    1.283   .     A
C283   C288    1.400   .     A
C284   H299    1.081   .     S
C284   C774    1.383   1_554 S
C285   H303    1.081   .     S
C285   C775    1.383   .     S
C286   H310    1.109   .     S
C286   H309    1.113   .     S
C286   O322    1.411   .     S
C286   H308    1.112   .     S
C287   O314    1.411   .     S
C287   H300    1.113   .     S
C287   H301    1.112   .     S
C287   H302    1.109   .     S
C288   H304    1.083   .     S
C288   C770    1.383   .     S
C289   H305    1.083   .     S
C289   C771    1.383   1_554 S
C290   C453    1.334   .     S
C290   H468    1.088   .     S
C292   O320    1.292   .     A
C292   O318    1.289   .     A
C293   O321    1.292   .     A
C293   O319    1.289   .     A
C294   O322    1.387   .     S
Cl298  N204    1.723   1_655 S
H307   C453    1.088   .     S
N311   Zn324   2.032   .     S
N311   Cl189   1.723   1_655 S
N311   N204    1.281   1_655 S
N312   Zn323   2.032   .     S
O313   Zn323   1.955   .     S
O315   Zn324   1.955   .     S
O316   Zn324   1.971   .     S
O317   Zn323   1.971   .     S
O318   Zn323   2.004   .     S
O319   Zn324   2.004   .     S
O320   Zn324   2.010   .     S
O321   Zn323   2.010   .     S
C325   O370    1.290   .     A
C325   C344    1.399   .     S
C325   O367    1.283   .     A
C326   C328    1.398   .     A
C326   C337    1.391   .     A
C326   O368    1.387   .     S
C327   C348    1.398   .     A
C327   C329    1.399   .     A
C327   C347    1.420   .     S
C328   C346    1.420   .     S
C328   C330    1.399   .     A
C329   Cl349   1.778   .     S
C329   C331    1.395   .     A
C330   Cl350   1.778   .     S
C330   C332    1.395   .     A
C331   C333    1.418   .     A
C331   C338    1.403   .     A
C332   C334    1.418   .     A
C332   C339    1.403   .     A
C333   C335    1.415   .     A
C333   C820    1.400   1_554 S
C334   C337    1.415   .     A
C334   C819    1.400   .     S
C335   C343    1.400   .     A
C335   C348    1.391   .     A
C336   O371    1.290   .     A
C336   C345    1.399   .     S
C336   O369    1.283   .     A
C337   C342    1.400   .     A
C338   H353    1.081   .     S
C338   C828    1.383   1_554 S
C339   H357    1.081   .     S
C339   C829    1.383   .     S
C340   H364    1.109   .     S
C340   H363    1.113   .     S
C340   O376    1.411   .     S
C340   H362    1.112   .     S
C341   O368    1.411   .     S
C341   H354    1.113   .     S
C341   H355    1.112   .     S
C341   H356    1.109   .     S
C342   H358    1.083   .     S
C342   C824    1.383   .     S
C343   H359    1.083   .     S
C343   C825    1.383   1_554 S
C344   C21     1.334   1_565 S
C344   H36     1.088   1_565 S
C346   O374    1.292   .     A
C346   O372    1.289   .     A
C347   O375    1.292   .     A
C347   O373    1.289   .     A
C348   O376    1.387   .     S
Cl351  N473    1.723   1_455 S
Cl352  N420    1.723   .     S
H361   C21     1.088   1_565 S
N365   Zn378   2.032   .     S
N365   Cl405   1.723   .     S
N365   N420    1.281   .     S
N366   Zn377   2.032   .     S
N366   N473    1.281   1_455 S
N366   Cl460   1.723   1_455 S
O367   Zn377   1.955   .     S
O369   Zn378   1.955   .     S
O370   Zn378   1.971   .     S
O371   Zn377   1.971   .     S
O372   Zn377   2.004   .     S
O373   Zn378   2.004   .     S
O374   Zn378   2.010   .     S
O375   Zn377   2.010   .     S
C379   O424    1.290   .     A
C379   C398    1.399   .     S
C379   O421    1.283   .     A
C380   C382    1.398   .     A
C380   C391    1.391   .     A
C380   O422    1.387   .     S
C381   C402    1.398   .     A
C381   C383    1.399   .     A
C381   C401    1.420   .     S
C382   C400    1.420   .     S
C382   C384    1.399   .     A
C383   Cl403   1.778   .     S
C383   C385    1.395   .     A
C384   Cl404   1.778   .     S
C384   C386    1.395   .     A
C385   C387    1.418   .     A
C385   C392    1.403   .     A
C386   C388    1.418   .     A
C386   C393    1.403   .     A
C387   C389    1.415   .     A
C387   C874    1.400   1_554 S
C388   C391    1.415   .     A
C388   C873    1.400   .     S
C389   C397    1.400   .     A
C389   C402    1.391   .     A
C390   O425    1.290   .     A
C390   C399    1.399   .     S
C390   O423    1.283   .     A
C391   C396    1.400   .     A
C392   H407    1.081   .     S
C392   C882    1.383   1_554 S
C393   H411    1.081   .     S
C393   C883    1.383   .     S
C394   H418    1.109   .     S
C394   H417    1.113   .     S
C394   O430    1.411   .     S
C394   H416    1.112   .     S
C395   O422    1.411   .     S
C395   H408    1.113   .     S
C395   H409    1.112   .     S
C395   H410    1.109   .     S
C396   H412    1.083   .     S
C396   C878    1.383   .     S
C397   H413    1.083   .     S
C397   C879    1.383   1_554 S
C398   C75     1.334   1_565 S
C398   H90     1.088   1_565 S
C400   O428    1.292   .     A
C400   O426    1.289   .     A
C401   O429    1.292   .     A
C401   O427    1.289   .     A
C402   O430    1.387   .     S
Cl406  N474    1.723   .     S
H415   C75     1.088   1_565 S
N419   Zn432   2.032   .     S
N419   Cl459   1.723   .     S
N419   N474    1.281   .     S
N420   Zn431   2.032   .     S
O421   Zn431   1.955   .     S
O423   Zn432   1.955   .     S
O424   Zn432   1.971   .     S
O425   Zn431   1.971   .     S
O426   Zn431   2.004   .     S
O427   Zn432   2.004   .     S
O428   Zn432   2.010   .     S
O429   Zn431   2.010   .     S
C433   O478    1.290   .     A
C433   C452    1.399   .     S
C433   O475    1.283   .     A
C434   C436    1.398   .     A
C434   C445    1.391   .     A
C434   O476    1.387   .     S
C435   C456    1.398   .     A
C435   C437    1.399   .     A
C435   C455    1.420   .     S
C436   C454    1.420   .     S
C436   C438    1.399   .     A
C437   Cl457   1.778   .     S
C437   C439    1.395   .     A
C438   Cl458   1.778   .     S
C438   C440    1.395   .     A
C439   C441    1.418   .     A
C439   C446    1.403   .     A
C440   C442    1.418   .     A
C440   C447    1.403   .     A
C441   C443    1.415   .     A
C441   C928    1.400   1_554 S
C442   C445    1.415   .     A
C442   C927    1.400   .     S
C443   C451    1.400   .     A
C443   C456    1.391   .     A
C444   O479    1.290   .     A
C444   C453    1.399   .     S
C444   O477    1.283   .     A
C445   C450    1.400   .     A
C446   H461    1.081   .     S
C446   C936    1.383   1_554 S
C447   H465    1.081   .     S
C447   C937    1.383   .     S
C448   H472    1.109   .     S
C448   H471    1.113   .     S
C448   O484    1.411   .     S
C448   H470    1.112   .     S
C449   O476    1.411   .     S
C449   H462    1.113   .     S
C449   H463    1.112   .     S
C449   H464    1.109   .     S
C450   H466    1.083   .     S
C450   C932    1.383   .     S
C451   H467    1.083   .     S
C451   C933    1.383   1_554 S
C452   C129    1.334   1_565 S
C452   H144    1.088   1_565 S
C454   O482    1.292   .     A
C454   O480    1.289   .     A
C455   O483    1.292   .     A
C455   O481    1.289   .     A
C456   O484    1.387   .     S
Cl460  N366    1.723   1_655 S
H469   C129    1.088   1_565 S
N473   Zn486   2.032   .     S
N473   Cl351   1.723   1_655 S
N473   N366    1.281   1_655 S
N474   Zn485   2.032   .     S
O475   Zn485   1.955   .     S
O477   Zn486   1.955   .     S
O478   Zn486   1.971   .     S
O479   Zn485   1.971   .     S
O480   Zn485   2.004   .     S
O481   Zn486   2.004   .     S
O482   Zn486   2.010   .     S
O483   Zn485   2.010   .     S
C487   O532    1.290   .     A
C487   C506    1.399   .     S
C487   O529    1.283   .     A
C488   C490    1.398   .     A
C488   C499    1.391   .     A
C488   O530    1.387   .     S
C489   C510    1.398   .     A
C489   C491    1.399   .     A
C489   C509    1.420   .     S
C490   C508    1.420   .     S
C490   C492    1.399   .     A
C491   Cl511   1.778   .     S
C491   C493    1.395   .     A
C492   Cl512   1.778   .     S
C492   C494    1.395   .     A
C493   C495    1.418   .     A
C493   C500    1.403   .     A
C494   C496    1.418   .     A
C494   C501    1.403   .     A
C495   C497    1.415   .     A
C496   C499    1.415   .     A
C496   C9      1.400   1_556 S
C497   C505    1.400   .     A
C497   C510    1.391   .     A
C498   O533    1.290   .     A
C498   C507    1.399   .     S
C498   O531    1.283   .     A
C499   C504    1.400   .     A
C500   H515    1.081   .     S
C501   H519    1.081   .     S
C501   C19     1.383   1_556 S
C502   H526    1.109   .     S
C502   H525    1.113   .     S
C502   O538    1.411   .     S
C502   H524    1.112   .     S
C503   O530    1.411   .     S
C503   H516    1.113   .     S
C503   H517    1.112   .     S
C503   H518    1.109   .     S
C504   H520    1.083   .     S
C504   C14     1.383   1_556 S
C505   H521    1.083   .     S
C506   C669    1.334   .     S
C506   H684    1.088   .     S
C507   C830    1.334   1_545 S
C507   H847    1.088   1_545 S
C508   O536    1.292   .     A
C508   O534    1.289   .     A
C509   O537    1.292   .     A
C509   O535    1.289   .     A
C510   O538    1.387   .     S
Cl513  N635    1.723   1_455 S
Cl514  N582    1.723   .     S
H522   C830    1.088   1_545 S
H523   C669    1.088   .     S
N527   Zn540   2.032   .     S
N527   Cl567   1.723   .     S
N527   N582    1.281   .     S
N528   Zn539   2.032   .     S
N528   N635    1.281   1_455 S
N528   Cl622   1.723   1_455 S
O529   Zn539   1.955   .     S
O531   Zn540   1.955   .     S
O532   Zn540   1.971   .     S
O533   Zn539   1.971   .     S
O534   Zn539   2.004   .     S
O535   Zn540   2.004   .     S
O536   Zn540   2.010   .     S
O537   Zn539   2.010   .     S
C541   O586    1.290   .     A
C541   C560    1.399   .     S
C541   O583    1.283   .     A
C542   C544    1.398   .     A
C542   C553    1.391   .     A
C542   O584    1.387   .     S
C543   C564    1.398   .     A
C543   C545    1.399   .     A
C543   C563    1.420   .     S
C544   C562    1.420   .     S
C544   C546    1.399   .     A
C545   Cl565   1.778   .     S
C545   C547    1.395   .     A
C546   Cl566   1.778   .     S
C546   C548    1.395   .     A
C547   C549    1.418   .     A
C547   C554    1.403   .     A
C548   C550    1.418   .     A
C548   C555    1.403   .     A
C549   C551    1.415   .     A
C550   C553    1.415   .     A
C550   C63     1.400   1_556 S
C551   C559    1.400   .     A
C551   C564    1.391   .     A
C552   O587    1.290   .     A
C552   C561    1.399   .     S
C552   O585    1.283   .     A
C553   C558    1.400   .     A
C554   H569    1.081   .     S
C555   H573    1.081   .     S
C555   C73     1.383   1_556 S
C556   H580    1.109   .     S
C556   H579    1.113   .     S
C556   O592    1.411   .     S
C556   H578    1.112   .     S
C557   O584    1.411   .     S
C557   H570    1.113   .     S
C557   H571    1.112   .     S
C557   H572    1.109   .     S
C558   H574    1.083   .     S
C558   C68     1.383   1_556 S
C559   H575    1.083   .     S
C560   C723    1.334   .     S
C560   H738    1.088   .     S
C561   C884    1.334   1_545 S
C561   H901    1.088   1_545 S
C562   O590    1.292   .     A
C562   O588    1.289   .     A
C563   O591    1.292   .     A
C563   O589    1.289   .     A
C564   O592    1.387   .     S
Cl568  N636    1.723   .     S
H576   C884    1.088   1_545 S
H577   C723    1.088   .     S
N581   Zn594   2.032   .     S
N581   Cl621   1.723   .     S
N581   N636    1.281   .     S
N582   Zn593   2.032   .     S
O583   Zn593   1.955   .     S
O585   Zn594   1.955   .     S
O586   Zn594   1.971   .     S
O587   Zn593   1.971   .     S
O588   Zn593   2.004   .     S
O589   Zn594   2.004   .     S
O590   Zn594   2.010   .     S
O591   Zn593   2.010   .     S
C595   O640    1.290   .     A
C595   C614    1.399   .     S
C595   O637    1.283   .     A
C596   C598    1.398   .     A
C596   C607    1.391   .     A
C596   O638    1.387   .     S
C597   C618    1.398   .     A
C597   C599    1.399   .     A
C597   C617    1.420   .     S
C598   C616    1.420   .     S
C598   C600    1.399   .     A
C599   Cl619   1.778   .     S
C599   C601    1.395   .     A
C600   Cl620   1.778   .     S
C600   C602    1.395   .     A
C601   C603    1.418   .     A
C601   C608    1.403   .     A
C602   C604    1.418   .     A
C602   C609    1.403   .     A
C603   C605    1.415   .     A
C604   C607    1.415   .     A
C604   C117    1.400   1_556 S
C605   C613    1.400   .     A
C605   C618    1.391   .     A
C606   O641    1.290   .     A
C606   C615    1.399   .     S
C606   O639    1.283   .     A
C607   C612    1.400   .     A
C608   H623    1.081   .     S
C609   H627    1.081   .     S
C609   C127    1.383   1_556 S
C610   H634    1.109   .     S
C610   H633    1.113   .     S
C610   O646    1.411   .     S
C610   H632    1.112   .     S
C611   O638    1.411   .     S
C611   H624    1.113   .     S
C611   H625    1.112   .     S
C611   H626    1.109   .     S
C612   H628    1.083   .     S
C612   C122    1.383   1_556 S
C613   H629    1.083   .     S
C614   C777    1.334   .     S
C614   H792    1.088   .     S
C615   C938    1.334   1_545 S
C615   H955    1.088   1_545 S
C616   O644    1.292   .     A
C616   O642    1.289   .     A
C617   O645    1.292   .     A
C617   O643    1.289   .     A
C618   O646    1.387   .     S
Cl622  N528    1.723   1_655 S
H630   C938    1.088   1_545 S
H631   C777    1.088   .     S
N635   Zn648   2.032   .     S
N635   Cl513   1.723   1_655 S
N635   N528    1.281   1_655 S
N636   Zn647   2.032   .     S
O637   Zn647   1.955   .     S
O639   Zn648   1.955   .     S
O640   Zn648   1.971   .     S
O641   Zn647   1.971   .     S
O642   Zn647   2.004   .     S
O643   Zn648   2.004   .     S
O644   Zn648   2.010   .     S
O645   Zn647   2.010   .     S
C649   O694    1.290   .     A
C649   C668    1.399   .     S
C649   O691    1.283   .     A
C650   C652    1.398   .     A
C650   C661    1.391   .     A
C650   O692    1.387   .     S
C651   C672    1.398   .     A
C651   C653    1.399   .     A
C651   C671    1.420   .     S
C652   C670    1.420   .     S
C652   C654    1.399   .     A
C653   Cl673   1.778   .     S
C653   C655    1.395   .     A
C654   Cl674   1.778   .     S
C654   C656    1.395   .     A
C655   C657    1.418   .     A
C655   C662    1.403   .     A
C656   C658    1.418   .     A
C656   C663    1.403   .     A
C657   C659    1.415   .     A
C658   C661    1.415   .     A
C658   C171    1.400   1_556 S
C659   C667    1.400   .     A
C659   C672    1.391   .     A
C660   O695    1.290   .     A
C660   C669    1.399   .     S
C660   O693    1.283   .     A
C661   C666    1.400   .     A
C662   H677    1.081   .     S
C663   H681    1.081   .     S
C663   C181    1.383   1_556 S
C664   H688    1.109   .     S
C664   H687    1.113   .     S
C664   O700    1.411   .     S
C664   H686    1.112   .     S
C665   O692    1.411   .     S
C665   H678    1.113   .     S
C665   H679    1.112   .     S
C665   H680    1.109   .     S
C666   H682    1.083   .     S
C666   C176    1.383   1_556 S
C667   H683    1.083   .     S
C668   C831    1.334   .     S
C668   H846    1.088   .     S
C670   O698    1.292   .     A
C670   O696    1.289   .     A
C671   O699    1.292   .     A
C671   O697    1.289   .     A
C672   O700    1.387   .     S
Cl675  N797    1.723   1_455 S
Cl676  N744    1.723   .     S
H685   C831    1.088   .     S
N689   Zn702   2.032   .     S
N689   Cl729   1.723   .     S
N689   N744    1.281   .     S
N690   Zn701   2.032   .     S
N690   N797    1.281   1_455 S
N690   Cl784   1.723   1_455 S
O691   Zn701   1.955   .     S
O693   Zn702   1.955   .     S
O694   Zn702   1.971   .     S
O695   Zn701   1.971   .     S
O696   Zn701   2.004   .     S
O697   Zn702   2.004   .     S
O698   Zn702   2.010   .     S
O699   Zn701   2.010   .     S
C703   O748    1.290   .     A
C703   C722    1.399   .     S
C703   O745    1.283   .     A
C704   C706    1.398   .     A
C704   C715    1.391   .     A
C704   O746    1.387   .     S
C705   C726    1.398   .     A
C705   C707    1.399   .     A
C705   C725    1.420   .     S
C706   C724    1.420   .     S
C706   C708    1.399   .     A
C707   Cl727   1.778   .     S
C707   C709    1.395   .     A
C708   Cl728   1.778   .     S
C708   C710    1.395   .     A
C709   C711    1.418   .     A
C709   C716    1.403   .     A
C710   C712    1.418   .     A
C710   C717    1.403   .     A
C711   C713    1.415   .     A
C712   C715    1.415   .     A
C712   C225    1.400   1_556 S
C713   C721    1.400   .     A
C713   C726    1.391   .     A
C714   O749    1.290   .     A
C714   C723    1.399   .     S
C714   O747    1.283   .     A
C715   C720    1.400   .     A
C716   H731    1.081   .     S
C717   H735    1.081   .     S
C717   C235    1.383   1_556 S
C718   H742    1.109   .     S
C718   H741    1.113   .     S
C718   O754    1.411   .     S
C718   H740    1.112   .     S
C719   O746    1.411   .     S
C719   H732    1.113   .     S
C719   H733    1.112   .     S
C719   H734    1.109   .     S
C720   H736    1.083   .     S
C720   C230    1.383   1_556 S
C721   H737    1.083   .     S
C722   C885    1.334   .     S
C722   H900    1.088   .     S
C724   O752    1.292   .     A
C724   O750    1.289   .     A
C725   O753    1.292   .     A
C725   O751    1.289   .     A
C726   O754    1.387   .     S
Cl730  N798    1.723   .     S
H739   C885    1.088   .     S
N743   Zn756   2.032   .     S
N743   Cl783   1.723   .     S
N743   N798    1.281   .     S
N744   Zn755   2.032   .     S
O745   Zn755   1.955   .     S
O747   Zn756   1.955   .     S
O748   Zn756   1.971   .     S
O749   Zn755   1.971   .     S
O750   Zn755   2.004   .     S
O751   Zn756   2.004   .     S
O752   Zn756   2.010   .     S
O753   Zn755   2.010   .     S
C757   O802    1.290   .     A
C757   C776    1.399   .     S
C757   O799    1.283   .     A
C758   C760    1.398   .     A
C758   C769    1.391   .     A
C758   O800    1.387   .     S
C759   C780    1.398   .     A
C759   C761    1.399   .     A
C759   C779    1.420   .     S
C760   C778    1.420   .     S
C760   C762    1.399   .     A
C761   Cl781   1.778   .     S
C761   C763    1.395   .     A
C762   Cl782   1.778   .     S
C762   C764    1.395   .     A
C763   C765    1.418   .     A
C763   C770    1.403   .     A
C764   C766    1.418   .     A
C764   C771    1.403   .     A
C765   C767    1.415   .     A
C766   C769    1.415   .     A
C766   C279    1.400   1_556 S
C767   C775    1.400   .     A
C767   C780    1.391   .     A
C768   O803    1.290   .     A
C768   C777    1.399   .     S
C768   O801    1.283   .     A
C769   C774    1.400   .     A
C770   H785    1.081   .     S
C771   H789    1.081   .     S
C771   C289    1.383   1_556 S
C772   H796    1.109   .     S
C772   H795    1.113   .     S
C772   O808    1.411   .     S
C772   H794    1.112   .     S
C773   O800    1.411   .     S
C773   H786    1.113   .     S
C773   H787    1.112   .     S
C773   H788    1.109   .     S
C774   H790    1.083   .     S
C774   C284    1.383   1_556 S
C775   H791    1.083   .     S
C776   C939    1.334   .     S
C776   H954    1.088   .     S
C778   O806    1.292   .     A
C778   O804    1.289   .     A
C779   O807    1.292   .     A
C779   O805    1.289   .     A
C780   O808    1.387   .     S
Cl784  N690    1.723   1_655 S
H793   C939    1.088   .     S
N797   Zn810   2.032   .     S
N797   Cl675   1.723   1_655 S
N797   N690    1.281   1_655 S
N798   Zn809   2.032   .     S
O799   Zn809   1.955   .     S
O801   Zn810   1.955   .     S
O802   Zn810   1.971   .     S
O803   Zn809   1.971   .     S
O804   Zn809   2.004   .     S
O805   Zn810   2.004   .     S
O806   Zn810   2.010   .     S
O807   Zn809   2.010   .     S
C811   O856    1.290   .     A
C811   C830    1.399   .     S
C811   O853    1.283   .     A
C812   C814    1.398   .     A
C812   C823    1.391   .     A
C812   O854    1.387   .     S
C813   C834    1.398   .     A
C813   C815    1.399   .     A
C813   C833    1.420   .     S
C814   C832    1.420   .     S
C814   C816    1.399   .     A
C815   Cl835   1.778   .     S
C815   C817    1.395   .     A
C816   Cl836   1.778   .     S
C816   C818    1.395   .     A
C817   C819    1.418   .     A
C817   C824    1.403   .     A
C818   C820    1.418   .     A
C818   C825    1.403   .     A
C819   C821    1.415   .     A
C820   C823    1.415   .     A
C820   C333    1.400   1_556 S
C821   C829    1.400   .     A
C821   C834    1.391   .     A
C822   O857    1.290   .     A
C822   C831    1.399   .     S
C822   O855    1.283   .     A
C823   C828    1.400   .     A
C824   H839    1.081   .     S
C825   H843    1.081   .     S
C825   C343    1.383   1_556 S
C826   H850    1.109   .     S
C826   H849    1.113   .     S
C826   O862    1.411   .     S
C826   H848    1.112   .     S
C827   O854    1.411   .     S
C827   H840    1.113   .     S
C827   H841    1.112   .     S
C827   H842    1.109   .     S
C828   H844    1.083   .     S
C828   C338    1.383   1_556 S
C829   H845    1.083   .     S
C830   C507    1.334   1_565 S
C830   H522    1.088   1_565 S
C832   O860    1.292   .     A
C832   O858    1.289   .     A
C833   O861    1.292   .     A
C833   O859    1.289   .     A
C834   O862    1.387   .     S
Cl837  N959    1.723   1_455 S
Cl838  N906    1.723   .     S
H847   C507    1.088   1_565 S
N851   Zn864   2.032   .     S
N851   Cl891   1.723   .     S
N851   N906    1.281   .     S
N852   Zn863   2.032   .     S
N852   N959    1.281   1_455 S
N852   Cl946   1.723   1_455 S
O853   Zn863   1.955   .     S
O855   Zn864   1.955   .     S
O856   Zn864   1.971   .     S
O857   Zn863   1.971   .     S
O858   Zn863   2.004   .     S
O859   Zn864   2.004   .     S
O860   Zn864   2.010   .     S
O861   Zn863   2.010   .     S
C865   O910    1.290   .     A
C865   C884    1.399   .     S
C865   O907    1.283   .     A
C866   C868    1.398   .     A
C866   C877    1.391   .     A
C866   O908    1.387   .     S
C867   C888    1.398   .     A
C867   C869    1.399   .     A
C867   C887    1.420   .     S
C868   C886    1.420   .     S
C868   C870    1.399   .     A
C869   Cl889   1.778   .     S
C869   C871    1.395   .     A
C870   Cl890   1.778   .     S
C870   C872    1.395   .     A
C871   C873    1.418   .     A
C871   C878    1.403   .     A
C872   C874    1.418   .     A
C872   C879    1.403   .     A
C873   C875    1.415   .     A
C874   C877    1.415   .     A
C874   C387    1.400   1_556 S
C875   C883    1.400   .     A
C875   C888    1.391   .     A
C876   O911    1.290   .     A
C876   C885    1.399   .     S
C876   O909    1.283   .     A
C877   C882    1.400   .     A
C878   H893    1.081   .     S
C879   H897    1.081   .     S
C879   C397    1.383   1_556 S
C880   H904    1.109   .     S
C880   H903    1.113   .     S
C880   O916    1.411   .     S
C880   H902    1.112   .     S
C881   O908    1.411   .     S
C881   H894    1.113   .     S
C881   H895    1.112   .     S
C881   H896    1.109   .     S
C882   H898    1.083   .     S
C882   C392    1.383   1_556 S
C883   H899    1.083   .     S
C884   C561    1.334   1_565 S
C884   H576    1.088   1_565 S
C886   O914    1.292   .     A
C886   O912    1.289   .     A
C887   O915    1.292   .     A
C887   O913    1.289   .     A
C888   O916    1.387   .     S
Cl892  N960    1.723   .     S
H901   C561    1.088   1_565 S
N905   Zn918   2.032   .     S
N905   Cl945   1.723   .     S
N905   N960    1.281   .     S
N906   Zn917   2.032   .     S
O907   Zn917   1.955   .     S
O909   Zn918   1.955   .     S
O910   Zn918   1.971   .     S
O911   Zn917   1.971   .     S
O912   Zn917   2.004   .     S
O913   Zn918   2.004   .     S
O914   Zn918   2.010   .     S
O915   Zn917   2.010   .     S
C919   O964    1.290   .     A
C919   C938    1.399   .     S
C919   O961    1.283   .     A
C920   C922    1.398   .     A
C920   C931    1.391   .     A
C920   O962    1.387   .     S
C921   C942    1.398   .     A
C921   C923    1.399   .     A
C921   C941    1.420   .     S
C922   C940    1.420   .     S
C922   C924    1.399   .     A
C923   Cl943   1.778   .     S
C923   C925    1.395   .     A
C924   Cl944   1.778   .     S
C924   C926    1.395   .     A
C925   C927    1.418   .     A
C925   C932    1.403   .     A
C926   C928    1.418   .     A
C926   C933    1.403   .     A
C927   C929    1.415   .     A
C928   C931    1.415   .     A
C928   C441    1.400   1_556 S
C929   C937    1.400   .     A
C929   C942    1.391   .     A
C930   O965    1.290   .     A
C930   C939    1.399   .     S
C930   O963    1.283   .     A
C931   C936    1.400   .     A
C932   H947    1.081   .     S
C933   H951    1.081   .     S
C933   C451    1.383   1_556 S
C934   H958    1.109   .     S
C934   H957    1.113   .     S
C934   O970    1.411   .     S
C934   H956    1.112   .     S
C935   O962    1.411   .     S
C935   H948    1.113   .     S
C935   H949    1.112   .     S
C935   H950    1.109   .     S
C936   H952    1.083   .     S
C936   C446    1.383   1_556 S
C937   H953    1.083   .     S
C938   C615    1.334   1_565 S
C938   H630    1.088   1_565 S
C940   O968    1.292   .     A
C940   O966    1.289   .     A
C941   O969    1.292   .     A
C941   O967    1.289   .     A
C942   O970    1.387   .     S
Cl946  N852    1.723   1_655 S
H955   C615    1.088   1_565 S
N959   Zn972   2.032   .     S
N959   Cl837   1.723   1_655 S
N959   N852    1.281   1_655 S
N960   Zn971   2.032   .     S
O961   Zn971   1.955   .     S
O963   Zn972   1.955   .     S
O964   Zn972   1.971   .     S
O965   Zn971   1.971   .     S
O966   Zn971   2.004   .     S
O967   Zn972   2.004   .     S
O968   Zn972   2.010   .     S
O969   Zn971   2.010   .     S
