data_str_m3_o2_o5_pcu_sym.90
_audit_creation_date              2020-01-03
_audit_creation_method            'Materials Studio'
_symmetry_space_group_name_H-M    'P1'
_symmetry_Int_Tables_number       1
_symmetry_cell_setting            triclinic
loop_
_symmetry_equiv_pos_as_xyz
  x,y,z
_cell_length_a                    29.8889
_cell_length_b                    28.3778
_cell_length_c                    26.7272
_cell_angle_alpha                 90.0000
_cell_angle_beta                  90.0342
_cell_angle_gamma                 90.0000
loop_
_atom_site_label
_atom_site_type_symbol
_atom_site_fract_x
_atom_site_fract_y
_atom_site_fract_z
_atom_site_U_iso_or_equiv
_atom_site_adp_type
_atom_site_occupancy
C1     C     0.16402   0.25000   0.16665   0.00000  Uiso   1.00
C2     C     0.22900   0.44736   0.12823   0.00000  Uiso   1.00
C3     C     0.24999   0.25000   0.07286   0.00000  Uiso   1.00
C4     C     0.25002   0.25000   0.26048   0.00000  Uiso   1.00
C5     C     0.25000   0.02667   0.16667   0.00000  Uiso   1.00
C6     C     0.25000   0.47331   0.16667   0.00000  Uiso   1.00
C7     C     0.24999   0.25001   0.02179   0.00000  Uiso   1.00
C8     C     0.25001   0.25001   0.31155   0.00000  Uiso   1.00
C9     C     0.04696   0.26950   0.12615   0.00000  Uiso   1.00
C10    C     0.45299   0.23044   0.12617   0.00000  Uiso   1.00
C11    C     0.45304   0.26950   0.20718   0.00000  Uiso   1.00
C12    C     0.33598   0.25000   0.16668   0.00000  Uiso   1.00
C13    C     0.04701   0.23044   0.20716   0.00000  Uiso   1.00
C14    C     0.09321   0.26981   0.12596   0.00000  Uiso   1.00
C15    C     0.40674   0.23014   0.12600   0.00000  Uiso   1.00
C16    C     0.40679   0.26980   0.20737   0.00000  Uiso   1.00
C17    C     0.09326   0.23014   0.20733   0.00000  Uiso   1.00
C18    C     0.11626   0.24999   0.16665   0.00000  Uiso   1.00
C19    C     0.38374   0.24999   0.16668   0.00000  Uiso   1.00
C20    C     0.02408   0.24998   0.16666   0.00000  Uiso   1.00
C21    C     0.47592   0.24998   0.16667   0.00000  Uiso   1.00
C22    C     0.21498   0.10222   0.14620   0.00000  Uiso   1.00
C23    C     0.27071   0.39777   0.20430   0.00000  Uiso   1.00
C24    C     0.28502   0.10222   0.18713   0.00000  Uiso   1.00
C25    C     0.22929   0.39777   0.12903   0.00000  Uiso   1.00
C26    C     0.21425   0.05262   0.14594   0.00000  Uiso   1.00
C27    C     0.27100   0.44736   0.20510   0.00000  Uiso   1.00
C28    C     0.28575   0.05262   0.18739   0.00000  Uiso   1.00
H29    H     0.18731   0.12152   0.13007   0.00000  Uiso   1.00
H30    H     0.28705   0.46508   0.23612   0.00000  Uiso   1.00
H31    H     0.31455   0.03490   0.20314   0.00000  Uiso   1.00
H32    H     0.21295   0.46508   0.09721   0.00000  Uiso   1.00
H33    H     0.28701   0.37843   0.23404   0.00000  Uiso   1.00
H34    H     0.31269   0.12152   0.20326   0.00000  Uiso   1.00
H35    H     0.21299   0.37843   0.09929   0.00000  Uiso   1.00
H36    H     0.02882   0.28469   0.09496   0.00000  Uiso   1.00
H37    H     0.47109   0.21524   0.09498   0.00000  Uiso   1.00
H38    H     0.47118   0.28469   0.23838   0.00000  Uiso   1.00
H39    H     0.02891   0.21524   0.23835   0.00000  Uiso   1.00
H40    H     0.18545   0.03490   0.13020   0.00000  Uiso   1.00
I41    I     0.12583   0.29898   0.06245   0.00000  Uiso   1.00
I42    I     0.37405   0.20093   0.06251   0.00000  Uiso   1.00
I43    I     0.37417   0.29897   0.27089   0.00000  Uiso   1.00
I44    I     0.12595   0.20093   0.27083   0.00000  Uiso   1.00
N45    N     0.25000   0.12623   0.16667   0.00000  Uiso   1.00
N46    N     0.25000   0.37376   0.16667   0.00000  Uiso   1.00
O47    O     0.18453   0.28974   0.16667   0.00000  Uiso   1.00
O48    O     0.31547   0.21026   0.16666   0.00000  Uiso   1.00
O49    O     0.31547   0.28974   0.16666   0.00000  Uiso   1.00
O50    O     0.18453   0.21026   0.16667   0.00000  Uiso   1.00
O51    O     0.25000   0.28973   0.09511   0.00000  Uiso   1.00
O52    O     0.25000   0.21027   0.23822   0.00000  Uiso   1.00
O53    O     0.25000   0.28973   0.23822   0.00000  Uiso   1.00
O54    O     0.25000   0.21027   0.09511   0.00000  Uiso   1.00
Zn55   Zn    0.25000   0.30307   0.16667   0.00000  Uiso   1.00
Zn56   Zn    0.25000   0.19693   0.16667   0.00000  Uiso   1.00
C57    C     0.66402   0.25000   0.16665   0.00000  Uiso   1.00
C58    C     0.72900   0.44736   0.12823   0.00000  Uiso   1.00
C59    C     0.74999   0.25000   0.07286   0.00000  Uiso   1.00
C60    C     0.75002   0.25000   0.26048   0.00000  Uiso   1.00
C61    C     0.75000   0.02667   0.16667   0.00000  Uiso   1.00
C62    C     0.75000   0.47331   0.16667   0.00000  Uiso   1.00
C63    C     0.74999   0.25001   0.02179   0.00000  Uiso   1.00
C64    C     0.75001   0.25001   0.31155   0.00000  Uiso   1.00
C65    C     0.54696   0.26950   0.12615   0.00000  Uiso   1.00
C66    C     0.95299   0.23044   0.12617   0.00000  Uiso   1.00
C67    C     0.95304   0.26950   0.20718   0.00000  Uiso   1.00
C68    C     0.83598   0.25000   0.16668   0.00000  Uiso   1.00
C69    C     0.54701   0.23044   0.20716   0.00000  Uiso   1.00
C70    C     0.59321   0.26981   0.12596   0.00000  Uiso   1.00
C71    C     0.90674   0.23014   0.12600   0.00000  Uiso   1.00
C72    C     0.90679   0.26980   0.20737   0.00000  Uiso   1.00
C73    C     0.59326   0.23014   0.20733   0.00000  Uiso   1.00
C74    C     0.61626   0.24999   0.16665   0.00000  Uiso   1.00
C75    C     0.88374   0.24999   0.16668   0.00000  Uiso   1.00
C76    C     0.52408   0.24998   0.16666   0.00000  Uiso   1.00
C77    C     0.97592   0.24998   0.16667   0.00000  Uiso   1.00
C78    C     0.71498   0.10222   0.14620   0.00000  Uiso   1.00
C79    C     0.77071   0.39777   0.20430   0.00000  Uiso   1.00
C80    C     0.78502   0.10222   0.18713   0.00000  Uiso   1.00
C81    C     0.72929   0.39777   0.12903   0.00000  Uiso   1.00
C82    C     0.71425   0.05262   0.14594   0.00000  Uiso   1.00
C83    C     0.77100   0.44736   0.20510   0.00000  Uiso   1.00
C84    C     0.78575   0.05262   0.18739   0.00000  Uiso   1.00
H85    H     0.68731   0.12152   0.13007   0.00000  Uiso   1.00
H86    H     0.78705   0.46508   0.23612   0.00000  Uiso   1.00
H87    H     0.81455   0.03490   0.20314   0.00000  Uiso   1.00
H88    H     0.71295   0.46508   0.09721   0.00000  Uiso   1.00
H89    H     0.78701   0.37843   0.23404   0.00000  Uiso   1.00
H90    H     0.81269   0.12152   0.20326   0.00000  Uiso   1.00
H91    H     0.71299   0.37843   0.09929   0.00000  Uiso   1.00
H92    H     0.52882   0.28469   0.09496   0.00000  Uiso   1.00
H93    H     0.97109   0.21524   0.09498   0.00000  Uiso   1.00
H94    H     0.97118   0.28469   0.23838   0.00000  Uiso   1.00
H95    H     0.52891   0.21524   0.23835   0.00000  Uiso   1.00
H96    H     0.68545   0.03490   0.13020   0.00000  Uiso   1.00
I97    I     0.62583   0.29898   0.06245   0.00000  Uiso   1.00
I98    I     0.87405   0.20093   0.06251   0.00000  Uiso   1.00
I99    I     0.87417   0.29897   0.27089   0.00000  Uiso   1.00
I100   I     0.62595   0.20093   0.27083   0.00000  Uiso   1.00
N101   N     0.75000   0.12623   0.16667   0.00000  Uiso   1.00
N102   N     0.75000   0.37376   0.16667   0.00000  Uiso   1.00
O103   O     0.68453   0.28974   0.16667   0.00000  Uiso   1.00
O104   O     0.81547   0.21026   0.16666   0.00000  Uiso   1.00
O105   O     0.81547   0.28974   0.16666   0.00000  Uiso   1.00
O106   O     0.68453   0.21026   0.16667   0.00000  Uiso   1.00
O107   O     0.75000   0.28973   0.09511   0.00000  Uiso   1.00
O108   O     0.75000   0.21027   0.23822   0.00000  Uiso   1.00
O109   O     0.75000   0.28973   0.23822   0.00000  Uiso   1.00
O110   O     0.75000   0.21027   0.09511   0.00000  Uiso   1.00
Zn111  Zn    0.75000   0.30307   0.16667   0.00000  Uiso   1.00
Zn112  Zn    0.75000   0.19693   0.16667   0.00000  Uiso   1.00
C113   C     0.16402   0.75000   0.16665   0.00000  Uiso   1.00
C114   C     0.22900   0.94736   0.12823   0.00000  Uiso   1.00
C115   C     0.24999   0.75000   0.07286   0.00000  Uiso   1.00
C116   C     0.25002   0.75000   0.26048   0.00000  Uiso   1.00
C117   C     0.25000   0.52667   0.16667   0.00000  Uiso   1.00
C118   C     0.25000   0.97331   0.16667   0.00000  Uiso   1.00
C119   C     0.24999   0.75001   0.02179   0.00000  Uiso   1.00
C120   C     0.25001   0.75001   0.31155   0.00000  Uiso   1.00
C121   C     0.04696   0.76950   0.12615   0.00000  Uiso   1.00
C122   C     0.45299   0.73044   0.12617   0.00000  Uiso   1.00
C123   C     0.45304   0.76950   0.20718   0.00000  Uiso   1.00
C124   C     0.33598   0.75000   0.16668   0.00000  Uiso   1.00
C125   C     0.04701   0.73044   0.20716   0.00000  Uiso   1.00
C126   C     0.09321   0.76981   0.12596   0.00000  Uiso   1.00
C127   C     0.40674   0.73014   0.12600   0.00000  Uiso   1.00
C128   C     0.40679   0.76980   0.20737   0.00000  Uiso   1.00
C129   C     0.09326   0.73014   0.20733   0.00000  Uiso   1.00
C130   C     0.11626   0.74999   0.16665   0.00000  Uiso   1.00
C131   C     0.38374   0.74999   0.16668   0.00000  Uiso   1.00
C132   C     0.02408   0.74998   0.16666   0.00000  Uiso   1.00
C133   C     0.47592   0.74998   0.16667   0.00000  Uiso   1.00
C134   C     0.21498   0.60222   0.14620   0.00000  Uiso   1.00
C135   C     0.27071   0.89777   0.20430   0.00000  Uiso   1.00
C136   C     0.28502   0.60222   0.18713   0.00000  Uiso   1.00
C137   C     0.22929   0.89777   0.12903   0.00000  Uiso   1.00
C138   C     0.21425   0.55262   0.14594   0.00000  Uiso   1.00
C139   C     0.27100   0.94736   0.20510   0.00000  Uiso   1.00
C140   C     0.28575   0.55262   0.18739   0.00000  Uiso   1.00
H141   H     0.18731   0.62152   0.13007   0.00000  Uiso   1.00
H142   H     0.28705   0.96508   0.23612   0.00000  Uiso   1.00
H143   H     0.31455   0.53490   0.20314   0.00000  Uiso   1.00
H144   H     0.21295   0.96508   0.09721   0.00000  Uiso   1.00
H145   H     0.28701   0.87843   0.23404   0.00000  Uiso   1.00
H146   H     0.31269   0.62152   0.20326   0.00000  Uiso   1.00
H147   H     0.21299   0.87843   0.09929   0.00000  Uiso   1.00
H148   H     0.02882   0.78469   0.09496   0.00000  Uiso   1.00
H149   H     0.47109   0.71524   0.09498   0.00000  Uiso   1.00
H150   H     0.47118   0.78469   0.23838   0.00000  Uiso   1.00
H151   H     0.02891   0.71524   0.23835   0.00000  Uiso   1.00
H152   H     0.18545   0.53490   0.13020   0.00000  Uiso   1.00
I153   I     0.12583   0.79898   0.06245   0.00000  Uiso   1.00
I154   I     0.37405   0.70093   0.06251   0.00000  Uiso   1.00
I155   I     0.37417   0.79897   0.27089   0.00000  Uiso   1.00
I156   I     0.12595   0.70093   0.27083   0.00000  Uiso   1.00
N157   N     0.25000   0.62623   0.16667   0.00000  Uiso   1.00
N158   N     0.25000   0.87376   0.16667   0.00000  Uiso   1.00
O159   O     0.18453   0.78974   0.16667   0.00000  Uiso   1.00
O160   O     0.31547   0.71026   0.16666   0.00000  Uiso   1.00
O161   O     0.31547   0.78974   0.16666   0.00000  Uiso   1.00
O162   O     0.18453   0.71026   0.16667   0.00000  Uiso   1.00
O163   O     0.25000   0.78973   0.09511   0.00000  Uiso   1.00
O164   O     0.25000   0.71027   0.23822   0.00000  Uiso   1.00
O165   O     0.25000   0.78973   0.23822   0.00000  Uiso   1.00
O166   O     0.25000   0.71027   0.09511   0.00000  Uiso   1.00
Zn167  Zn    0.25000   0.80307   0.16667   0.00000  Uiso   1.00
Zn168  Zn    0.25000   0.69693   0.16667   0.00000  Uiso   1.00
C169   C     0.66402   0.75000   0.16665   0.00000  Uiso   1.00
C170   C     0.72900   0.94736   0.12823   0.00000  Uiso   1.00
C171   C     0.74999   0.75000   0.07286   0.00000  Uiso   1.00
C172   C     0.75002   0.75000   0.26048   0.00000  Uiso   1.00
C173   C     0.75000   0.52667   0.16667   0.00000  Uiso   1.00
C174   C     0.75000   0.97331   0.16667   0.00000  Uiso   1.00
C175   C     0.74999   0.75001   0.02179   0.00000  Uiso   1.00
C176   C     0.75001   0.75001   0.31155   0.00000  Uiso   1.00
C177   C     0.54696   0.76950   0.12615   0.00000  Uiso   1.00
C178   C     0.95299   0.73044   0.12617   0.00000  Uiso   1.00
C179   C     0.95304   0.76950   0.20718   0.00000  Uiso   1.00
C180   C     0.83598   0.75000   0.16668   0.00000  Uiso   1.00
C181   C     0.54701   0.73044   0.20716   0.00000  Uiso   1.00
C182   C     0.59321   0.76981   0.12596   0.00000  Uiso   1.00
C183   C     0.90674   0.73014   0.12600   0.00000  Uiso   1.00
C184   C     0.90679   0.76980   0.20737   0.00000  Uiso   1.00
C185   C     0.59326   0.73014   0.20733   0.00000  Uiso   1.00
C186   C     0.61626   0.74999   0.16665   0.00000  Uiso   1.00
C187   C     0.88374   0.74999   0.16668   0.00000  Uiso   1.00
C188   C     0.52408   0.74998   0.16666   0.00000  Uiso   1.00
C189   C     0.97592   0.74998   0.16667   0.00000  Uiso   1.00
C190   C     0.71498   0.60222   0.14620   0.00000  Uiso   1.00
C191   C     0.77071   0.89777   0.20430   0.00000  Uiso   1.00
C192   C     0.78502   0.60222   0.18713   0.00000  Uiso   1.00
C193   C     0.72929   0.89777   0.12903   0.00000  Uiso   1.00
C194   C     0.71425   0.55262   0.14594   0.00000  Uiso   1.00
C195   C     0.77100   0.94736   0.20510   0.00000  Uiso   1.00
C196   C     0.78575   0.55262   0.18739   0.00000  Uiso   1.00
H197   H     0.68731   0.62152   0.13007   0.00000  Uiso   1.00
H198   H     0.78705   0.96508   0.23612   0.00000  Uiso   1.00
H199   H     0.81455   0.53490   0.20314   0.00000  Uiso   1.00
H200   H     0.71295   0.96508   0.09721   0.00000  Uiso   1.00
H201   H     0.78701   0.87843   0.23404   0.00000  Uiso   1.00
H202   H     0.81269   0.62152   0.20326   0.00000  Uiso   1.00
H203   H     0.71299   0.87843   0.09929   0.00000  Uiso   1.00
H204   H     0.52882   0.78469   0.09496   0.00000  Uiso   1.00
H205   H     0.97109   0.71524   0.09498   0.00000  Uiso   1.00
H206   H     0.97118   0.78469   0.23838   0.00000  Uiso   1.00
H207   H     0.52891   0.71524   0.23835   0.00000  Uiso   1.00
H208   H     0.68545   0.53490   0.13020   0.00000  Uiso   1.00
I209   I     0.62583   0.79898   0.06245   0.00000  Uiso   1.00
I210   I     0.87405   0.70093   0.06251   0.00000  Uiso   1.00
I211   I     0.87417   0.79897   0.27089   0.00000  Uiso   1.00
I212   I     0.62595   0.70093   0.27083   0.00000  Uiso   1.00
N213   N     0.75000   0.62623   0.16667   0.00000  Uiso   1.00
N214   N     0.75000   0.87376   0.16667   0.00000  Uiso   1.00
O215   O     0.68453   0.78974   0.16667   0.00000  Uiso   1.00
O216   O     0.81547   0.71026   0.16666   0.00000  Uiso   1.00
O217   O     0.81547   0.78974   0.16666   0.00000  Uiso   1.00
O218   O     0.68453   0.71026   0.16667   0.00000  Uiso   1.00
O219   O     0.75000   0.78973   0.09511   0.00000  Uiso   1.00
O220   O     0.75000   0.71027   0.23822   0.00000  Uiso   1.00
O221   O     0.75000   0.78973   0.23822   0.00000  Uiso   1.00
O222   O     0.75000   0.71027   0.09511   0.00000  Uiso   1.00
Zn223  Zn    0.75000   0.80307   0.16667   0.00000  Uiso   1.00
Zn224  Zn    0.75000   0.69693   0.16667   0.00000  Uiso   1.00
C225   C     0.16402   0.25000   0.49999   0.00000  Uiso   1.00
C226   C     0.22900   0.44736   0.46157   0.00000  Uiso   1.00
C227   C     0.24999   0.25000   0.40619   0.00000  Uiso   1.00
C228   C     0.25002   0.25000   0.59381   0.00000  Uiso   1.00
C229   C     0.25000   0.02667   0.50000   0.00000  Uiso   1.00
C230   C     0.25000   0.47331   0.50000   0.00000  Uiso   1.00
C231   C     0.24999   0.25001   0.35512   0.00000  Uiso   1.00
C232   C     0.25001   0.25001   0.64488   0.00000  Uiso   1.00
C233   C     0.04696   0.26950   0.45948   0.00000  Uiso   1.00
C234   C     0.45299   0.23044   0.45951   0.00000  Uiso   1.00
C235   C     0.45304   0.26950   0.54052   0.00000  Uiso   1.00
C236   C     0.33598   0.25000   0.50001   0.00000  Uiso   1.00
C237   C     0.04701   0.23044   0.54049   0.00000  Uiso   1.00
C238   C     0.09321   0.26981   0.45930   0.00000  Uiso   1.00
C239   C     0.40674   0.23014   0.45933   0.00000  Uiso   1.00
C240   C     0.40679   0.26980   0.54071   0.00000  Uiso   1.00
C241   C     0.09326   0.23014   0.54067   0.00000  Uiso   1.00
C242   C     0.11626   0.24999   0.49998   0.00000  Uiso   1.00
C243   C     0.38374   0.24999   0.50002   0.00000  Uiso   1.00
C244   C     0.02408   0.24998   0.49999   0.00000  Uiso   1.00
C245   C     0.47592   0.24998   0.50001   0.00000  Uiso   1.00
C246   C     0.21498   0.10222   0.47954   0.00000  Uiso   1.00
C247   C     0.27071   0.39777   0.53763   0.00000  Uiso   1.00
C248   C     0.28502   0.10222   0.52046   0.00000  Uiso   1.00
C249   C     0.22929   0.39777   0.46237   0.00000  Uiso   1.00
C250   C     0.21425   0.05262   0.47928   0.00000  Uiso   1.00
C251   C     0.27100   0.44736   0.53843   0.00000  Uiso   1.00
C252   C     0.28575   0.05262   0.52072   0.00000  Uiso   1.00
H253   H     0.18731   0.12152   0.46341   0.00000  Uiso   1.00
H254   H     0.28705   0.46508   0.56946   0.00000  Uiso   1.00
H255   H     0.31455   0.03490   0.53647   0.00000  Uiso   1.00
H256   H     0.21295   0.46508   0.43054   0.00000  Uiso   1.00
H257   H     0.28701   0.37843   0.56738   0.00000  Uiso   1.00
H258   H     0.31269   0.12152   0.53659   0.00000  Uiso   1.00
H259   H     0.21299   0.37843   0.43262   0.00000  Uiso   1.00
H260   H     0.02882   0.28469   0.42829   0.00000  Uiso   1.00
H261   H     0.47109   0.21524   0.42831   0.00000  Uiso   1.00
H262   H     0.47118   0.28469   0.57171   0.00000  Uiso   1.00
H263   H     0.02891   0.21524   0.57169   0.00000  Uiso   1.00
H264   H     0.18545   0.03490   0.46353   0.00000  Uiso   1.00
I265   I     0.12583   0.29898   0.39578   0.00000  Uiso   1.00
I266   I     0.37405   0.20093   0.39584   0.00000  Uiso   1.00
I267   I     0.37417   0.29897   0.60422   0.00000  Uiso   1.00
I268   I     0.12595   0.20093   0.60416   0.00000  Uiso   1.00
N269   N     0.25000   0.12623   0.50000   0.00000  Uiso   1.00
N270   N     0.25000   0.37376   0.50000   0.00000  Uiso   1.00
O271   O     0.18453   0.28974   0.50000   0.00000  Uiso   1.00
O272   O     0.31547   0.21026   0.50000   0.00000  Uiso   1.00
O273   O     0.31547   0.28974   0.50000   0.00000  Uiso   1.00
O274   O     0.18453   0.21026   0.50000   0.00000  Uiso   1.00
O275   O     0.25000   0.28973   0.42845   0.00000  Uiso   1.00
O276   O     0.25000   0.21027   0.57155   0.00000  Uiso   1.00
O277   O     0.25000   0.28973   0.57155   0.00000  Uiso   1.00
O278   O     0.25000   0.21027   0.42845   0.00000  Uiso   1.00
Zn279  Zn    0.25000   0.30307   0.50000   0.00000  Uiso   1.00
Zn280  Zn    0.25000   0.19693   0.50000   0.00000  Uiso   1.00
C281   C     0.66402   0.25000   0.49999   0.00000  Uiso   1.00
C282   C     0.72900   0.44736   0.46157   0.00000  Uiso   1.00
C283   C     0.74999   0.25000   0.40619   0.00000  Uiso   1.00
C284   C     0.75002   0.25000   0.59381   0.00000  Uiso   1.00
C285   C     0.75000   0.02667   0.50000   0.00000  Uiso   1.00
C286   C     0.75000   0.47331   0.50000   0.00000  Uiso   1.00
C287   C     0.74999   0.25001   0.35512   0.00000  Uiso   1.00
C288   C     0.75001   0.25001   0.64488   0.00000  Uiso   1.00
C289   C     0.54696   0.26950   0.45948   0.00000  Uiso   1.00
C290   C     0.95299   0.23044   0.45951   0.00000  Uiso   1.00
C291   C     0.95304   0.26950   0.54052   0.00000  Uiso   1.00
C292   C     0.83598   0.25000   0.50001   0.00000  Uiso   1.00
C293   C     0.54701   0.23044   0.54049   0.00000  Uiso   1.00
C294   C     0.59321   0.26981   0.45930   0.00000  Uiso   1.00
C295   C     0.90674   0.23014   0.45933   0.00000  Uiso   1.00
C296   C     0.90679   0.26980   0.54071   0.00000  Uiso   1.00
C297   C     0.59326   0.23014   0.54067   0.00000  Uiso   1.00
C298   C     0.61626   0.24999   0.49998   0.00000  Uiso   1.00
C299   C     0.88374   0.24999   0.50002   0.00000  Uiso   1.00
C300   C     0.52408   0.24998   0.49999   0.00000  Uiso   1.00
C301   C     0.97592   0.24998   0.50001   0.00000  Uiso   1.00
C302   C     0.71498   0.10222   0.47954   0.00000  Uiso   1.00
C303   C     0.77071   0.39777   0.53763   0.00000  Uiso   1.00
C304   C     0.78502   0.10222   0.52046   0.00000  Uiso   1.00
C305   C     0.72929   0.39777   0.46237   0.00000  Uiso   1.00
C306   C     0.71425   0.05262   0.47928   0.00000  Uiso   1.00
C307   C     0.77100   0.44736   0.53843   0.00000  Uiso   1.00
C308   C     0.78575   0.05262   0.52072   0.00000  Uiso   1.00
H309   H     0.68731   0.12152   0.46341   0.00000  Uiso   1.00
H310   H     0.78705   0.46508   0.56946   0.00000  Uiso   1.00
H311   H     0.81455   0.03490   0.53647   0.00000  Uiso   1.00
H312   H     0.71295   0.46508   0.43054   0.00000  Uiso   1.00
H313   H     0.78701   0.37843   0.56738   0.00000  Uiso   1.00
H314   H     0.81269   0.12152   0.53659   0.00000  Uiso   1.00
H315   H     0.71299   0.37843   0.43262   0.00000  Uiso   1.00
H316   H     0.52882   0.28469   0.42829   0.00000  Uiso   1.00
H317   H     0.97109   0.21524   0.42831   0.00000  Uiso   1.00
H318   H     0.97118   0.28469   0.57171   0.00000  Uiso   1.00
H319   H     0.52891   0.21524   0.57169   0.00000  Uiso   1.00
H320   H     0.68545   0.03490   0.46353   0.00000  Uiso   1.00
I321   I     0.62583   0.29898   0.39578   0.00000  Uiso   1.00
I322   I     0.87405   0.20093   0.39584   0.00000  Uiso   1.00
I323   I     0.87417   0.29897   0.60422   0.00000  Uiso   1.00
I324   I     0.62595   0.20093   0.60416   0.00000  Uiso   1.00
N325   N     0.75000   0.12623   0.50000   0.00000  Uiso   1.00
N326   N     0.75000   0.37376   0.50000   0.00000  Uiso   1.00
O327   O     0.68453   0.28974   0.50000   0.00000  Uiso   1.00
O328   O     0.81547   0.21026   0.50000   0.00000  Uiso   1.00
O329   O     0.81547   0.28974   0.50000   0.00000  Uiso   1.00
O330   O     0.68453   0.21026   0.50000   0.00000  Uiso   1.00
O331   O     0.75000   0.28973   0.42845   0.00000  Uiso   1.00
O332   O     0.75000   0.21027   0.57155   0.00000  Uiso   1.00
O333   O     0.75000   0.28973   0.57155   0.00000  Uiso   1.00
O334   O     0.75000   0.21027   0.42845   0.00000  Uiso   1.00
Zn335  Zn    0.75000   0.30307   0.50000   0.00000  Uiso   1.00
Zn336  Zn    0.75000   0.19693   0.50000   0.00000  Uiso   1.00
C337   C     0.16402   0.75000   0.49999   0.00000  Uiso   1.00
C338   C     0.22900   0.94736   0.46157   0.00000  Uiso   1.00
C339   C     0.24999   0.75000   0.40619   0.00000  Uiso   1.00
C340   C     0.25002   0.75000   0.59381   0.00000  Uiso   1.00
C341   C     0.25000   0.52667   0.50000   0.00000  Uiso   1.00
C342   C     0.25000   0.97331   0.50000   0.00000  Uiso   1.00
C343   C     0.24999   0.75001   0.35512   0.00000  Uiso   1.00
C344   C     0.25001   0.75001   0.64488   0.00000  Uiso   1.00
C345   C     0.04696   0.76950   0.45948   0.00000  Uiso   1.00
C346   C     0.45299   0.73044   0.45951   0.00000  Uiso   1.00
C347   C     0.45304   0.76950   0.54052   0.00000  Uiso   1.00
C348   C     0.33598   0.75000   0.50001   0.00000  Uiso   1.00
C349   C     0.04701   0.73044   0.54049   0.00000  Uiso   1.00
C350   C     0.09321   0.76981   0.45930   0.00000  Uiso   1.00
C351   C     0.40674   0.73014   0.45933   0.00000  Uiso   1.00
C352   C     0.40679   0.76980   0.54071   0.00000  Uiso   1.00
C353   C     0.09326   0.73014   0.54067   0.00000  Uiso   1.00
C354   C     0.11626   0.74999   0.49998   0.00000  Uiso   1.00
C355   C     0.38374   0.74999   0.50002   0.00000  Uiso   1.00
C356   C     0.02408   0.74998   0.49999   0.00000  Uiso   1.00
C357   C     0.47592   0.74998   0.50001   0.00000  Uiso   1.00
C358   C     0.21498   0.60222   0.47954   0.00000  Uiso   1.00
C359   C     0.27071   0.89777   0.53763   0.00000  Uiso   1.00
C360   C     0.28502   0.60222   0.52046   0.00000  Uiso   1.00
C361   C     0.22929   0.89777   0.46237   0.00000  Uiso   1.00
C362   C     0.21425   0.55262   0.47928   0.00000  Uiso   1.00
C363   C     0.27100   0.94736   0.53843   0.00000  Uiso   1.00
C364   C     0.28575   0.55262   0.52072   0.00000  Uiso   1.00
H365   H     0.18731   0.62152   0.46341   0.00000  Uiso   1.00
H366   H     0.28705   0.96508   0.56946   0.00000  Uiso   1.00
H367   H     0.31455   0.53490   0.53647   0.00000  Uiso   1.00
H368   H     0.21295   0.96508   0.43054   0.00000  Uiso   1.00
H369   H     0.28701   0.87843   0.56738   0.00000  Uiso   1.00
H370   H     0.31269   0.62152   0.53659   0.00000  Uiso   1.00
H371   H     0.21299   0.87843   0.43262   0.00000  Uiso   1.00
H372   H     0.02882   0.78469   0.42829   0.00000  Uiso   1.00
H373   H     0.47109   0.71524   0.42831   0.00000  Uiso   1.00
H374   H     0.47118   0.78469   0.57171   0.00000  Uiso   1.00
H375   H     0.02891   0.71524   0.57169   0.00000  Uiso   1.00
H376   H     0.18545   0.53490   0.46353   0.00000  Uiso   1.00
I377   I     0.12583   0.79898   0.39578   0.00000  Uiso   1.00
I378   I     0.37405   0.70093   0.39584   0.00000  Uiso   1.00
I379   I     0.37417   0.79897   0.60422   0.00000  Uiso   1.00
I380   I     0.12595   0.70093   0.60416   0.00000  Uiso   1.00
N381   N     0.25000   0.62623   0.50000   0.00000  Uiso   1.00
N382   N     0.25000   0.87376   0.50000   0.00000  Uiso   1.00
O383   O     0.18453   0.78974   0.50000   0.00000  Uiso   1.00
O384   O     0.31547   0.71026   0.50000   0.00000  Uiso   1.00
O385   O     0.31547   0.78974   0.50000   0.00000  Uiso   1.00
O386   O     0.18453   0.71026   0.50000   0.00000  Uiso   1.00
O387   O     0.25000   0.78973   0.42845   0.00000  Uiso   1.00
O388   O     0.25000   0.71027   0.57155   0.00000  Uiso   1.00
O389   O     0.25000   0.78973   0.57155   0.00000  Uiso   1.00
O390   O     0.25000   0.71027   0.42845   0.00000  Uiso   1.00
Zn391  Zn    0.25000   0.80307   0.50000   0.00000  Uiso   1.00
Zn392  Zn    0.25000   0.69693   0.50000   0.00000  Uiso   1.00
C393   C     0.66402   0.75000   0.49999   0.00000  Uiso   1.00
C394   C     0.72900   0.94736   0.46157   0.00000  Uiso   1.00
C395   C     0.74999   0.75000   0.40619   0.00000  Uiso   1.00
C396   C     0.75002   0.75000   0.59381   0.00000  Uiso   1.00
C397   C     0.75000   0.52667   0.50000   0.00000  Uiso   1.00
C398   C     0.75000   0.97331   0.50000   0.00000  Uiso   1.00
C399   C     0.74999   0.75001   0.35512   0.00000  Uiso   1.00
C400   C     0.75001   0.75001   0.64488   0.00000  Uiso   1.00
C401   C     0.54696   0.76950   0.45948   0.00000  Uiso   1.00
C402   C     0.95299   0.73044   0.45951   0.00000  Uiso   1.00
C403   C     0.95304   0.76950   0.54052   0.00000  Uiso   1.00
C404   C     0.83598   0.75000   0.50001   0.00000  Uiso   1.00
C405   C     0.54701   0.73044   0.54049   0.00000  Uiso   1.00
C406   C     0.59321   0.76981   0.45930   0.00000  Uiso   1.00
C407   C     0.90674   0.73014   0.45933   0.00000  Uiso   1.00
C408   C     0.90679   0.76980   0.54071   0.00000  Uiso   1.00
C409   C     0.59326   0.73014   0.54067   0.00000  Uiso   1.00
C410   C     0.61626   0.74999   0.49998   0.00000  Uiso   1.00
C411   C     0.88374   0.74999   0.50002   0.00000  Uiso   1.00
C412   C     0.52408   0.74998   0.49999   0.00000  Uiso   1.00
C413   C     0.97592   0.74998   0.50001   0.00000  Uiso   1.00
C414   C     0.71498   0.60222   0.47954   0.00000  Uiso   1.00
C415   C     0.77071   0.89777   0.53763   0.00000  Uiso   1.00
C416   C     0.78502   0.60222   0.52046   0.00000  Uiso   1.00
C417   C     0.72929   0.89777   0.46237   0.00000  Uiso   1.00
C418   C     0.71425   0.55262   0.47928   0.00000  Uiso   1.00
C419   C     0.77100   0.94736   0.53843   0.00000  Uiso   1.00
C420   C     0.78575   0.55262   0.52072   0.00000  Uiso   1.00
H421   H     0.68731   0.62152   0.46341   0.00000  Uiso   1.00
H422   H     0.78705   0.96508   0.56946   0.00000  Uiso   1.00
H423   H     0.81455   0.53490   0.53647   0.00000  Uiso   1.00
H424   H     0.71295   0.96508   0.43054   0.00000  Uiso   1.00
H425   H     0.78701   0.87843   0.56738   0.00000  Uiso   1.00
H426   H     0.81269   0.62152   0.53659   0.00000  Uiso   1.00
H427   H     0.71299   0.87843   0.43262   0.00000  Uiso   1.00
H428   H     0.52882   0.78469   0.42829   0.00000  Uiso   1.00
H429   H     0.97109   0.71524   0.42831   0.00000  Uiso   1.00
H430   H     0.97118   0.78469   0.57171   0.00000  Uiso   1.00
H431   H     0.52891   0.71524   0.57169   0.00000  Uiso   1.00
H432   H     0.68545   0.53490   0.46353   0.00000  Uiso   1.00
I433   I     0.62583   0.79898   0.39578   0.00000  Uiso   1.00
I434   I     0.87405   0.70093   0.39584   0.00000  Uiso   1.00
I435   I     0.87417   0.79897   0.60422   0.00000  Uiso   1.00
I436   I     0.62595   0.70093   0.60416   0.00000  Uiso   1.00
N437   N     0.75000   0.62623   0.50000   0.00000  Uiso   1.00
N438   N     0.75000   0.87376   0.50000   0.00000  Uiso   1.00
O439   O     0.68453   0.78974   0.50000   0.00000  Uiso   1.00
O440   O     0.81547   0.71026   0.50000   0.00000  Uiso   1.00
O441   O     0.81547   0.78974   0.50000   0.00000  Uiso   1.00
O442   O     0.68453   0.71026   0.50000   0.00000  Uiso   1.00
O443   O     0.75000   0.78973   0.42845   0.00000  Uiso   1.00
O444   O     0.75000   0.71027   0.57155   0.00000  Uiso   1.00
O445   O     0.75000   0.78973   0.57155   0.00000  Uiso   1.00
O446   O     0.75000   0.71027   0.42845   0.00000  Uiso   1.00
Zn447  Zn    0.75000   0.80307   0.50000   0.00000  Uiso   1.00
Zn448  Zn    0.75000   0.69693   0.50000   0.00000  Uiso   1.00
C449   C     0.16402   0.25000   0.83332   0.00000  Uiso   1.00
C450   C     0.22900   0.44736   0.79490   0.00000  Uiso   1.00
C451   C     0.24999   0.25000   0.73952   0.00000  Uiso   1.00
C452   C     0.25002   0.25000   0.92714   0.00000  Uiso   1.00
C453   C     0.25000   0.02667   0.83333   0.00000  Uiso   1.00
C454   C     0.25000   0.47331   0.83333   0.00000  Uiso   1.00
C455   C     0.24999   0.25001   0.68845   0.00000  Uiso   1.00
C456   C     0.25001   0.25001   0.97821   0.00000  Uiso   1.00
C457   C     0.04696   0.26950   0.79282   0.00000  Uiso   1.00
C458   C     0.45299   0.23044   0.79284   0.00000  Uiso   1.00
C459   C     0.45304   0.26950   0.87385   0.00000  Uiso   1.00
C460   C     0.33598   0.25000   0.83335   0.00000  Uiso   1.00
C461   C     0.04701   0.23044   0.87383   0.00000  Uiso   1.00
C462   C     0.09321   0.26981   0.79263   0.00000  Uiso   1.00
C463   C     0.40674   0.23014   0.79266   0.00000  Uiso   1.00
C464   C     0.40679   0.26980   0.87404   0.00000  Uiso   1.00
C465   C     0.09326   0.23014   0.87400   0.00000  Uiso   1.00
C466   C     0.11626   0.24999   0.83332   0.00000  Uiso   1.00
C467   C     0.38374   0.24999   0.83335   0.00000  Uiso   1.00
C468   C     0.02408   0.24998   0.83333   0.00000  Uiso   1.00
C469   C     0.47592   0.24998   0.83334   0.00000  Uiso   1.00
C470   C     0.21498   0.10222   0.81287   0.00000  Uiso   1.00
C471   C     0.27071   0.39777   0.87097   0.00000  Uiso   1.00
C472   C     0.28502   0.10222   0.85380   0.00000  Uiso   1.00
C473   C     0.22929   0.39777   0.79570   0.00000  Uiso   1.00
C474   C     0.21425   0.05262   0.81261   0.00000  Uiso   1.00
C475   C     0.27100   0.44736   0.87177   0.00000  Uiso   1.00
C476   C     0.28575   0.05262   0.85406   0.00000  Uiso   1.00
H477   H     0.18731   0.12152   0.79674   0.00000  Uiso   1.00
H478   H     0.28705   0.46508   0.90279   0.00000  Uiso   1.00
H479   H     0.31455   0.03490   0.86980   0.00000  Uiso   1.00
H480   H     0.21295   0.46508   0.76388   0.00000  Uiso   1.00
H481   H     0.28701   0.37843   0.90071   0.00000  Uiso   1.00
H482   H     0.31269   0.12152   0.86993   0.00000  Uiso   1.00
H483   H     0.21299   0.37843   0.76596   0.00000  Uiso   1.00
H484   H     0.02882   0.28469   0.76162   0.00000  Uiso   1.00
H485   H     0.47109   0.21524   0.76165   0.00000  Uiso   1.00
H486   H     0.47118   0.28469   0.90505   0.00000  Uiso   1.00
H487   H     0.02891   0.21524   0.90502   0.00000  Uiso   1.00
H488   H     0.18545   0.03490   0.79686   0.00000  Uiso   1.00
I489   I     0.12583   0.29898   0.72911   0.00000  Uiso   1.00
I490   I     0.37405   0.20093   0.72917   0.00000  Uiso   1.00
I491   I     0.37417   0.29897   0.93756   0.00000  Uiso   1.00
I492   I     0.12595   0.20093   0.93749   0.00000  Uiso   1.00
N493   N     0.25000   0.12623   0.83333   0.00000  Uiso   1.00
N494   N     0.25000   0.37376   0.83333   0.00000  Uiso   1.00
O495   O     0.18453   0.28974   0.83334   0.00000  Uiso   1.00
O496   O     0.31547   0.21026   0.83333   0.00000  Uiso   1.00
O497   O     0.31547   0.28974   0.83333   0.00000  Uiso   1.00
O498   O     0.18453   0.21026   0.83334   0.00000  Uiso   1.00
O499   O     0.25000   0.28973   0.76178   0.00000  Uiso   1.00
O500   O     0.25000   0.21027   0.90489   0.00000  Uiso   1.00
O501   O     0.25000   0.28973   0.90489   0.00000  Uiso   1.00
O502   O     0.25000   0.21027   0.76178   0.00000  Uiso   1.00
Zn503  Zn    0.25000   0.30307   0.83333   0.00000  Uiso   1.00
Zn504  Zn    0.25000   0.19693   0.83333   0.00000  Uiso   1.00
C505   C     0.66402   0.25000   0.83332   0.00000  Uiso   1.00
C506   C     0.72900   0.44736   0.79490   0.00000  Uiso   1.00
C507   C     0.74999   0.25000   0.73952   0.00000  Uiso   1.00
C508   C     0.75002   0.25000   0.92714   0.00000  Uiso   1.00
C509   C     0.75000   0.02667   0.83333   0.00000  Uiso   1.00
C510   C     0.75000   0.47331   0.83333   0.00000  Uiso   1.00
C511   C     0.74999   0.25001   0.68845   0.00000  Uiso   1.00
C512   C     0.75001   0.25001   0.97821   0.00000  Uiso   1.00
C513   C     0.54696   0.26950   0.79282   0.00000  Uiso   1.00
C514   C     0.95299   0.23044   0.79284   0.00000  Uiso   1.00
C515   C     0.95304   0.26950   0.87385   0.00000  Uiso   1.00
C516   C     0.83598   0.25000   0.83335   0.00000  Uiso   1.00
C517   C     0.54701   0.23044   0.87383   0.00000  Uiso   1.00
C518   C     0.59321   0.26981   0.79263   0.00000  Uiso   1.00
C519   C     0.90674   0.23014   0.79266   0.00000  Uiso   1.00
C520   C     0.90679   0.26980   0.87404   0.00000  Uiso   1.00
C521   C     0.59326   0.23014   0.87400   0.00000  Uiso   1.00
C522   C     0.61626   0.24999   0.83332   0.00000  Uiso   1.00
C523   C     0.88374   0.24999   0.83335   0.00000  Uiso   1.00
C524   C     0.52408   0.24998   0.83333   0.00000  Uiso   1.00
C525   C     0.97592   0.24998   0.83334   0.00000  Uiso   1.00
C526   C     0.71498   0.10222   0.81287   0.00000  Uiso   1.00
C527   C     0.77071   0.39777   0.87097   0.00000  Uiso   1.00
C528   C     0.78502   0.10222   0.85380   0.00000  Uiso   1.00
C529   C     0.72929   0.39777   0.79570   0.00000  Uiso   1.00
C530   C     0.71425   0.05262   0.81261   0.00000  Uiso   1.00
C531   C     0.77100   0.44736   0.87177   0.00000  Uiso   1.00
C532   C     0.78575   0.05262   0.85406   0.00000  Uiso   1.00
H533   H     0.68731   0.12152   0.79674   0.00000  Uiso   1.00
H534   H     0.78705   0.46508   0.90279   0.00000  Uiso   1.00
H535   H     0.81455   0.03490   0.86980   0.00000  Uiso   1.00
H536   H     0.71295   0.46508   0.76388   0.00000  Uiso   1.00
H537   H     0.78701   0.37843   0.90071   0.00000  Uiso   1.00
H538   H     0.81269   0.12152   0.86993   0.00000  Uiso   1.00
H539   H     0.71299   0.37843   0.76596   0.00000  Uiso   1.00
H540   H     0.52882   0.28469   0.76162   0.00000  Uiso   1.00
H541   H     0.97109   0.21524   0.76165   0.00000  Uiso   1.00
H542   H     0.97118   0.28469   0.90505   0.00000  Uiso   1.00
H543   H     0.52891   0.21524   0.90502   0.00000  Uiso   1.00
H544   H     0.68545   0.03490   0.79686   0.00000  Uiso   1.00
I545   I     0.62583   0.29898   0.72911   0.00000  Uiso   1.00
I546   I     0.87405   0.20093   0.72917   0.00000  Uiso   1.00
I547   I     0.87417   0.29897   0.93756   0.00000  Uiso   1.00
I548   I     0.62595   0.20093   0.93749   0.00000  Uiso   1.00
N549   N     0.75000   0.12623   0.83333   0.00000  Uiso   1.00
N550   N     0.75000   0.37376   0.83333   0.00000  Uiso   1.00
O551   O     0.68453   0.28974   0.83334   0.00000  Uiso   1.00
O552   O     0.81547   0.21026   0.83333   0.00000  Uiso   1.00
O553   O     0.81547   0.28974   0.83333   0.00000  Uiso   1.00
O554   O     0.68453   0.21026   0.83334   0.00000  Uiso   1.00
O555   O     0.75000   0.28973   0.76178   0.00000  Uiso   1.00
O556   O     0.75000   0.21027   0.90489   0.00000  Uiso   1.00
O557   O     0.75000   0.28973   0.90489   0.00000  Uiso   1.00
O558   O     0.75000   0.21027   0.76178   0.00000  Uiso   1.00
Zn559  Zn    0.75000   0.30307   0.83333   0.00000  Uiso   1.00
Zn560  Zn    0.75000   0.19693   0.83333   0.00000  Uiso   1.00
C561   C     0.16402   0.75000   0.83332   0.00000  Uiso   1.00
C562   C     0.22900   0.94736   0.79490   0.00000  Uiso   1.00
C563   C     0.24999   0.75000   0.73952   0.00000  Uiso   1.00
C564   C     0.25002   0.75000   0.92714   0.00000  Uiso   1.00
C565   C     0.25000   0.52667   0.83333   0.00000  Uiso   1.00
C566   C     0.25000   0.97331   0.83333   0.00000  Uiso   1.00
C567   C     0.24999   0.75001   0.68845   0.00000  Uiso   1.00
C568   C     0.25001   0.75001   0.97821   0.00000  Uiso   1.00
C569   C     0.04696   0.76950   0.79282   0.00000  Uiso   1.00
C570   C     0.45299   0.73044   0.79284   0.00000  Uiso   1.00
C571   C     0.45304   0.76950   0.87385   0.00000  Uiso   1.00
C572   C     0.33598   0.75000   0.83335   0.00000  Uiso   1.00
C573   C     0.04701   0.73044   0.87383   0.00000  Uiso   1.00
C574   C     0.09321   0.76981   0.79263   0.00000  Uiso   1.00
C575   C     0.40674   0.73014   0.79266   0.00000  Uiso   1.00
C576   C     0.40679   0.76980   0.87404   0.00000  Uiso   1.00
C577   C     0.09326   0.73014   0.87400   0.00000  Uiso   1.00
C578   C     0.11626   0.74999   0.83332   0.00000  Uiso   1.00
C579   C     0.38374   0.74999   0.83335   0.00000  Uiso   1.00
C580   C     0.02408   0.74998   0.83333   0.00000  Uiso   1.00
C581   C     0.47592   0.74998   0.83334   0.00000  Uiso   1.00
C582   C     0.21498   0.60222   0.81287   0.00000  Uiso   1.00
C583   C     0.27071   0.89777   0.87097   0.00000  Uiso   1.00
C584   C     0.28502   0.60222   0.85380   0.00000  Uiso   1.00
C585   C     0.22929   0.89777   0.79570   0.00000  Uiso   1.00
C586   C     0.21425   0.55262   0.81261   0.00000  Uiso   1.00
C587   C     0.27100   0.94736   0.87177   0.00000  Uiso   1.00
C588   C     0.28575   0.55262   0.85406   0.00000  Uiso   1.00
H589   H     0.18731   0.62152   0.79674   0.00000  Uiso   1.00
H590   H     0.28705   0.96508   0.90279   0.00000  Uiso   1.00
H591   H     0.31455   0.53490   0.86980   0.00000  Uiso   1.00
H592   H     0.21295   0.96508   0.76388   0.00000  Uiso   1.00
H593   H     0.28701   0.87843   0.90071   0.00000  Uiso   1.00
H594   H     0.31269   0.62152   0.86993   0.00000  Uiso   1.00
H595   H     0.21299   0.87843   0.76596   0.00000  Uiso   1.00
H596   H     0.02882   0.78469   0.76162   0.00000  Uiso   1.00
H597   H     0.47109   0.71524   0.76165   0.00000  Uiso   1.00
H598   H     0.47118   0.78469   0.90505   0.00000  Uiso   1.00
H599   H     0.02891   0.71524   0.90502   0.00000  Uiso   1.00
H600   H     0.18545   0.53490   0.79686   0.00000  Uiso   1.00
I601   I     0.12583   0.79898   0.72911   0.00000  Uiso   1.00
I602   I     0.37405   0.70093   0.72917   0.00000  Uiso   1.00
I603   I     0.37417   0.79897   0.93756   0.00000  Uiso   1.00
I604   I     0.12595   0.70093   0.93749   0.00000  Uiso   1.00
N605   N     0.25000   0.62623   0.83333   0.00000  Uiso   1.00
N606   N     0.25000   0.87376   0.83333   0.00000  Uiso   1.00
O607   O     0.18453   0.78974   0.83334   0.00000  Uiso   1.00
O608   O     0.31547   0.71026   0.83333   0.00000  Uiso   1.00
O609   O     0.31547   0.78974   0.83333   0.00000  Uiso   1.00
O610   O     0.18453   0.71026   0.83334   0.00000  Uiso   1.00
O611   O     0.25000   0.78973   0.76178   0.00000  Uiso   1.00
O612   O     0.25000   0.71027   0.90489   0.00000  Uiso   1.00
O613   O     0.25000   0.78973   0.90489   0.00000  Uiso   1.00
O614   O     0.25000   0.71027   0.76178   0.00000  Uiso   1.00
Zn615  Zn    0.25000   0.80307   0.83333   0.00000  Uiso   1.00
Zn616  Zn    0.25000   0.69693   0.83333   0.00000  Uiso   1.00
C617   C     0.66402   0.75000   0.83332   0.00000  Uiso   1.00
C618   C     0.72900   0.94736   0.79490   0.00000  Uiso   1.00
C619   C     0.74999   0.75000   0.73952   0.00000  Uiso   1.00
C620   C     0.75002   0.75000   0.92714   0.00000  Uiso   1.00
C621   C     0.75000   0.52667   0.83333   0.00000  Uiso   1.00
C622   C     0.75000   0.97331   0.83333   0.00000  Uiso   1.00
C623   C     0.74999   0.75001   0.68845   0.00000  Uiso   1.00
C624   C     0.75001   0.75001   0.97821   0.00000  Uiso   1.00
C625   C     0.54696   0.76950   0.79282   0.00000  Uiso   1.00
C626   C     0.95299   0.73044   0.79284   0.00000  Uiso   1.00
C627   C     0.95304   0.76950   0.87385   0.00000  Uiso   1.00
C628   C     0.83598   0.75000   0.83335   0.00000  Uiso   1.00
C629   C     0.54701   0.73044   0.87383   0.00000  Uiso   1.00
C630   C     0.59321   0.76981   0.79263   0.00000  Uiso   1.00
C631   C     0.90674   0.73014   0.79266   0.00000  Uiso   1.00
C632   C     0.90679   0.76980   0.87404   0.00000  Uiso   1.00
C633   C     0.59326   0.73014   0.87400   0.00000  Uiso   1.00
C634   C     0.61626   0.74999   0.83332   0.00000  Uiso   1.00
C635   C     0.88374   0.74999   0.83335   0.00000  Uiso   1.00
C636   C     0.52408   0.74998   0.83333   0.00000  Uiso   1.00
C637   C     0.97592   0.74998   0.83334   0.00000  Uiso   1.00
C638   C     0.71498   0.60222   0.81287   0.00000  Uiso   1.00
C639   C     0.77071   0.89777   0.87097   0.00000  Uiso   1.00
C640   C     0.78502   0.60222   0.85380   0.00000  Uiso   1.00
C641   C     0.72929   0.89777   0.79570   0.00000  Uiso   1.00
C642   C     0.71425   0.55262   0.81261   0.00000  Uiso   1.00
C643   C     0.77100   0.94736   0.87177   0.00000  Uiso   1.00
C644   C     0.78575   0.55262   0.85406   0.00000  Uiso   1.00
H645   H     0.68731   0.62152   0.79674   0.00000  Uiso   1.00
H646   H     0.78705   0.96508   0.90279   0.00000  Uiso   1.00
H647   H     0.81455   0.53490   0.86980   0.00000  Uiso   1.00
H648   H     0.71295   0.96508   0.76388   0.00000  Uiso   1.00
H649   H     0.78701   0.87843   0.90071   0.00000  Uiso   1.00
H650   H     0.81269   0.62152   0.86993   0.00000  Uiso   1.00
H651   H     0.71299   0.87843   0.76596   0.00000  Uiso   1.00
H652   H     0.52882   0.78469   0.76162   0.00000  Uiso   1.00
H653   H     0.97109   0.71524   0.76165   0.00000  Uiso   1.00
H654   H     0.97118   0.78469   0.90505   0.00000  Uiso   1.00
H655   H     0.52891   0.71524   0.90502   0.00000  Uiso   1.00
H656   H     0.68545   0.53490   0.79686   0.00000  Uiso   1.00
I657   I     0.62583   0.79898   0.72911   0.00000  Uiso   1.00
I658   I     0.87405   0.70093   0.72917   0.00000  Uiso   1.00
I659   I     0.87417   0.79897   0.93756   0.00000  Uiso   1.00
I660   I     0.62595   0.70093   0.93749   0.00000  Uiso   1.00
N661   N     0.75000   0.62623   0.83333   0.00000  Uiso   1.00
N662   N     0.75000   0.87376   0.83333   0.00000  Uiso   1.00
O663   O     0.68453   0.78974   0.83334   0.00000  Uiso   1.00
O664   O     0.81547   0.71026   0.83333   0.00000  Uiso   1.00
O665   O     0.81547   0.78974   0.83333   0.00000  Uiso   1.00
O666   O     0.68453   0.71026   0.83334   0.00000  Uiso   1.00
O667   O     0.75000   0.78973   0.76178   0.00000  Uiso   1.00
O668   O     0.75000   0.71027   0.90489   0.00000  Uiso   1.00
O669   O     0.75000   0.78973   0.90489   0.00000  Uiso   1.00
O670   O     0.75000   0.71027   0.76178   0.00000  Uiso   1.00
Zn671  Zn    0.75000   0.80307   0.83333   0.00000  Uiso   1.00
Zn672  Zn    0.75000   0.69693   0.83333   0.00000  Uiso   1.00
loop_
_geom_bond_atom_site_label_1
_geom_bond_atom_site_label_2
_geom_bond_distance
_geom_bond_site_symmetry_2
_ccdc_geom_bond_type
C1     O50     1.284   .     A
C1     C18     1.427   .     S
C1     O47     1.284   .     A
C2     C6      1.411   .     A
C2     C25     1.408   .     A
C2     H32     1.082   .     S
C3     C7      1.365   .     S
C3     O54     1.275   .     A
C3     O51     1.275   .     A
C4     O53     1.275   .     A
C4     C8      1.365   .     S
C4     O52     1.275   .     A
C5     C28     1.411   .     A
C5     C26     1.411   .     A
C5     C118    1.514   1_545 S
C6     C27     1.411   .     A
C6     C117    1.514   .     S
C7     C456    1.165   1_554 S
C8     C231    1.165   .     S
C9     H36     1.084   .     S
C9     C14     1.382   .     A
C9     C20     1.396   .     A
C10    C15     1.382   .     A
C10    C21     1.396   .     A
C10    H37     1.084   .     S
C11    H38     1.084   .     S
C11    C16     1.382   .     A
C11    C21     1.396   .     A
C12    C19     1.427   .     S
C12    O48     1.284   .     A
C12    O49     1.284   .     A
C13    C17     1.382   .     A
C13    H39     1.084   .     S
C13    C20     1.396   .     A
C14    C18     1.405   .     A
C14    I41     2.126   .     S
C15    C19     1.405   .     A
C15    I42     2.126   .     S
C16    I43     2.126   .     S
C16    C19     1.405   .     A
C17    C18     1.405   .     A
C17    I44     2.126   .     S
C20    C77     1.439   1_455 S
C21    C76     1.439   .     S
C22    H29     1.082   .     S
C22    C26     1.408   .     A
C22    N45     1.363   .     A
C23    C27     1.408   .     A
C23    N46     1.363   .     A
C23    H33     1.082   .     S
C24    N45     1.363   .     A
C24    C28     1.408   .     A
C24    H34     1.082   .     S
C25    H35     1.082   .     S
C25    N46     1.363   .     A
C26    H40     1.082   .     S
C27    H30     1.082   .     S
C28    H31     1.082   .     S
N45    Zn56    2.006   .     S
N46    Zn55    2.006   .     S
O47    Zn55    1.993   .     S
O48    Zn56    1.993   .     S
O49    Zn55    1.993   .     S
O50    Zn56    1.993   .     S
O51    Zn55    1.950   .     S
O52    Zn56    1.950   .     S
O53    Zn55    1.950   .     S
O54    Zn56    1.950   .     S
C57    O106    1.284   .     A
C57    C74     1.427   .     S
C57    O103    1.284   .     A
C58    C62     1.411   .     A
C58    C81     1.408   .     A
C58    H88     1.082   .     S
C59    C63     1.365   .     S
C59    O110    1.275   .     A
C59    O107    1.275   .     A
C60    O109    1.275   .     A
C60    C64     1.365   .     S
C60    O108    1.275   .     A
C61    C84     1.411   .     A
C61    C82     1.411   .     A
C61    C174    1.514   1_545 S
C62    C83     1.411   .     A
C62    C173    1.514   .     S
C63    C512    1.165   1_554 S
C64    C287    1.165   .     S
C65    H92     1.084   .     S
C65    C70     1.382   .     A
C65    C76     1.396   .     A
C66    C71     1.382   .     A
C66    C77     1.396   .     A
C66    H93     1.084   .     S
C67    H94     1.084   .     S
C67    C72     1.382   .     A
C67    C77     1.396   .     A
C68    C75     1.427   .     S
C68    O104    1.284   .     A
C68    O105    1.284   .     A
C69    C73     1.382   .     A
C69    H95     1.084   .     S
C69    C76     1.396   .     A
C70    C74     1.405   .     A
C70    I97     2.126   .     S
C71    C75     1.405   .     A
C71    I98     2.126   .     S
C72    I99     2.126   .     S
C72    C75     1.405   .     A
C73    C74     1.405   .     A
C73    I100    2.126   .     S
C77    C20     1.439   1_655 S
C78    H85     1.082   .     S
C78    C82     1.408   .     A
C78    N101    1.363   .     A
C79    C83     1.408   .     A
C79    N102    1.363   .     A
C79    H89     1.082   .     S
C80    N101    1.363   .     A
C80    C84     1.408   .     A
C80    H90     1.082   .     S
C81    H91     1.082   .     S
C81    N102    1.363   .     A
C82    H96     1.082   .     S
C83    H86     1.082   .     S
C84    H87     1.082   .     S
N101   Zn112   2.006   .     S
N102   Zn111   2.006   .     S
O103   Zn111   1.993   .     S
O104   Zn112   1.993   .     S
O105   Zn111   1.993   .     S
O106   Zn112   1.993   .     S
O107   Zn111   1.950   .     S
O108   Zn112   1.950   .     S
O109   Zn111   1.950   .     S
O110   Zn112   1.950   .     S
C113   O162    1.284   .     A
C113   C130    1.427   .     S
C113   O159    1.284   .     A
C114   C118    1.411   .     A
C114   C137    1.408   .     A
C114   H144    1.082   .     S
C115   C119    1.365   .     S
C115   O166    1.275   .     A
C115   O163    1.275   .     A
C116   O165    1.275   .     A
C116   C120    1.365   .     S
C116   O164    1.275   .     A
C117   C140    1.411   .     A
C117   C138    1.411   .     A
C118   C139    1.411   .     A
C118   C5      1.514   1_565 S
C119   C568    1.165   1_554 S
C120   C343    1.165   .     S
C121   H148    1.084   .     S
C121   C126    1.382   .     A
C121   C132    1.396   .     A
C122   C127    1.382   .     A
C122   C133    1.396   .     A
C122   H149    1.084   .     S
C123   H150    1.084   .     S
C123   C128    1.382   .     A
C123   C133    1.396   .     A
C124   C131    1.427   .     S
C124   O160    1.284   .     A
C124   O161    1.284   .     A
C125   C129    1.382   .     A
C125   H151    1.084   .     S
C125   C132    1.396   .     A
C126   C130    1.405   .     A
C126   I153    2.126   .     S
C127   C131    1.405   .     A
C127   I154    2.126   .     S
C128   I155    2.126   .     S
C128   C131    1.405   .     A
C129   C130    1.405   .     A
C129   I156    2.126   .     S
C132   C189    1.439   1_455 S
C133   C188    1.439   .     S
C134   H141    1.082   .     S
C134   C138    1.408   .     A
C134   N157    1.363   .     A
C135   C139    1.408   .     A
C135   N158    1.363   .     A
C135   H145    1.082   .     S
C136   N157    1.363   .     A
C136   C140    1.408   .     A
C136   H146    1.082   .     S
C137   H147    1.082   .     S
C137   N158    1.363   .     A
C138   H152    1.082   .     S
C139   H142    1.082   .     S
C140   H143    1.082   .     S
N157   Zn168   2.006   .     S
N158   Zn167   2.006   .     S
O159   Zn167   1.993   .     S
O160   Zn168   1.993   .     S
O161   Zn167   1.993   .     S
O162   Zn168   1.993   .     S
O163   Zn167   1.950   .     S
O164   Zn168   1.950   .     S
O165   Zn167   1.950   .     S
O166   Zn168   1.950   .     S
C169   O218    1.284   .     A
C169   C186    1.427   .     S
C169   O215    1.284   .     A
C170   C174    1.411   .     A
C170   C193    1.408   .     A
C170   H200    1.082   .     S
C171   C175    1.365   .     S
C171   O222    1.275   .     A
C171   O219    1.275   .     A
C172   O221    1.275   .     A
C172   C176    1.365   .     S
C172   O220    1.275   .     A
C173   C196    1.411   .     A
C173   C194    1.411   .     A
C174   C195    1.411   .     A
C174   C61     1.514   1_565 S
C175   C624    1.165   1_554 S
C176   C399    1.165   .     S
C177   H204    1.084   .     S
C177   C182    1.382   .     A
C177   C188    1.396   .     A
C178   C183    1.382   .     A
C178   C189    1.396   .     A
C178   H205    1.084   .     S
C179   H206    1.084   .     S
C179   C184    1.382   .     A
C179   C189    1.396   .     A
C180   C187    1.427   .     S
C180   O216    1.284   .     A
C180   O217    1.284   .     A
C181   C185    1.382   .     A
C181   H207    1.084   .     S
C181   C188    1.396   .     A
C182   C186    1.405   .     A
C182   I209    2.126   .     S
C183   C187    1.405   .     A
C183   I210    2.126   .     S
C184   I211    2.126   .     S
C184   C187    1.405   .     A
C185   C186    1.405   .     A
C185   I212    2.126   .     S
C189   C132    1.439   1_655 S
C190   H197    1.082   .     S
C190   C194    1.408   .     A
C190   N213    1.363   .     A
C191   C195    1.408   .     A
C191   N214    1.363   .     A
C191   H201    1.082   .     S
C192   N213    1.363   .     A
C192   C196    1.408   .     A
C192   H202    1.082   .     S
C193   H203    1.082   .     S
C193   N214    1.363   .     A
C194   H208    1.082   .     S
C195   H198    1.082   .     S
C196   H199    1.082   .     S
N213   Zn224   2.006   .     S
N214   Zn223   2.006   .     S
O215   Zn223   1.993   .     S
O216   Zn224   1.993   .     S
O217   Zn223   1.993   .     S
O218   Zn224   1.993   .     S
O219   Zn223   1.950   .     S
O220   Zn224   1.950   .     S
O221   Zn223   1.950   .     S
O222   Zn224   1.950   .     S
C225   O274    1.284   .     A
C225   C242    1.427   .     S
C225   O271    1.284   .     A
C226   C230    1.411   .     A
C226   C249    1.408   .     A
C226   H256    1.082   .     S
C227   C231    1.365   .     S
C227   O278    1.275   .     A
C227   O275    1.275   .     A
C228   O277    1.275   .     A
C228   C232    1.365   .     S
C228   O276    1.275   .     A
C229   C252    1.411   .     A
C229   C250    1.411   .     A
C229   C342    1.514   1_545 S
C230   C251    1.411   .     A
C230   C341    1.514   .     S
C232   C455    1.165   .     S
C233   H260    1.084   .     S
C233   C238    1.382   .     A
C233   C244    1.396   .     A
C234   C239    1.382   .     A
C234   C245    1.396   .     A
C234   H261    1.084   .     S
C235   H262    1.084   .     S
C235   C240    1.382   .     A
C235   C245    1.396   .     A
C236   C243    1.427   .     S
C236   O272    1.284   .     A
C236   O273    1.284   .     A
C237   C241    1.382   .     A
C237   H263    1.084   .     S
C237   C244    1.396   .     A
C238   C242    1.405   .     A
C238   I265    2.126   .     S
C239   C243    1.405   .     A
C239   I266    2.126   .     S
C240   I267    2.126   .     S
C240   C243    1.405   .     A
C241   C242    1.405   .     A
C241   I268    2.126   .     S
C244   C301    1.439   1_455 S
C245   C300    1.439   .     S
C246   H253    1.082   .     S
C246   C250    1.408   .     A
C246   N269    1.363   .     A
C247   C251    1.408   .     A
C247   N270    1.363   .     A
C247   H257    1.082   .     S
C248   N269    1.363   .     A
C248   C252    1.408   .     A
C248   H258    1.082   .     S
C249   H259    1.082   .     S
C249   N270    1.363   .     A
C250   H264    1.082   .     S
C251   H254    1.082   .     S
C252   H255    1.082   .     S
N269   Zn280   2.006   .     S
N270   Zn279   2.006   .     S
O271   Zn279   1.993   .     S
O272   Zn280   1.993   .     S
O273   Zn279   1.993   .     S
O274   Zn280   1.993   .     S
O275   Zn279   1.950   .     S
O276   Zn280   1.950   .     S
O277   Zn279   1.950   .     S
O278   Zn280   1.950   .     S
C281   O330    1.284   .     A
C281   C298    1.427   .     S
C281   O327    1.284   .     A
C282   C286    1.411   .     A
C282   C305    1.408   .     A
C282   H312    1.082   .     S
C283   C287    1.365   .     S
C283   O334    1.275   .     A
C283   O331    1.275   .     A
C284   O333    1.275   .     A
C284   C288    1.365   .     S
C284   O332    1.275   .     A
C285   C308    1.411   .     A
C285   C306    1.411   .     A
C285   C398    1.514   1_545 S
C286   C307    1.411   .     A
C286   C397    1.514   .     S
C288   C511    1.165   .     S
C289   H316    1.084   .     S
C289   C294    1.382   .     A
C289   C300    1.396   .     A
C290   C295    1.382   .     A
C290   C301    1.396   .     A
C290   H317    1.084   .     S
C291   H318    1.084   .     S
C291   C296    1.382   .     A
C291   C301    1.396   .     A
C292   C299    1.427   .     S
C292   O328    1.284   .     A
C292   O329    1.284   .     A
C293   C297    1.382   .     A
C293   H319    1.084   .     S
C293   C300    1.396   .     A
C294   C298    1.405   .     A
C294   I321    2.126   .     S
C295   C299    1.405   .     A
C295   I322    2.126   .     S
C296   I323    2.126   .     S
C296   C299    1.405   .     A
C297   C298    1.405   .     A
C297   I324    2.126   .     S
C301   C244    1.439   1_655 S
C302   H309    1.082   .     S
C302   C306    1.408   .     A
C302   N325    1.363   .     A
C303   C307    1.408   .     A
C303   N326    1.363   .     A
C303   H313    1.082   .     S
C304   N325    1.363   .     A
C304   C308    1.408   .     A
C304   H314    1.082   .     S
C305   H315    1.082   .     S
C305   N326    1.363   .     A
C306   H320    1.082   .     S
C307   H310    1.082   .     S
C308   H311    1.082   .     S
N325   Zn336   2.006   .     S
N326   Zn335   2.006   .     S
O327   Zn335   1.993   .     S
O328   Zn336   1.993   .     S
O329   Zn335   1.993   .     S
O330   Zn336   1.993   .     S
O331   Zn335   1.950   .     S
O332   Zn336   1.950   .     S
O333   Zn335   1.950   .     S
O334   Zn336   1.950   .     S
C337   O386    1.284   .     A
C337   C354    1.427   .     S
C337   O383    1.284   .     A
C338   C342    1.411   .     A
C338   C361    1.408   .     A
C338   H368    1.082   .     S
C339   C343    1.365   .     S
C339   O390    1.275   .     A
C339   O387    1.275   .     A
C340   O389    1.275   .     A
C340   C344    1.365   .     S
C340   O388    1.275   .     A
C341   C364    1.411   .     A
C341   C362    1.411   .     A
C342   C363    1.411   .     A
C342   C229    1.514   1_565 S
C344   C567    1.165   .     S
C345   H372    1.084   .     S
C345   C350    1.382   .     A
C345   C356    1.396   .     A
C346   C351    1.382   .     A
C346   C357    1.396   .     A
C346   H373    1.084   .     S
C347   H374    1.084   .     S
C347   C352    1.382   .     A
C347   C357    1.396   .     A
C348   C355    1.427   .     S
C348   O384    1.284   .     A
C348   O385    1.284   .     A
C349   C353    1.382   .     A
C349   H375    1.084   .     S
C349   C356    1.396   .     A
C350   C354    1.405   .     A
C350   I377    2.126   .     S
C351   C355    1.405   .     A
C351   I378    2.126   .     S
C352   I379    2.126   .     S
C352   C355    1.405   .     A
C353   C354    1.405   .     A
C353   I380    2.126   .     S
C356   C413    1.439   1_455 S
C357   C412    1.439   .     S
C358   H365    1.082   .     S
C358   C362    1.408   .     A
C358   N381    1.363   .     A
C359   C363    1.408   .     A
C359   N382    1.363   .     A
C359   H369    1.082   .     S
C360   N381    1.363   .     A
C360   C364    1.408   .     A
C360   H370    1.082   .     S
C361   H371    1.082   .     S
C361   N382    1.363   .     A
C362   H376    1.082   .     S
C363   H366    1.082   .     S
C364   H367    1.082   .     S
N381   Zn392   2.006   .     S
N382   Zn391   2.006   .     S
O383   Zn391   1.993   .     S
O384   Zn392   1.993   .     S
O385   Zn391   1.993   .     S
O386   Zn392   1.993   .     S
O387   Zn391   1.950   .     S
O388   Zn392   1.950   .     S
O389   Zn391   1.950   .     S
O390   Zn392   1.950   .     S
C393   O442    1.284   .     A
C393   C410    1.427   .     S
C393   O439    1.284   .     A
C394   C398    1.411   .     A
C394   C417    1.408   .     A
C394   H424    1.082   .     S
C395   C399    1.365   .     S
C395   O446    1.275   .     A
C395   O443    1.275   .     A
C396   O445    1.275   .     A
C396   C400    1.365   .     S
C396   O444    1.275   .     A
C397   C420    1.411   .     A
C397   C418    1.411   .     A
C398   C419    1.411   .     A
C398   C285    1.514   1_565 S
C400   C623    1.165   .     S
C401   H428    1.084   .     S
C401   C406    1.382   .     A
C401   C412    1.396   .     A
C402   C407    1.382   .     A
C402   C413    1.396   .     A
C402   H429    1.084   .     S
C403   H430    1.084   .     S
C403   C408    1.382   .     A
C403   C413    1.396   .     A
C404   C411    1.427   .     S
C404   O440    1.284   .     A
C404   O441    1.284   .     A
C405   C409    1.382   .     A
C405   H431    1.084   .     S
C405   C412    1.396   .     A
C406   C410    1.405   .     A
C406   I433    2.126   .     S
C407   C411    1.405   .     A
C407   I434    2.126   .     S
C408   I435    2.126   .     S
C408   C411    1.405   .     A
C409   C410    1.405   .     A
C409   I436    2.126   .     S
C413   C356    1.439   1_655 S
C414   H421    1.082   .     S
C414   C418    1.408   .     A
C414   N437    1.363   .     A
C415   C419    1.408   .     A
C415   N438    1.363   .     A
C415   H425    1.082   .     S
C416   N437    1.363   .     A
C416   C420    1.408   .     A
C416   H426    1.082   .     S
C417   H427    1.082   .     S
C417   N438    1.363   .     A
C418   H432    1.082   .     S
C419   H422    1.082   .     S
C420   H423    1.082   .     S
N437   Zn448   2.006   .     S
N438   Zn447   2.006   .     S
O439   Zn447   1.993   .     S
O440   Zn448   1.993   .     S
O441   Zn447   1.993   .     S
O442   Zn448   1.993   .     S
O443   Zn447   1.950   .     S
O444   Zn448   1.950   .     S
O445   Zn447   1.950   .     S
O446   Zn448   1.950   .     S
C449   O498    1.284   .     A
C449   C466    1.427   .     S
C449   O495    1.284   .     A
C450   C454    1.411   .     A
C450   C473    1.408   .     A
C450   H480    1.082   .     S
C451   C455    1.365   .     S
C451   O502    1.275   .     A
C451   O499    1.275   .     A
C452   O501    1.275   .     A
C452   C456    1.365   .     S
C452   O500    1.275   .     A
C453   C476    1.411   .     A
C453   C474    1.411   .     A
C453   C566    1.514   1_545 S
C454   C475    1.411   .     A
C454   C565    1.514   .     S
C456   C7      1.165   1_556 S
C457   H484    1.084   .     S
C457   C462    1.382   .     A
C457   C468    1.396   .     A
C458   C463    1.382   .     A
C458   C469    1.396   .     A
C458   H485    1.084   .     S
C459   H486    1.084   .     S
C459   C464    1.382   .     A
C459   C469    1.396   .     A
C460   C467    1.427   .     S
C460   O496    1.284   .     A
C460   O497    1.284   .     A
C461   C465    1.382   .     A
C461   H487    1.084   .     S
C461   C468    1.396   .     A
C462   C466    1.405   .     A
C462   I489    2.126   .     S
C463   C467    1.405   .     A
C463   I490    2.126   .     S
C464   I491    2.126   .     S
C464   C467    1.405   .     A
C465   C466    1.405   .     A
C465   I492    2.126   .     S
C468   C525    1.439   1_455 S
C469   C524    1.439   .     S
C470   H477    1.082   .     S
C470   C474    1.408   .     A
C470   N493    1.363   .     A
C471   C475    1.408   .     A
C471   N494    1.363   .     A
C471   H481    1.082   .     S
C472   N493    1.363   .     A
C472   C476    1.408   .     A
C472   H482    1.082   .     S
C473   H483    1.082   .     S
C473   N494    1.363   .     A
C474   H488    1.082   .     S
C475   H478    1.082   .     S
C476   H479    1.082   .     S
N493   Zn504   2.006   .     S
N494   Zn503   2.006   .     S
O495   Zn503   1.993   .     S
O496   Zn504   1.993   .     S
O497   Zn503   1.993   .     S
O498   Zn504   1.993   .     S
O499   Zn503   1.950   .     S
O500   Zn504   1.950   .     S
O501   Zn503   1.950   .     S
O502   Zn504   1.950   .     S
C505   O554    1.284   .     A
C505   C522    1.427   .     S
C505   O551    1.284   .     A
C506   C510    1.411   .     A
C506   C529    1.408   .     A
C506   H536    1.082   .     S
C507   C511    1.365   .     S
C507   O558    1.275   .     A
C507   O555    1.275   .     A
C508   O557    1.275   .     A
C508   C512    1.365   .     S
C508   O556    1.275   .     A
C509   C532    1.411   .     A
C509   C530    1.411   .     A
C509   C622    1.514   1_545 S
C510   C531    1.411   .     A
C510   C621    1.514   .     S
C512   C63     1.165   1_556 S
C513   H540    1.084   .     S
C513   C518    1.382   .     A
C513   C524    1.396   .     A
C514   C519    1.382   .     A
C514   C525    1.396   .     A
C514   H541    1.084   .     S
C515   H542    1.084   .     S
C515   C520    1.382   .     A
C515   C525    1.396   .     A
C516   C523    1.427   .     S
C516   O552    1.284   .     A
C516   O553    1.284   .     A
C517   C521    1.382   .     A
C517   H543    1.084   .     S
C517   C524    1.396   .     A
C518   C522    1.405   .     A
C518   I545    2.126   .     S
C519   C523    1.405   .     A
C519   I546    2.126   .     S
C520   I547    2.126   .     S
C520   C523    1.405   .     A
C521   C522    1.405   .     A
C521   I548    2.126   .     S
C525   C468    1.439   1_655 S
C526   H533    1.082   .     S
C526   C530    1.408   .     A
C526   N549    1.363   .     A
C527   C531    1.408   .     A
C527   N550    1.363   .     A
C527   H537    1.082   .     S
C528   N549    1.363   .     A
C528   C532    1.408   .     A
C528   H538    1.082   .     S
C529   H539    1.082   .     S
C529   N550    1.363   .     A
C530   H544    1.082   .     S
C531   H534    1.082   .     S
C532   H535    1.082   .     S
N549   Zn560   2.006   .     S
N550   Zn559   2.006   .     S
O551   Zn559   1.993   .     S
O552   Zn560   1.993   .     S
O553   Zn559   1.993   .     S
O554   Zn560   1.993   .     S
O555   Zn559   1.950   .     S
O556   Zn560   1.950   .     S
O557   Zn559   1.950   .     S
O558   Zn560   1.950   .     S
C561   O610    1.284   .     A
C561   C578    1.427   .     S
C561   O607    1.284   .     A
C562   C566    1.411   .     A
C562   C585    1.408   .     A
C562   H592    1.082   .     S
C563   C567    1.365   .     S
C563   O614    1.275   .     A
C563   O611    1.275   .     A
C564   O613    1.275   .     A
C564   C568    1.365   .     S
C564   O612    1.275   .     A
C565   C588    1.411   .     A
C565   C586    1.411   .     A
C566   C587    1.411   .     A
C566   C453    1.514   1_565 S
C568   C119    1.165   1_556 S
C569   H596    1.084   .     S
C569   C574    1.382   .     A
C569   C580    1.396   .     A
C570   C575    1.382   .     A
C570   C581    1.396   .     A
C570   H597    1.084   .     S
C571   H598    1.084   .     S
C571   C576    1.382   .     A
C571   C581    1.396   .     A
C572   C579    1.427   .     S
C572   O608    1.284   .     A
C572   O609    1.284   .     A
C573   C577    1.382   .     A
C573   H599    1.084   .     S
C573   C580    1.396   .     A
C574   C578    1.405   .     A
C574   I601    2.126   .     S
C575   C579    1.405   .     A
C575   I602    2.126   .     S
C576   I603    2.126   .     S
C576   C579    1.405   .     A
C577   C578    1.405   .     A
C577   I604    2.126   .     S
C580   C637    1.439   1_455 S
C581   C636    1.439   .     S
C582   H589    1.082   .     S
C582   C586    1.408   .     A
C582   N605    1.363   .     A
C583   C587    1.408   .     A
C583   N606    1.363   .     A
C583   H593    1.082   .     S
C584   N605    1.363   .     A
C584   C588    1.408   .     A
C584   H594    1.082   .     S
C585   H595    1.082   .     S
C585   N606    1.363   .     A
C586   H600    1.082   .     S
C587   H590    1.082   .     S
C588   H591    1.082   .     S
N605   Zn616   2.006   .     S
N606   Zn615   2.006   .     S
O607   Zn615   1.993   .     S
O608   Zn616   1.993   .     S
O609   Zn615   1.993   .     S
O610   Zn616   1.993   .     S
O611   Zn615   1.950   .     S
O612   Zn616   1.950   .     S
O613   Zn615   1.950   .     S
O614   Zn616   1.950   .     S
C617   O666    1.284   .     A
C617   C634    1.427   .     S
C617   O663    1.284   .     A
C618   C622    1.411   .     A
C618   C641    1.408   .     A
C618   H648    1.082   .     S
C619   C623    1.365   .     S
C619   O670    1.275   .     A
C619   O667    1.275   .     A
C620   O669    1.275   .     A
C620   C624    1.365   .     S
C620   O668    1.275   .     A
C621   C644    1.411   .     A
C621   C642    1.411   .     A
C622   C643    1.411   .     A
C622   C509    1.514   1_565 S
C624   C175    1.165   1_556 S
C625   H652    1.084   .     S
C625   C630    1.382   .     A
C625   C636    1.396   .     A
C626   C631    1.382   .     A
C626   C637    1.396   .     A
C626   H653    1.084   .     S
C627   H654    1.084   .     S
C627   C632    1.382   .     A
C627   C637    1.396   .     A
C628   C635    1.427   .     S
C628   O664    1.284   .     A
C628   O665    1.284   .     A
C629   C633    1.382   .     A
C629   H655    1.084   .     S
C629   C636    1.396   .     A
C630   C634    1.405   .     A
C630   I657    2.126   .     S
C631   C635    1.405   .     A
C631   I658    2.126   .     S
C632   I659    2.126   .     S
C632   C635    1.405   .     A
C633   C634    1.405   .     A
C633   I660    2.126   .     S
C637   C580    1.439   1_655 S
C638   H645    1.082   .     S
C638   C642    1.408   .     A
C638   N661    1.363   .     A
C639   C643    1.408   .     A
C639   N662    1.363   .     A
C639   H649    1.082   .     S
C640   N661    1.363   .     A
C640   C644    1.408   .     A
C640   H650    1.082   .     S
C641   H651    1.082   .     S
C641   N662    1.363   .     A
C642   H656    1.082   .     S
C643   H646    1.082   .     S
C644   H647    1.082   .     S
N661   Zn672   2.006   .     S
N662   Zn671   2.006   .     S
O663   Zn671   1.993   .     S
O664   Zn672   1.993   .     S
O665   Zn671   1.993   .     S
O666   Zn672   1.993   .     S
O667   Zn671   1.950   .     S
O668   Zn672   1.950   .     S
O669   Zn671   1.950   .     S
O670   Zn672   1.950   .     S
