data_str_m3_o1_o16_pcu_sym.119
_audit_creation_date              2020-01-03
_audit_creation_method            'Materials Studio'
_symmetry_space_group_name_H-M    'P1'
_symmetry_Int_Tables_number       1
_symmetry_cell_setting            triclinic
loop_
_symmetry_equiv_pos_as_xyz
  x,y,z
_cell_length_a                    29.7842
_cell_length_b                    31.8166
_cell_length_c                    26.1005
_cell_angle_alpha                 90.3946
_cell_angle_beta                  69.5938
_cell_angle_gamma                 88.3273
loop_
_atom_site_label
_atom_site_type_symbol
_atom_site_fract_x
_atom_site_fract_y
_atom_site_fract_z
_atom_site_U_iso_or_equiv
_atom_site_adp_type
_atom_site_occupancy
C1     C     0.16633   0.24654   0.24955   0.00000  Uiso   1.00
C2     C     0.14441   0.14878   0.49220   0.00000  Uiso   1.00
C3     C     0.15593   0.14008   0.43602   0.00000  Uiso   1.00
C4     C     0.18197   0.14730   0.01356   0.00000  Uiso   1.00
C5     C     0.22683   0.12756   0.48338   0.00000  Uiso   1.00
C6     C     0.23433   0.11124   0.43114   0.00000  Uiso   1.00
C7     C     0.19940   0.11746   0.40748   0.00000  Uiso   1.00
C8     C     0.17655   0.16658   0.06339   0.00000  Uiso   1.00
C9     C     0.25384   0.13863   0.06000   0.00000  Uiso   1.00
C10    C     0.12314   0.15391   0.41079   0.00000  Uiso   1.00
C11    C     0.13040   0.31220   0.29257   0.00000  Uiso   1.00
C12    C     0.14015   0.16281   0.35199   0.00000  Uiso   1.00
C13    C     0.13082   0.02218   0.29633   0.00000  Uiso   1.00
C14    C     0.16680   0.04277   0.25484   0.00000  Uiso   1.00
C15    C     0.20261   0.02095   0.21306   0.00000  Uiso   1.00
C16    C     0.20216   0.31126   0.21071   0.00000  Uiso   1.00
C17    C     0.16556   0.29074   0.25002   0.00000  Uiso   1.00
C18    C     0.31740   0.13386   0.22747   0.00000  Uiso   1.00
C19    C     0.03170   0.13370   0.22771   0.00000  Uiso   1.00
C20    C     0.01492   0.20052   0.27139   0.00000  Uiso   1.00
C21    C     0.30046   0.19911   0.27254   0.00000  Uiso   1.00
C22    C     0.16656   0.08689   0.25207   0.00000  Uiso   1.00
C23    C     0.19346   0.16628   0.14762   0.00000  Uiso   1.00
C24    C     0.26279   0.12381   0.00673   0.00000  Uiso   1.00
C25    C     0.21005   0.15941   0.08865   0.00000  Uiso   1.00
C26    C     0.07509   0.16301   0.44347   0.00000  Uiso   1.00
C27    C     0.06144   0.16329   0.00003   0.00000  Uiso   1.00
C28    C     0.09565   0.15753   0.02467   0.00000  Uiso   1.00
H29    H     0.28012   0.13250   0.07933   0.00000  Uiso   1.00
H30    H     0.23008   0.03736   0.18167   0.00000  Uiso   1.00
H31    H     0.30591   0.10760   0.20909   0.00000  Uiso   1.00
H32    H     0.27484   0.22468   0.29040   0.00000  Uiso   1.00
H33    H     0.29697   0.10810   0.48480   0.00000  Uiso   1.00
H34    H     0.14553   0.18665   0.08413   0.00000  Uiso   1.00
H35    H     0.02423   0.16922   0.02500   0.00000  Uiso   1.00
H36    H     0.10375   0.29510   0.32368   0.00000  Uiso   1.00
N37    N     0.04760   0.16668   0.25001   0.00000  Uiso   1.00
N38    N     0.28573   0.16665   0.25000   0.00000  Uiso   1.00
O39    O     0.12846   0.22775   0.25000   0.00000  Uiso   1.00
O40    O     0.20490   0.22774   0.25000   0.00000  Uiso   1.00
O41    O     0.10947   0.16666   0.32681   0.00000  Uiso   1.00
O42    O     0.18591   0.16665   0.32681   0.00000  Uiso   1.00
O43    O     0.12843   0.10559   0.24999   0.00000  Uiso   1.00
O44    O     0.20488   0.10558   0.24999   0.00000  Uiso   1.00
O45    O     0.14742   0.16668   0.17319   0.00000  Uiso   1.00
O46    O     0.22387   0.16667   0.17319   0.00000  Uiso   1.00
Zn47   Zn    0.11562   0.16667   0.25000   0.00000  Uiso   1.00
Zn48   Zn    0.21771   0.16666   0.25000   0.00000  Uiso   1.00
C49    C     0.09351   0.04464   0.34494   0.00000  Uiso   1.00
C50    C     0.10076   0.03375   0.39850   0.00000  Uiso   1.00
H51    H     0.09484   0.33323   0.40754   0.00000  Uiso   1.00
H52    H     0.07477   0.05254   0.43259   0.00000  Uiso   1.00
H53    H     0.13760   0.04121   0.39617   0.00000  Uiso   1.00
H54    H     0.09436   0.07927   0.34167   0.00000  Uiso   1.00
H55    H     0.05715   0.03548   0.34718   0.00000  Uiso   1.00
F56    F     0.23656   0.28969   0.16982   0.00000  Uiso   1.00
F57    F     0.06192   0.10080   0.20414   0.00000  Uiso   1.00
C58    C     0.02662   0.24241   0.29112   0.00000  Uiso   1.00
C59    C     0.02772   0.24123   0.34902   0.00000  Uiso   1.00
H60    H     0.33226   0.22134   0.37527   0.00000  Uiso   1.00
H61    H     0.06295   0.22983   0.34898   0.00000  Uiso   1.00
H62    H     0.02150   0.27352   0.36715   0.00000  Uiso   1.00
H63    H     0.05747   0.25694   0.26094   0.00000  Uiso   1.00
H64    H     0.33139   0.26637   0.29306   0.00000  Uiso   1.00
F65    F     0.27575   0.08980   0.40253   0.00000  Uiso   1.00
F66    F     0.04103   0.17112   0.42114   0.00000  Uiso   1.00
F67    F     0.07960   0.15629   0.08010   0.00000  Uiso   1.00
F68    F     0.20655   0.09786   0.35878   0.00000  Uiso   1.00
C69    C     0.49967   0.24654   0.24955   0.00000  Uiso   1.00
C70    C     0.47774   0.14878   0.49220   0.00000  Uiso   1.00
C71    C     0.48926   0.14008   0.43602   0.00000  Uiso   1.00
C72    C     0.51530   0.14730   0.01356   0.00000  Uiso   1.00
C73    C     0.56016   0.12756   0.48338   0.00000  Uiso   1.00
C74    C     0.56767   0.11124   0.43114   0.00000  Uiso   1.00
C75    C     0.53273   0.11746   0.40748   0.00000  Uiso   1.00
C76    C     0.50989   0.16658   0.06339   0.00000  Uiso   1.00
C77    C     0.58717   0.13863   0.06000   0.00000  Uiso   1.00
C78    C     0.45647   0.15391   0.41079   0.00000  Uiso   1.00
C79    C     0.46373   0.31220   0.29257   0.00000  Uiso   1.00
C80    C     0.47348   0.16281   0.35199   0.00000  Uiso   1.00
C81    C     0.46416   0.02218   0.29633   0.00000  Uiso   1.00
C82    C     0.50013   0.04277   0.25484   0.00000  Uiso   1.00
C83    C     0.53594   0.02095   0.21306   0.00000  Uiso   1.00
C84    C     0.53550   0.31126   0.21071   0.00000  Uiso   1.00
C85    C     0.49890   0.29074   0.25002   0.00000  Uiso   1.00
C86    C     0.65073   0.13386   0.22747   0.00000  Uiso   1.00
C87    C     0.36504   0.13370   0.22771   0.00000  Uiso   1.00
C88    C     0.34825   0.20052   0.27139   0.00000  Uiso   1.00
C89    C     0.63379   0.19911   0.27254   0.00000  Uiso   1.00
C90    C     0.49989   0.08689   0.25207   0.00000  Uiso   1.00
C91    C     0.52679   0.16628   0.14762   0.00000  Uiso   1.00
C92    C     0.59613   0.12381   0.00673   0.00000  Uiso   1.00
C93    C     0.54338   0.15941   0.08865   0.00000  Uiso   1.00
C94    C     0.40842   0.16301   0.44347   0.00000  Uiso   1.00
C95    C     0.39478   0.16329   0.00003   0.00000  Uiso   1.00
C96    C     0.42898   0.15753   0.02467   0.00000  Uiso   1.00
H97    H     0.61345   0.13250   0.07933   0.00000  Uiso   1.00
H98    H     0.56341   0.03736   0.18167   0.00000  Uiso   1.00
H99    H     0.63925   0.10760   0.20909   0.00000  Uiso   1.00
H100   H     0.60817   0.22468   0.29040   0.00000  Uiso   1.00
H101   H     0.63031   0.10810   0.48480   0.00000  Uiso   1.00
H102   H     0.47887   0.18665   0.08413   0.00000  Uiso   1.00
H103   H     0.35756   0.16922   0.02500   0.00000  Uiso   1.00
H104   H     0.43709   0.29510   0.32368   0.00000  Uiso   1.00
N105   N     0.38093   0.16668   0.25001   0.00000  Uiso   1.00
N106   N     0.61906   0.16665   0.25000   0.00000  Uiso   1.00
O107   O     0.46179   0.22775   0.25000   0.00000  Uiso   1.00
O108   O     0.53823   0.22774   0.25000   0.00000  Uiso   1.00
O109   O     0.44280   0.16666   0.32681   0.00000  Uiso   1.00
O110   O     0.51924   0.16665   0.32681   0.00000  Uiso   1.00
O111   O     0.46177   0.10559   0.24999   0.00000  Uiso   1.00
O112   O     0.53821   0.10558   0.24999   0.00000  Uiso   1.00
O113   O     0.48076   0.16668   0.17319   0.00000  Uiso   1.00
O114   O     0.55720   0.16667   0.17319   0.00000  Uiso   1.00
Zn115  Zn    0.44896   0.16667   0.25000   0.00000  Uiso   1.00
Zn116  Zn    0.55104   0.16666   0.25000   0.00000  Uiso   1.00
C117   C     0.42684   0.04464   0.34494   0.00000  Uiso   1.00
C118   C     0.43410   0.03375   0.39850   0.00000  Uiso   1.00
H119   H     0.42818   0.33323   0.40754   0.00000  Uiso   1.00
H120   H     0.40811   0.05254   0.43259   0.00000  Uiso   1.00
H121   H     0.47093   0.04121   0.39617   0.00000  Uiso   1.00
H122   H     0.42770   0.07927   0.34167   0.00000  Uiso   1.00
H123   H     0.39048   0.03548   0.34718   0.00000  Uiso   1.00
F124   F     0.56989   0.28969   0.16982   0.00000  Uiso   1.00
F125   F     0.39525   0.10080   0.20414   0.00000  Uiso   1.00
C126   C     0.35996   0.24241   0.29112   0.00000  Uiso   1.00
C127   C     0.36106   0.24123   0.34902   0.00000  Uiso   1.00
H128   H     0.66560   0.22134   0.37527   0.00000  Uiso   1.00
H129   H     0.39629   0.22983   0.34898   0.00000  Uiso   1.00
H130   H     0.35484   0.27352   0.36715   0.00000  Uiso   1.00
H131   H     0.39080   0.25694   0.26094   0.00000  Uiso   1.00
H132   H     0.66472   0.26637   0.29306   0.00000  Uiso   1.00
F133   F     0.60908   0.08980   0.40253   0.00000  Uiso   1.00
F134   F     0.37437   0.17112   0.42114   0.00000  Uiso   1.00
F135   F     0.41293   0.15629   0.08010   0.00000  Uiso   1.00
F136   F     0.53988   0.09786   0.35878   0.00000  Uiso   1.00
C137   C     0.83300   0.24654   0.24955   0.00000  Uiso   1.00
C138   C     0.81107   0.14878   0.49220   0.00000  Uiso   1.00
C139   C     0.82260   0.14008   0.43602   0.00000  Uiso   1.00
C140   C     0.84863   0.14730   0.01356   0.00000  Uiso   1.00
C141   C     0.89349   0.12756   0.48338   0.00000  Uiso   1.00
C142   C     0.90100   0.11124   0.43114   0.00000  Uiso   1.00
C143   C     0.86607   0.11746   0.40748   0.00000  Uiso   1.00
C144   C     0.84322   0.16658   0.06339   0.00000  Uiso   1.00
C145   C     0.92051   0.13863   0.06000   0.00000  Uiso   1.00
C146   C     0.78980   0.15391   0.41079   0.00000  Uiso   1.00
C147   C     0.79706   0.31220   0.29257   0.00000  Uiso   1.00
C148   C     0.80681   0.16281   0.35199   0.00000  Uiso   1.00
C149   C     0.79749   0.02218   0.29633   0.00000  Uiso   1.00
C150   C     0.83346   0.04277   0.25484   0.00000  Uiso   1.00
C151   C     0.86927   0.02095   0.21306   0.00000  Uiso   1.00
C152   C     0.86883   0.31126   0.21071   0.00000  Uiso   1.00
C153   C     0.83223   0.29074   0.25002   0.00000  Uiso   1.00
C154   C     0.98406   0.13386   0.22747   0.00000  Uiso   1.00
C155   C     0.69837   0.13370   0.22771   0.00000  Uiso   1.00
C156   C     0.68158   0.20052   0.27139   0.00000  Uiso   1.00
C157   C     0.96712   0.19911   0.27254   0.00000  Uiso   1.00
C158   C     0.83322   0.08689   0.25207   0.00000  Uiso   1.00
C159   C     0.86013   0.16628   0.14762   0.00000  Uiso   1.00
C160   C     0.92946   0.12381   0.00673   0.00000  Uiso   1.00
C161   C     0.87672   0.15941   0.08865   0.00000  Uiso   1.00
C162   C     0.74176   0.16301   0.44347   0.00000  Uiso   1.00
C163   C     0.72811   0.16329   0.00003   0.00000  Uiso   1.00
C164   C     0.76232   0.15753   0.02467   0.00000  Uiso   1.00
H165   H     0.94678   0.13250   0.07933   0.00000  Uiso   1.00
H166   H     0.89675   0.03736   0.18167   0.00000  Uiso   1.00
H167   H     0.97258   0.10760   0.20909   0.00000  Uiso   1.00
H168   H     0.94150   0.22468   0.29040   0.00000  Uiso   1.00
H169   H     0.96364   0.10810   0.48480   0.00000  Uiso   1.00
H170   H     0.81220   0.18665   0.08413   0.00000  Uiso   1.00
H171   H     0.69089   0.16922   0.02500   0.00000  Uiso   1.00
H172   H     0.77042   0.29510   0.32368   0.00000  Uiso   1.00
N173   N     0.71426   0.16668   0.25001   0.00000  Uiso   1.00
N174   N     0.95239   0.16665   0.25000   0.00000  Uiso   1.00
O175   O     0.79512   0.22775   0.25000   0.00000  Uiso   1.00
O176   O     0.87157   0.22774   0.25000   0.00000  Uiso   1.00
O177   O     0.77613   0.16666   0.32681   0.00000  Uiso   1.00
O178   O     0.85258   0.16665   0.32681   0.00000  Uiso   1.00
O179   O     0.79510   0.10559   0.24999   0.00000  Uiso   1.00
O180   O     0.87154   0.10558   0.24999   0.00000  Uiso   1.00
O181   O     0.81409   0.16668   0.17319   0.00000  Uiso   1.00
O182   O     0.89053   0.16667   0.17319   0.00000  Uiso   1.00
Zn183  Zn    0.78229   0.16667   0.25000   0.00000  Uiso   1.00
Zn184  Zn    0.88438   0.16666   0.25000   0.00000  Uiso   1.00
C185   C     0.76017   0.04464   0.34494   0.00000  Uiso   1.00
C186   C     0.76743   0.03375   0.39850   0.00000  Uiso   1.00
H187   H     0.76151   0.33323   0.40754   0.00000  Uiso   1.00
H188   H     0.74144   0.05254   0.43259   0.00000  Uiso   1.00
H189   H     0.80426   0.04121   0.39617   0.00000  Uiso   1.00
H190   H     0.76103   0.07927   0.34167   0.00000  Uiso   1.00
H191   H     0.72381   0.03548   0.34718   0.00000  Uiso   1.00
F192   F     0.90323   0.28969   0.16982   0.00000  Uiso   1.00
F193   F     0.72858   0.10080   0.20414   0.00000  Uiso   1.00
C194   C     0.69329   0.24241   0.29112   0.00000  Uiso   1.00
C195   C     0.69439   0.24123   0.34902   0.00000  Uiso   1.00
H196   H     0.99893   0.22134   0.37527   0.00000  Uiso   1.00
H197   H     0.72962   0.22983   0.34898   0.00000  Uiso   1.00
H198   H     0.68817   0.27352   0.36715   0.00000  Uiso   1.00
H199   H     0.72414   0.25694   0.26094   0.00000  Uiso   1.00
H200   H     0.99806   0.26637   0.29306   0.00000  Uiso   1.00
F201   F     0.94242   0.08980   0.40253   0.00000  Uiso   1.00
F202   F     0.70770   0.17112   0.42114   0.00000  Uiso   1.00
F203   F     0.74626   0.15629   0.08010   0.00000  Uiso   1.00
F204   F     0.87322   0.09786   0.35878   0.00000  Uiso   1.00
C205   C     0.16633   0.57987   0.24955   0.00000  Uiso   1.00
C206   C     0.14441   0.48212   0.49220   0.00000  Uiso   1.00
C207   C     0.15593   0.47342   0.43602   0.00000  Uiso   1.00
C208   C     0.18197   0.48063   0.01356   0.00000  Uiso   1.00
C209   C     0.22683   0.46090   0.48338   0.00000  Uiso   1.00
C210   C     0.23433   0.44457   0.43114   0.00000  Uiso   1.00
C211   C     0.19940   0.45079   0.40748   0.00000  Uiso   1.00
C212   C     0.17655   0.49992   0.06339   0.00000  Uiso   1.00
C213   C     0.25384   0.47196   0.06000   0.00000  Uiso   1.00
C214   C     0.12314   0.48725   0.41079   0.00000  Uiso   1.00
C215   C     0.13040   0.64553   0.29257   0.00000  Uiso   1.00
C216   C     0.14015   0.49615   0.35199   0.00000  Uiso   1.00
C217   C     0.13082   0.35551   0.29633   0.00000  Uiso   1.00
C218   C     0.16680   0.37610   0.25484   0.00000  Uiso   1.00
C219   C     0.20261   0.35428   0.21306   0.00000  Uiso   1.00
C220   C     0.20216   0.64460   0.21071   0.00000  Uiso   1.00
C221   C     0.16556   0.62407   0.25002   0.00000  Uiso   1.00
C222   C     0.31740   0.46719   0.22747   0.00000  Uiso   1.00
C223   C     0.03170   0.46703   0.22771   0.00000  Uiso   1.00
C224   C     0.01492   0.53386   0.27139   0.00000  Uiso   1.00
C225   C     0.30046   0.53245   0.27254   0.00000  Uiso   1.00
C226   C     0.16656   0.42023   0.25207   0.00000  Uiso   1.00
C227   C     0.19346   0.49961   0.14762   0.00000  Uiso   1.00
C228   C     0.26279   0.45714   0.00673   0.00000  Uiso   1.00
C229   C     0.21005   0.49275   0.08865   0.00000  Uiso   1.00
C230   C     0.07509   0.49634   0.44347   0.00000  Uiso   1.00
C231   C     0.06144   0.49662   0.00003   0.00000  Uiso   1.00
C232   C     0.09565   0.49086   0.02467   0.00000  Uiso   1.00
H233   H     0.28012   0.46584   0.07933   0.00000  Uiso   1.00
H234   H     0.23008   0.37070   0.18167   0.00000  Uiso   1.00
H235   H     0.30591   0.44094   0.20909   0.00000  Uiso   1.00
H236   H     0.27484   0.55801   0.29040   0.00000  Uiso   1.00
H237   H     0.29697   0.44143   0.48480   0.00000  Uiso   1.00
H238   H     0.14553   0.51999   0.08413   0.00000  Uiso   1.00
H239   H     0.02423   0.50255   0.02500   0.00000  Uiso   1.00
H240   H     0.10375   0.62843   0.32368   0.00000  Uiso   1.00
N241   N     0.04760   0.50001   0.25001   0.00000  Uiso   1.00
N242   N     0.28573   0.49998   0.25000   0.00000  Uiso   1.00
O243   O     0.12846   0.56108   0.25000   0.00000  Uiso   1.00
O244   O     0.20490   0.56107   0.25000   0.00000  Uiso   1.00
O245   O     0.10947   0.50000   0.32681   0.00000  Uiso   1.00
O246   O     0.18591   0.49999   0.32681   0.00000  Uiso   1.00
O247   O     0.12843   0.43893   0.24999   0.00000  Uiso   1.00
O248   O     0.20488   0.43892   0.24999   0.00000  Uiso   1.00
O249   O     0.14742   0.50001   0.17319   0.00000  Uiso   1.00
O250   O     0.22387   0.50000   0.17319   0.00000  Uiso   1.00
Zn251  Zn    0.11562   0.50001   0.25000   0.00000  Uiso   1.00
Zn252  Zn    0.21771   0.49999   0.25000   0.00000  Uiso   1.00
C253   C     0.09351   0.37798   0.34494   0.00000  Uiso   1.00
C254   C     0.10076   0.36709   0.39850   0.00000  Uiso   1.00
H255   H     0.09484   0.66657   0.40754   0.00000  Uiso   1.00
H256   H     0.07477   0.38587   0.43259   0.00000  Uiso   1.00
H257   H     0.13760   0.37454   0.39617   0.00000  Uiso   1.00
H258   H     0.09436   0.41261   0.34167   0.00000  Uiso   1.00
H259   H     0.05715   0.36882   0.34718   0.00000  Uiso   1.00
F260   F     0.23656   0.62302   0.16982   0.00000  Uiso   1.00
F261   F     0.06192   0.43413   0.20414   0.00000  Uiso   1.00
C262   C     0.02662   0.57574   0.29112   0.00000  Uiso   1.00
C263   C     0.02772   0.57457   0.34902   0.00000  Uiso   1.00
H264   H     0.33226   0.55467   0.37527   0.00000  Uiso   1.00
H265   H     0.06295   0.56316   0.34898   0.00000  Uiso   1.00
H266   H     0.02150   0.60685   0.36715   0.00000  Uiso   1.00
H267   H     0.05747   0.59027   0.26094   0.00000  Uiso   1.00
H268   H     0.33139   0.59971   0.29306   0.00000  Uiso   1.00
F269   F     0.27575   0.42313   0.40253   0.00000  Uiso   1.00
F270   F     0.04103   0.50446   0.42114   0.00000  Uiso   1.00
F271   F     0.07960   0.48962   0.08010   0.00000  Uiso   1.00
F272   F     0.20655   0.43120   0.35878   0.00000  Uiso   1.00
C273   C     0.49967   0.57987   0.24955   0.00000  Uiso   1.00
C274   C     0.47774   0.48212   0.49220   0.00000  Uiso   1.00
C275   C     0.48926   0.47342   0.43602   0.00000  Uiso   1.00
C276   C     0.51530   0.48063   0.01356   0.00000  Uiso   1.00
C277   C     0.56016   0.46090   0.48338   0.00000  Uiso   1.00
C278   C     0.56767   0.44457   0.43114   0.00000  Uiso   1.00
C279   C     0.53273   0.45079   0.40748   0.00000  Uiso   1.00
C280   C     0.50989   0.49992   0.06339   0.00000  Uiso   1.00
C281   C     0.58717   0.47196   0.06000   0.00000  Uiso   1.00
C282   C     0.45647   0.48725   0.41079   0.00000  Uiso   1.00
C283   C     0.46373   0.64553   0.29257   0.00000  Uiso   1.00
C284   C     0.47348   0.49615   0.35199   0.00000  Uiso   1.00
C285   C     0.46416   0.35551   0.29633   0.00000  Uiso   1.00
C286   C     0.50013   0.37610   0.25484   0.00000  Uiso   1.00
C287   C     0.53594   0.35428   0.21306   0.00000  Uiso   1.00
C288   C     0.53550   0.64460   0.21071   0.00000  Uiso   1.00
C289   C     0.49890   0.62407   0.25002   0.00000  Uiso   1.00
C290   C     0.65073   0.46719   0.22747   0.00000  Uiso   1.00
C291   C     0.36504   0.46703   0.22771   0.00000  Uiso   1.00
C292   C     0.34825   0.53386   0.27139   0.00000  Uiso   1.00
C293   C     0.63379   0.53245   0.27254   0.00000  Uiso   1.00
C294   C     0.49989   0.42023   0.25207   0.00000  Uiso   1.00
C295   C     0.52679   0.49961   0.14762   0.00000  Uiso   1.00
C296   C     0.59613   0.45714   0.00673   0.00000  Uiso   1.00
C297   C     0.54338   0.49275   0.08865   0.00000  Uiso   1.00
C298   C     0.40842   0.49634   0.44347   0.00000  Uiso   1.00
C299   C     0.39478   0.49662   0.00003   0.00000  Uiso   1.00
C300   C     0.42898   0.49086   0.02467   0.00000  Uiso   1.00
H301   H     0.61345   0.46584   0.07933   0.00000  Uiso   1.00
H302   H     0.56341   0.37070   0.18167   0.00000  Uiso   1.00
H303   H     0.63925   0.44094   0.20909   0.00000  Uiso   1.00
H304   H     0.60817   0.55801   0.29040   0.00000  Uiso   1.00
H305   H     0.63031   0.44143   0.48480   0.00000  Uiso   1.00
H306   H     0.47887   0.51999   0.08413   0.00000  Uiso   1.00
H307   H     0.35756   0.50255   0.02500   0.00000  Uiso   1.00
H308   H     0.43709   0.62843   0.32368   0.00000  Uiso   1.00
N309   N     0.38093   0.50001   0.25001   0.00000  Uiso   1.00
N310   N     0.61906   0.49998   0.25000   0.00000  Uiso   1.00
O311   O     0.46179   0.56108   0.25000   0.00000  Uiso   1.00
O312   O     0.53823   0.56107   0.25000   0.00000  Uiso   1.00
O313   O     0.44280   0.50000   0.32681   0.00000  Uiso   1.00
O314   O     0.51924   0.49999   0.32681   0.00000  Uiso   1.00
O315   O     0.46177   0.43893   0.24999   0.00000  Uiso   1.00
O316   O     0.53821   0.43892   0.24999   0.00000  Uiso   1.00
O317   O     0.48076   0.50001   0.17319   0.00000  Uiso   1.00
O318   O     0.55720   0.50000   0.17319   0.00000  Uiso   1.00
Zn319  Zn    0.44896   0.50001   0.25000   0.00000  Uiso   1.00
Zn320  Zn    0.55104   0.49999   0.25000   0.00000  Uiso   1.00
C321   C     0.42684   0.37798   0.34494   0.00000  Uiso   1.00
C322   C     0.43410   0.36709   0.39850   0.00000  Uiso   1.00
H323   H     0.42818   0.66657   0.40754   0.00000  Uiso   1.00
H324   H     0.40811   0.38587   0.43259   0.00000  Uiso   1.00
H325   H     0.47093   0.37454   0.39617   0.00000  Uiso   1.00
H326   H     0.42770   0.41261   0.34167   0.00000  Uiso   1.00
H327   H     0.39048   0.36882   0.34718   0.00000  Uiso   1.00
F328   F     0.56989   0.62302   0.16982   0.00000  Uiso   1.00
F329   F     0.39525   0.43413   0.20414   0.00000  Uiso   1.00
C330   C     0.35996   0.57574   0.29112   0.00000  Uiso   1.00
C331   C     0.36106   0.57457   0.34902   0.00000  Uiso   1.00
H332   H     0.66560   0.55467   0.37527   0.00000  Uiso   1.00
H333   H     0.39629   0.56316   0.34898   0.00000  Uiso   1.00
H334   H     0.35484   0.60685   0.36715   0.00000  Uiso   1.00
H335   H     0.39080   0.59027   0.26094   0.00000  Uiso   1.00
H336   H     0.66472   0.59971   0.29306   0.00000  Uiso   1.00
F337   F     0.60908   0.42313   0.40253   0.00000  Uiso   1.00
F338   F     0.37437   0.50446   0.42114   0.00000  Uiso   1.00
F339   F     0.41293   0.48962   0.08010   0.00000  Uiso   1.00
F340   F     0.53988   0.43120   0.35878   0.00000  Uiso   1.00
C341   C     0.83300   0.57987   0.24955   0.00000  Uiso   1.00
C342   C     0.81107   0.48212   0.49220   0.00000  Uiso   1.00
C343   C     0.82260   0.47342   0.43602   0.00000  Uiso   1.00
C344   C     0.84863   0.48063   0.01356   0.00000  Uiso   1.00
C345   C     0.89349   0.46090   0.48338   0.00000  Uiso   1.00
C346   C     0.90100   0.44457   0.43114   0.00000  Uiso   1.00
C347   C     0.86607   0.45079   0.40748   0.00000  Uiso   1.00
C348   C     0.84322   0.49992   0.06339   0.00000  Uiso   1.00
C349   C     0.92051   0.47196   0.06000   0.00000  Uiso   1.00
C350   C     0.78980   0.48725   0.41079   0.00000  Uiso   1.00
C351   C     0.79706   0.64553   0.29257   0.00000  Uiso   1.00
C352   C     0.80681   0.49615   0.35199   0.00000  Uiso   1.00
C353   C     0.79749   0.35551   0.29633   0.00000  Uiso   1.00
C354   C     0.83346   0.37610   0.25484   0.00000  Uiso   1.00
C355   C     0.86927   0.35428   0.21306   0.00000  Uiso   1.00
C356   C     0.86883   0.64460   0.21071   0.00000  Uiso   1.00
C357   C     0.83223   0.62407   0.25002   0.00000  Uiso   1.00
C358   C     0.98406   0.46719   0.22747   0.00000  Uiso   1.00
C359   C     0.69837   0.46703   0.22771   0.00000  Uiso   1.00
C360   C     0.68158   0.53386   0.27139   0.00000  Uiso   1.00
C361   C     0.96712   0.53245   0.27254   0.00000  Uiso   1.00
C362   C     0.83322   0.42023   0.25207   0.00000  Uiso   1.00
C363   C     0.86013   0.49961   0.14762   0.00000  Uiso   1.00
C364   C     0.92946   0.45714   0.00673   0.00000  Uiso   1.00
C365   C     0.87672   0.49275   0.08865   0.00000  Uiso   1.00
C366   C     0.74176   0.49634   0.44347   0.00000  Uiso   1.00
C367   C     0.72811   0.49662   0.00003   0.00000  Uiso   1.00
C368   C     0.76232   0.49086   0.02467   0.00000  Uiso   1.00
H369   H     0.94678   0.46584   0.07933   0.00000  Uiso   1.00
H370   H     0.89675   0.37070   0.18167   0.00000  Uiso   1.00
H371   H     0.97258   0.44094   0.20909   0.00000  Uiso   1.00
H372   H     0.94150   0.55801   0.29040   0.00000  Uiso   1.00
H373   H     0.96364   0.44143   0.48480   0.00000  Uiso   1.00
H374   H     0.81220   0.51999   0.08413   0.00000  Uiso   1.00
H375   H     0.69089   0.50255   0.02500   0.00000  Uiso   1.00
H376   H     0.77042   0.62843   0.32368   0.00000  Uiso   1.00
N377   N     0.71426   0.50001   0.25001   0.00000  Uiso   1.00
N378   N     0.95239   0.49998   0.25000   0.00000  Uiso   1.00
O379   O     0.79512   0.56108   0.25000   0.00000  Uiso   1.00
O380   O     0.87157   0.56107   0.25000   0.00000  Uiso   1.00
O381   O     0.77613   0.50000   0.32681   0.00000  Uiso   1.00
O382   O     0.85258   0.49999   0.32681   0.00000  Uiso   1.00
O383   O     0.79510   0.43893   0.24999   0.00000  Uiso   1.00
O384   O     0.87154   0.43892   0.24999   0.00000  Uiso   1.00
O385   O     0.81409   0.50001   0.17319   0.00000  Uiso   1.00
O386   O     0.89053   0.50000   0.17319   0.00000  Uiso   1.00
Zn387  Zn    0.78229   0.50001   0.25000   0.00000  Uiso   1.00
Zn388  Zn    0.88438   0.49999   0.25000   0.00000  Uiso   1.00
C389   C     0.76017   0.37798   0.34494   0.00000  Uiso   1.00
C390   C     0.76743   0.36709   0.39850   0.00000  Uiso   1.00
H391   H     0.76151   0.66657   0.40754   0.00000  Uiso   1.00
H392   H     0.74144   0.38587   0.43259   0.00000  Uiso   1.00
H393   H     0.80426   0.37454   0.39617   0.00000  Uiso   1.00
H394   H     0.76103   0.41261   0.34167   0.00000  Uiso   1.00
H395   H     0.72381   0.36882   0.34718   0.00000  Uiso   1.00
F396   F     0.90323   0.62302   0.16982   0.00000  Uiso   1.00
F397   F     0.72858   0.43413   0.20414   0.00000  Uiso   1.00
C398   C     0.69329   0.57574   0.29112   0.00000  Uiso   1.00
C399   C     0.69439   0.57457   0.34902   0.00000  Uiso   1.00
H400   H     0.99893   0.55467   0.37527   0.00000  Uiso   1.00
H401   H     0.72962   0.56316   0.34898   0.00000  Uiso   1.00
H402   H     0.68817   0.60685   0.36715   0.00000  Uiso   1.00
H403   H     0.72414   0.59027   0.26094   0.00000  Uiso   1.00
H404   H     0.99806   0.59971   0.29306   0.00000  Uiso   1.00
F405   F     0.94242   0.42313   0.40253   0.00000  Uiso   1.00
F406   F     0.70770   0.50446   0.42114   0.00000  Uiso   1.00
F407   F     0.74626   0.48962   0.08010   0.00000  Uiso   1.00
F408   F     0.87322   0.43120   0.35878   0.00000  Uiso   1.00
C409   C     0.16633   0.91321   0.24955   0.00000  Uiso   1.00
C410   C     0.14441   0.81545   0.49220   0.00000  Uiso   1.00
C411   C     0.15593   0.80675   0.43602   0.00000  Uiso   1.00
C412   C     0.18197   0.81397   0.01356   0.00000  Uiso   1.00
C413   C     0.22683   0.79423   0.48338   0.00000  Uiso   1.00
C414   C     0.23433   0.77791   0.43114   0.00000  Uiso   1.00
C415   C     0.19940   0.78413   0.40748   0.00000  Uiso   1.00
C416   C     0.17655   0.83325   0.06339   0.00000  Uiso   1.00
C417   C     0.25384   0.80529   0.06000   0.00000  Uiso   1.00
C418   C     0.12314   0.82058   0.41079   0.00000  Uiso   1.00
C419   C     0.13040   0.97886   0.29257   0.00000  Uiso   1.00
C420   C     0.14015   0.82948   0.35199   0.00000  Uiso   1.00
C421   C     0.13082   0.68884   0.29633   0.00000  Uiso   1.00
C422   C     0.16680   0.70944   0.25484   0.00000  Uiso   1.00
C423   C     0.20261   0.68762   0.21306   0.00000  Uiso   1.00
C424   C     0.20216   0.97793   0.21071   0.00000  Uiso   1.00
C425   C     0.16556   0.95740   0.25002   0.00000  Uiso   1.00
C426   C     0.31740   0.80053   0.22747   0.00000  Uiso   1.00
C427   C     0.03170   0.80036   0.22771   0.00000  Uiso   1.00
C428   C     0.01492   0.86719   0.27139   0.00000  Uiso   1.00
C429   C     0.30046   0.86578   0.27254   0.00000  Uiso   1.00
C430   C     0.16656   0.75356   0.25207   0.00000  Uiso   1.00
C431   C     0.19346   0.83295   0.14762   0.00000  Uiso   1.00
C432   C     0.26279   0.79048   0.00673   0.00000  Uiso   1.00
C433   C     0.21005   0.82608   0.08865   0.00000  Uiso   1.00
C434   C     0.07509   0.82968   0.44347   0.00000  Uiso   1.00
C435   C     0.06144   0.82995   0.00003   0.00000  Uiso   1.00
C436   C     0.09565   0.82419   0.02467   0.00000  Uiso   1.00
H437   H     0.28012   0.79917   0.07933   0.00000  Uiso   1.00
H438   H     0.23008   0.70403   0.18167   0.00000  Uiso   1.00
H439   H     0.30591   0.77427   0.20909   0.00000  Uiso   1.00
H440   H     0.27484   0.89134   0.29040   0.00000  Uiso   1.00
H441   H     0.29697   0.77476   0.48480   0.00000  Uiso   1.00
H442   H     0.14553   0.85332   0.08413   0.00000  Uiso   1.00
H443   H     0.02423   0.83588   0.02500   0.00000  Uiso   1.00
H444   H     0.10375   0.96177   0.32368   0.00000  Uiso   1.00
N445   N     0.04760   0.83334   0.25001   0.00000  Uiso   1.00
N446   N     0.28573   0.83331   0.25000   0.00000  Uiso   1.00
O447   O     0.12846   0.89442   0.25000   0.00000  Uiso   1.00
O448   O     0.20490   0.89441   0.25000   0.00000  Uiso   1.00
O449   O     0.10947   0.83333   0.32681   0.00000  Uiso   1.00
O450   O     0.18591   0.83332   0.32681   0.00000  Uiso   1.00
O451   O     0.12843   0.77226   0.24999   0.00000  Uiso   1.00
O452   O     0.20488   0.77225   0.24999   0.00000  Uiso   1.00
O453   O     0.14742   0.83335   0.17319   0.00000  Uiso   1.00
O454   O     0.22387   0.83334   0.17319   0.00000  Uiso   1.00
Zn455  Zn    0.11562   0.83334   0.25000   0.00000  Uiso   1.00
Zn456  Zn    0.21771   0.83333   0.25000   0.00000  Uiso   1.00
C457   C     0.09351   0.71131   0.34494   0.00000  Uiso   1.00
C458   C     0.10076   0.70042   0.39850   0.00000  Uiso   1.00
H459   H     0.09484   0.99990   0.40754   0.00000  Uiso   1.00
H460   H     0.07477   0.71921   0.43259   0.00000  Uiso   1.00
H461   H     0.13760   0.70787   0.39617   0.00000  Uiso   1.00
H462   H     0.09436   0.74594   0.34167   0.00000  Uiso   1.00
H463   H     0.05715   0.70215   0.34718   0.00000  Uiso   1.00
F464   F     0.23656   0.95635   0.16982   0.00000  Uiso   1.00
F465   F     0.06192   0.76746   0.20414   0.00000  Uiso   1.00
C466   C     0.02662   0.90908   0.29112   0.00000  Uiso   1.00
C467   C     0.02772   0.90790   0.34902   0.00000  Uiso   1.00
H468   H     0.33226   0.88801   0.37527   0.00000  Uiso   1.00
H469   H     0.06295   0.89650   0.34898   0.00000  Uiso   1.00
H470   H     0.02150   0.94018   0.36715   0.00000  Uiso   1.00
H471   H     0.05747   0.92361   0.26094   0.00000  Uiso   1.00
H472   H     0.33139   0.93304   0.29306   0.00000  Uiso   1.00
F473   F     0.27575   0.75646   0.40253   0.00000  Uiso   1.00
F474   F     0.04103   0.83779   0.42114   0.00000  Uiso   1.00
F475   F     0.07960   0.82296   0.08010   0.00000  Uiso   1.00
F476   F     0.20655   0.76453   0.35878   0.00000  Uiso   1.00
C477   C     0.49967   0.91321   0.24955   0.00000  Uiso   1.00
C478   C     0.47774   0.81545   0.49220   0.00000  Uiso   1.00
C479   C     0.48926   0.80675   0.43602   0.00000  Uiso   1.00
C480   C     0.51530   0.81397   0.01356   0.00000  Uiso   1.00
C481   C     0.56016   0.79423   0.48338   0.00000  Uiso   1.00
C482   C     0.56767   0.77791   0.43114   0.00000  Uiso   1.00
C483   C     0.53273   0.78413   0.40748   0.00000  Uiso   1.00
C484   C     0.50989   0.83325   0.06339   0.00000  Uiso   1.00
C485   C     0.58717   0.80529   0.06000   0.00000  Uiso   1.00
C486   C     0.45647   0.82058   0.41079   0.00000  Uiso   1.00
C487   C     0.46373   0.97886   0.29257   0.00000  Uiso   1.00
C488   C     0.47348   0.82948   0.35199   0.00000  Uiso   1.00
C489   C     0.46416   0.68884   0.29633   0.00000  Uiso   1.00
C490   C     0.50013   0.70944   0.25484   0.00000  Uiso   1.00
C491   C     0.53594   0.68762   0.21306   0.00000  Uiso   1.00
C492   C     0.53550   0.97793   0.21071   0.00000  Uiso   1.00
C493   C     0.49890   0.95740   0.25002   0.00000  Uiso   1.00
C494   C     0.65073   0.80053   0.22747   0.00000  Uiso   1.00
C495   C     0.36504   0.80036   0.22771   0.00000  Uiso   1.00
C496   C     0.34825   0.86719   0.27139   0.00000  Uiso   1.00
C497   C     0.63379   0.86578   0.27254   0.00000  Uiso   1.00
C498   C     0.49989   0.75356   0.25207   0.00000  Uiso   1.00
C499   C     0.52679   0.83295   0.14762   0.00000  Uiso   1.00
C500   C     0.59613   0.79048   0.00673   0.00000  Uiso   1.00
C501   C     0.54338   0.82608   0.08865   0.00000  Uiso   1.00
C502   C     0.40842   0.82968   0.44347   0.00000  Uiso   1.00
C503   C     0.39478   0.82995   0.00003   0.00000  Uiso   1.00
C504   C     0.42898   0.82419   0.02467   0.00000  Uiso   1.00
H505   H     0.61345   0.79917   0.07933   0.00000  Uiso   1.00
H506   H     0.56341   0.70403   0.18167   0.00000  Uiso   1.00
H507   H     0.63925   0.77427   0.20909   0.00000  Uiso   1.00
H508   H     0.60817   0.89134   0.29040   0.00000  Uiso   1.00
H509   H     0.63031   0.77476   0.48480   0.00000  Uiso   1.00
H510   H     0.47887   0.85332   0.08413   0.00000  Uiso   1.00
H511   H     0.35756   0.83588   0.02500   0.00000  Uiso   1.00
H512   H     0.43709   0.96177   0.32368   0.00000  Uiso   1.00
N513   N     0.38093   0.83334   0.25001   0.00000  Uiso   1.00
N514   N     0.61906   0.83331   0.25000   0.00000  Uiso   1.00
O515   O     0.46179   0.89442   0.25000   0.00000  Uiso   1.00
O516   O     0.53823   0.89441   0.25000   0.00000  Uiso   1.00
O517   O     0.44280   0.83333   0.32681   0.00000  Uiso   1.00
O518   O     0.51924   0.83332   0.32681   0.00000  Uiso   1.00
O519   O     0.46177   0.77226   0.24999   0.00000  Uiso   1.00
O520   O     0.53821   0.77225   0.24999   0.00000  Uiso   1.00
O521   O     0.48076   0.83335   0.17319   0.00000  Uiso   1.00
O522   O     0.55720   0.83334   0.17319   0.00000  Uiso   1.00
Zn523  Zn    0.44896   0.83334   0.25000   0.00000  Uiso   1.00
Zn524  Zn    0.55104   0.83333   0.25000   0.00000  Uiso   1.00
C525   C     0.42684   0.71131   0.34494   0.00000  Uiso   1.00
C526   C     0.43410   0.70042   0.39850   0.00000  Uiso   1.00
H527   H     0.42818   0.99990   0.40754   0.00000  Uiso   1.00
H528   H     0.40811   0.71921   0.43259   0.00000  Uiso   1.00
H529   H     0.47093   0.70787   0.39617   0.00000  Uiso   1.00
H530   H     0.42770   0.74594   0.34167   0.00000  Uiso   1.00
H531   H     0.39048   0.70215   0.34718   0.00000  Uiso   1.00
F532   F     0.56989   0.95635   0.16982   0.00000  Uiso   1.00
F533   F     0.39525   0.76746   0.20414   0.00000  Uiso   1.00
C534   C     0.35996   0.90908   0.29112   0.00000  Uiso   1.00
C535   C     0.36106   0.90790   0.34902   0.00000  Uiso   1.00
H536   H     0.66560   0.88801   0.37527   0.00000  Uiso   1.00
H537   H     0.39629   0.89650   0.34898   0.00000  Uiso   1.00
H538   H     0.35484   0.94018   0.36715   0.00000  Uiso   1.00
H539   H     0.39080   0.92361   0.26094   0.00000  Uiso   1.00
H540   H     0.66472   0.93304   0.29306   0.00000  Uiso   1.00
F541   F     0.60908   0.75646   0.40253   0.00000  Uiso   1.00
F542   F     0.37437   0.83779   0.42114   0.00000  Uiso   1.00
F543   F     0.41293   0.82296   0.08010   0.00000  Uiso   1.00
F544   F     0.53988   0.76453   0.35878   0.00000  Uiso   1.00
C545   C     0.83300   0.91321   0.24955   0.00000  Uiso   1.00
C546   C     0.81107   0.81545   0.49220   0.00000  Uiso   1.00
C547   C     0.82260   0.80675   0.43602   0.00000  Uiso   1.00
C548   C     0.84863   0.81397   0.01356   0.00000  Uiso   1.00
C549   C     0.89349   0.79423   0.48338   0.00000  Uiso   1.00
C550   C     0.90100   0.77791   0.43114   0.00000  Uiso   1.00
C551   C     0.86607   0.78413   0.40748   0.00000  Uiso   1.00
C552   C     0.84322   0.83325   0.06339   0.00000  Uiso   1.00
C553   C     0.92051   0.80529   0.06000   0.00000  Uiso   1.00
C554   C     0.78980   0.82058   0.41079   0.00000  Uiso   1.00
C555   C     0.79706   0.97886   0.29257   0.00000  Uiso   1.00
C556   C     0.80681   0.82948   0.35199   0.00000  Uiso   1.00
C557   C     0.79749   0.68884   0.29633   0.00000  Uiso   1.00
C558   C     0.83346   0.70944   0.25484   0.00000  Uiso   1.00
C559   C     0.86927   0.68762   0.21306   0.00000  Uiso   1.00
C560   C     0.86883   0.97793   0.21071   0.00000  Uiso   1.00
C561   C     0.83223   0.95740   0.25002   0.00000  Uiso   1.00
C562   C     0.98406   0.80053   0.22747   0.00000  Uiso   1.00
C563   C     0.69837   0.80036   0.22771   0.00000  Uiso   1.00
C564   C     0.68158   0.86719   0.27139   0.00000  Uiso   1.00
C565   C     0.96712   0.86578   0.27254   0.00000  Uiso   1.00
C566   C     0.83322   0.75356   0.25207   0.00000  Uiso   1.00
C567   C     0.86013   0.83295   0.14762   0.00000  Uiso   1.00
C568   C     0.92946   0.79048   0.00673   0.00000  Uiso   1.00
C569   C     0.87672   0.82608   0.08865   0.00000  Uiso   1.00
C570   C     0.74176   0.82968   0.44347   0.00000  Uiso   1.00
C571   C     0.72811   0.82995   0.00003   0.00000  Uiso   1.00
C572   C     0.76232   0.82419   0.02467   0.00000  Uiso   1.00
H573   H     0.94678   0.79917   0.07933   0.00000  Uiso   1.00
H574   H     0.89675   0.70403   0.18167   0.00000  Uiso   1.00
H575   H     0.97258   0.77427   0.20909   0.00000  Uiso   1.00
H576   H     0.94150   0.89134   0.29040   0.00000  Uiso   1.00
H577   H     0.96364   0.77476   0.48480   0.00000  Uiso   1.00
H578   H     0.81220   0.85332   0.08413   0.00000  Uiso   1.00
H579   H     0.69089   0.83588   0.02500   0.00000  Uiso   1.00
H580   H     0.77042   0.96177   0.32368   0.00000  Uiso   1.00
N581   N     0.71426   0.83334   0.25001   0.00000  Uiso   1.00
N582   N     0.95239   0.83331   0.25000   0.00000  Uiso   1.00
O583   O     0.79512   0.89442   0.25000   0.00000  Uiso   1.00
O584   O     0.87157   0.89441   0.25000   0.00000  Uiso   1.00
O585   O     0.77613   0.83333   0.32681   0.00000  Uiso   1.00
O586   O     0.85258   0.83332   0.32681   0.00000  Uiso   1.00
O587   O     0.79510   0.77226   0.24999   0.00000  Uiso   1.00
O588   O     0.87154   0.77225   0.24999   0.00000  Uiso   1.00
O589   O     0.81409   0.83335   0.17319   0.00000  Uiso   1.00
O590   O     0.89053   0.83334   0.17319   0.00000  Uiso   1.00
Zn591  Zn    0.78229   0.83334   0.25000   0.00000  Uiso   1.00
Zn592  Zn    0.88438   0.83333   0.25000   0.00000  Uiso   1.00
C593   C     0.76017   0.71131   0.34494   0.00000  Uiso   1.00
C594   C     0.76743   0.70042   0.39850   0.00000  Uiso   1.00
H595   H     0.76151   0.99990   0.40754   0.00000  Uiso   1.00
H596   H     0.74144   0.71921   0.43259   0.00000  Uiso   1.00
H597   H     0.80426   0.70787   0.39617   0.00000  Uiso   1.00
H598   H     0.76103   0.74594   0.34167   0.00000  Uiso   1.00
H599   H     0.72381   0.70215   0.34718   0.00000  Uiso   1.00
F600   F     0.90323   0.95635   0.16982   0.00000  Uiso   1.00
F601   F     0.72858   0.76746   0.20414   0.00000  Uiso   1.00
C602   C     0.69329   0.90908   0.29112   0.00000  Uiso   1.00
C603   C     0.69439   0.90790   0.34902   0.00000  Uiso   1.00
H604   H     0.99893   0.88801   0.37527   0.00000  Uiso   1.00
H605   H     0.72962   0.89650   0.34898   0.00000  Uiso   1.00
H606   H     0.68817   0.94018   0.36715   0.00000  Uiso   1.00
H607   H     0.72414   0.92361   0.26094   0.00000  Uiso   1.00
H608   H     0.99806   0.93304   0.29306   0.00000  Uiso   1.00
F609   F     0.94242   0.75646   0.40253   0.00000  Uiso   1.00
F610   F     0.70770   0.83779   0.42114   0.00000  Uiso   1.00
F611   F     0.74626   0.82296   0.08010   0.00000  Uiso   1.00
F612   F     0.87322   0.76453   0.35878   0.00000  Uiso   1.00
C613   C     0.16633   0.24654   0.74955   0.00000  Uiso   1.00
C614   C     0.14441   0.14878   0.99220   0.00000  Uiso   1.00
C615   C     0.15593   0.14008   0.93602   0.00000  Uiso   1.00
C616   C     0.18197   0.14730   0.51356   0.00000  Uiso   1.00
C617   C     0.22683   0.12756   0.98338   0.00000  Uiso   1.00
C618   C     0.23433   0.11124   0.93114   0.00000  Uiso   1.00
C619   C     0.19940   0.11746   0.90748   0.00000  Uiso   1.00
C620   C     0.17655   0.16658   0.56339   0.00000  Uiso   1.00
C621   C     0.25384   0.13863   0.56000   0.00000  Uiso   1.00
C622   C     0.12314   0.15391   0.91079   0.00000  Uiso   1.00
C623   C     0.13040   0.31220   0.79257   0.00000  Uiso   1.00
C624   C     0.14015   0.16281   0.85199   0.00000  Uiso   1.00
C625   C     0.13082   0.02218   0.79633   0.00000  Uiso   1.00
C626   C     0.16680   0.04277   0.75484   0.00000  Uiso   1.00
C627   C     0.20261   0.02095   0.71306   0.00000  Uiso   1.00
C628   C     0.20216   0.31126   0.71071   0.00000  Uiso   1.00
C629   C     0.16556   0.29074   0.75002   0.00000  Uiso   1.00
C630   C     0.31740   0.13386   0.72747   0.00000  Uiso   1.00
C631   C     0.03170   0.13370   0.72771   0.00000  Uiso   1.00
C632   C     0.01492   0.20052   0.77139   0.00000  Uiso   1.00
C633   C     0.30046   0.19911   0.77254   0.00000  Uiso   1.00
C634   C     0.16656   0.08689   0.75207   0.00000  Uiso   1.00
C635   C     0.19346   0.16628   0.64762   0.00000  Uiso   1.00
C636   C     0.26279   0.12381   0.50673   0.00000  Uiso   1.00
C637   C     0.21005   0.15941   0.58865   0.00000  Uiso   1.00
C638   C     0.07509   0.16301   0.94347   0.00000  Uiso   1.00
C639   C     0.06144   0.16329   0.50003   0.00000  Uiso   1.00
C640   C     0.09565   0.15753   0.52467   0.00000  Uiso   1.00
H641   H     0.28012   0.13250   0.57933   0.00000  Uiso   1.00
H642   H     0.23008   0.03736   0.68167   0.00000  Uiso   1.00
H643   H     0.30591   0.10760   0.70909   0.00000  Uiso   1.00
H644   H     0.27484   0.22468   0.79040   0.00000  Uiso   1.00
H645   H     0.29697   0.10810   0.98480   0.00000  Uiso   1.00
H646   H     0.14553   0.18665   0.58413   0.00000  Uiso   1.00
H647   H     0.02423   0.16922   0.52500   0.00000  Uiso   1.00
H648   H     0.10375   0.29510   0.82368   0.00000  Uiso   1.00
N649   N     0.04760   0.16668   0.75001   0.00000  Uiso   1.00
N650   N     0.28573   0.16665   0.75000   0.00000  Uiso   1.00
O651   O     0.12846   0.22775   0.75000   0.00000  Uiso   1.00
O652   O     0.20490   0.22774   0.75000   0.00000  Uiso   1.00
O653   O     0.10947   0.16666   0.82681   0.00000  Uiso   1.00
O654   O     0.18591   0.16665   0.82681   0.00000  Uiso   1.00
O655   O     0.12843   0.10559   0.74999   0.00000  Uiso   1.00
O656   O     0.20488   0.10558   0.74999   0.00000  Uiso   1.00
O657   O     0.14742   0.16668   0.67319   0.00000  Uiso   1.00
O658   O     0.22387   0.16667   0.67319   0.00000  Uiso   1.00
Zn659  Zn    0.11562   0.16667   0.75000   0.00000  Uiso   1.00
Zn660  Zn    0.21771   0.16666   0.75000   0.00000  Uiso   1.00
C661   C     0.09351   0.04464   0.84494   0.00000  Uiso   1.00
C662   C     0.10076   0.03375   0.89850   0.00000  Uiso   1.00
H663   H     0.09484   0.33323   0.90754   0.00000  Uiso   1.00
H664   H     0.07477   0.05254   0.93259   0.00000  Uiso   1.00
H665   H     0.13760   0.04121   0.89617   0.00000  Uiso   1.00
H666   H     0.09436   0.07927   0.84167   0.00000  Uiso   1.00
H667   H     0.05715   0.03548   0.84718   0.00000  Uiso   1.00
F668   F     0.23656   0.28969   0.66982   0.00000  Uiso   1.00
F669   F     0.06192   0.10080   0.70414   0.00000  Uiso   1.00
C670   C     0.02662   0.24241   0.79112   0.00000  Uiso   1.00
C671   C     0.02772   0.24123   0.84902   0.00000  Uiso   1.00
H672   H     0.33226   0.22134   0.87527   0.00000  Uiso   1.00
H673   H     0.06295   0.22983   0.84898   0.00000  Uiso   1.00
H674   H     0.02150   0.27352   0.86715   0.00000  Uiso   1.00
H675   H     0.05747   0.25694   0.76094   0.00000  Uiso   1.00
H676   H     0.33139   0.26637   0.79306   0.00000  Uiso   1.00
F677   F     0.27575   0.08980   0.90253   0.00000  Uiso   1.00
F678   F     0.04103   0.17112   0.92114   0.00000  Uiso   1.00
F679   F     0.07960   0.15629   0.58010   0.00000  Uiso   1.00
F680   F     0.20655   0.09786   0.85878   0.00000  Uiso   1.00
C681   C     0.49967   0.24654   0.74955   0.00000  Uiso   1.00
C682   C     0.47774   0.14878   0.99220   0.00000  Uiso   1.00
C683   C     0.48926   0.14008   0.93602   0.00000  Uiso   1.00
C684   C     0.51530   0.14730   0.51356   0.00000  Uiso   1.00
C685   C     0.56016   0.12756   0.98338   0.00000  Uiso   1.00
C686   C     0.56767   0.11124   0.93114   0.00000  Uiso   1.00
C687   C     0.53273   0.11746   0.90748   0.00000  Uiso   1.00
C688   C     0.50989   0.16658   0.56339   0.00000  Uiso   1.00
C689   C     0.58717   0.13863   0.56000   0.00000  Uiso   1.00
C690   C     0.45647   0.15391   0.91079   0.00000  Uiso   1.00
C691   C     0.46373   0.31220   0.79257   0.00000  Uiso   1.00
C692   C     0.47348   0.16281   0.85199   0.00000  Uiso   1.00
C693   C     0.46416   0.02218   0.79633   0.00000  Uiso   1.00
C694   C     0.50013   0.04277   0.75484   0.00000  Uiso   1.00
C695   C     0.53594   0.02095   0.71306   0.00000  Uiso   1.00
C696   C     0.53550   0.31126   0.71071   0.00000  Uiso   1.00
C697   C     0.49890   0.29074   0.75002   0.00000  Uiso   1.00
C698   C     0.65073   0.13386   0.72747   0.00000  Uiso   1.00
C699   C     0.36504   0.13370   0.72771   0.00000  Uiso   1.00
C700   C     0.34825   0.20052   0.77139   0.00000  Uiso   1.00
C701   C     0.63379   0.19911   0.77254   0.00000  Uiso   1.00
C702   C     0.49989   0.08689   0.75207   0.00000  Uiso   1.00
C703   C     0.52679   0.16628   0.64762   0.00000  Uiso   1.00
C704   C     0.59613   0.12381   0.50673   0.00000  Uiso   1.00
C705   C     0.54338   0.15941   0.58865   0.00000  Uiso   1.00
C706   C     0.40842   0.16301   0.94347   0.00000  Uiso   1.00
C707   C     0.39478   0.16329   0.50003   0.00000  Uiso   1.00
C708   C     0.42898   0.15753   0.52467   0.00000  Uiso   1.00
H709   H     0.61345   0.13250   0.57933   0.00000  Uiso   1.00
H710   H     0.56341   0.03736   0.68167   0.00000  Uiso   1.00
H711   H     0.63925   0.10760   0.70909   0.00000  Uiso   1.00
H712   H     0.60817   0.22468   0.79040   0.00000  Uiso   1.00
H713   H     0.63031   0.10810   0.98480   0.00000  Uiso   1.00
H714   H     0.47887   0.18665   0.58413   0.00000  Uiso   1.00
H715   H     0.35756   0.16922   0.52500   0.00000  Uiso   1.00
H716   H     0.43709   0.29510   0.82368   0.00000  Uiso   1.00
N717   N     0.38093   0.16668   0.75001   0.00000  Uiso   1.00
N718   N     0.61906   0.16665   0.75000   0.00000  Uiso   1.00
O719   O     0.46179   0.22775   0.75000   0.00000  Uiso   1.00
O720   O     0.53823   0.22774   0.75000   0.00000  Uiso   1.00
O721   O     0.44280   0.16666   0.82681   0.00000  Uiso   1.00
O722   O     0.51924   0.16665   0.82681   0.00000  Uiso   1.00
O723   O     0.46177   0.10559   0.74999   0.00000  Uiso   1.00
O724   O     0.53821   0.10558   0.74999   0.00000  Uiso   1.00
O725   O     0.48076   0.16668   0.67319   0.00000  Uiso   1.00
O726   O     0.55720   0.16667   0.67319   0.00000  Uiso   1.00
Zn727  Zn    0.44896   0.16667   0.75000   0.00000  Uiso   1.00
Zn728  Zn    0.55104   0.16666   0.75000   0.00000  Uiso   1.00
C729   C     0.42684   0.04464   0.84494   0.00000  Uiso   1.00
C730   C     0.43410   0.03375   0.89850   0.00000  Uiso   1.00
H731   H     0.42818   0.33323   0.90754   0.00000  Uiso   1.00
H732   H     0.40811   0.05254   0.93259   0.00000  Uiso   1.00
H733   H     0.47093   0.04121   0.89617   0.00000  Uiso   1.00
H734   H     0.42770   0.07927   0.84167   0.00000  Uiso   1.00
H735   H     0.39048   0.03548   0.84718   0.00000  Uiso   1.00
F736   F     0.56989   0.28969   0.66982   0.00000  Uiso   1.00
F737   F     0.39525   0.10080   0.70414   0.00000  Uiso   1.00
C738   C     0.35996   0.24241   0.79112   0.00000  Uiso   1.00
C739   C     0.36106   0.24123   0.84902   0.00000  Uiso   1.00
H740   H     0.66560   0.22134   0.87527   0.00000  Uiso   1.00
H741   H     0.39629   0.22983   0.84898   0.00000  Uiso   1.00
H742   H     0.35484   0.27352   0.86715   0.00000  Uiso   1.00
H743   H     0.39080   0.25694   0.76094   0.00000  Uiso   1.00
H744   H     0.66472   0.26637   0.79306   0.00000  Uiso   1.00
F745   F     0.60908   0.08980   0.90253   0.00000  Uiso   1.00
F746   F     0.37437   0.17112   0.92114   0.00000  Uiso   1.00
F747   F     0.41293   0.15629   0.58010   0.00000  Uiso   1.00
F748   F     0.53988   0.09786   0.85878   0.00000  Uiso   1.00
C749   C     0.83300   0.24654   0.74955   0.00000  Uiso   1.00
C750   C     0.81107   0.14878   0.99220   0.00000  Uiso   1.00
C751   C     0.82260   0.14008   0.93602   0.00000  Uiso   1.00
C752   C     0.84863   0.14730   0.51356   0.00000  Uiso   1.00
C753   C     0.89349   0.12756   0.98338   0.00000  Uiso   1.00
C754   C     0.90100   0.11124   0.93114   0.00000  Uiso   1.00
C755   C     0.86607   0.11746   0.90748   0.00000  Uiso   1.00
C756   C     0.84322   0.16658   0.56339   0.00000  Uiso   1.00
C757   C     0.92051   0.13863   0.56000   0.00000  Uiso   1.00
C758   C     0.78980   0.15391   0.91079   0.00000  Uiso   1.00
C759   C     0.79706   0.31220   0.79257   0.00000  Uiso   1.00
C760   C     0.80681   0.16281   0.85199   0.00000  Uiso   1.00
C761   C     0.79749   0.02218   0.79633   0.00000  Uiso   1.00
C762   C     0.83346   0.04277   0.75484   0.00000  Uiso   1.00
C763   C     0.86927   0.02095   0.71306   0.00000  Uiso   1.00
C764   C     0.86883   0.31126   0.71071   0.00000  Uiso   1.00
C765   C     0.83223   0.29074   0.75002   0.00000  Uiso   1.00
C766   C     0.98406   0.13386   0.72747   0.00000  Uiso   1.00
C767   C     0.69837   0.13370   0.72771   0.00000  Uiso   1.00
C768   C     0.68158   0.20052   0.77139   0.00000  Uiso   1.00
C769   C     0.96712   0.19911   0.77254   0.00000  Uiso   1.00
C770   C     0.83322   0.08689   0.75207   0.00000  Uiso   1.00
C771   C     0.86013   0.16628   0.64762   0.00000  Uiso   1.00
C772   C     0.92946   0.12381   0.50673   0.00000  Uiso   1.00
C773   C     0.87672   0.15941   0.58865   0.00000  Uiso   1.00
C774   C     0.74176   0.16301   0.94347   0.00000  Uiso   1.00
C775   C     0.72811   0.16329   0.50003   0.00000  Uiso   1.00
C776   C     0.76232   0.15753   0.52467   0.00000  Uiso   1.00
H777   H     0.94678   0.13250   0.57933   0.00000  Uiso   1.00
H778   H     0.89675   0.03736   0.68167   0.00000  Uiso   1.00
H779   H     0.97258   0.10760   0.70909   0.00000  Uiso   1.00
H780   H     0.94150   0.22468   0.79040   0.00000  Uiso   1.00
H781   H     0.96364   0.10810   0.98480   0.00000  Uiso   1.00
H782   H     0.81220   0.18665   0.58413   0.00000  Uiso   1.00
H783   H     0.69089   0.16922   0.52500   0.00000  Uiso   1.00
H784   H     0.77042   0.29510   0.82368   0.00000  Uiso   1.00
N785   N     0.71426   0.16668   0.75001   0.00000  Uiso   1.00
N786   N     0.95239   0.16665   0.75000   0.00000  Uiso   1.00
O787   O     0.79512   0.22775   0.75000   0.00000  Uiso   1.00
O788   O     0.87157   0.22774   0.75000   0.00000  Uiso   1.00
O789   O     0.77613   0.16666   0.82681   0.00000  Uiso   1.00
O790   O     0.85258   0.16665   0.82681   0.00000  Uiso   1.00
O791   O     0.79510   0.10559   0.74999   0.00000  Uiso   1.00
O792   O     0.87154   0.10558   0.74999   0.00000  Uiso   1.00
O793   O     0.81409   0.16668   0.67319   0.00000  Uiso   1.00
O794   O     0.89053   0.16667   0.67319   0.00000  Uiso   1.00
Zn795  Zn    0.78229   0.16667   0.75000   0.00000  Uiso   1.00
Zn796  Zn    0.88438   0.16666   0.75000   0.00000  Uiso   1.00
C797   C     0.76017   0.04464   0.84494   0.00000  Uiso   1.00
C798   C     0.76743   0.03375   0.89850   0.00000  Uiso   1.00
H799   H     0.76151   0.33323   0.90754   0.00000  Uiso   1.00
H800   H     0.74144   0.05254   0.93259   0.00000  Uiso   1.00
H801   H     0.80426   0.04121   0.89617   0.00000  Uiso   1.00
H802   H     0.76103   0.07927   0.84167   0.00000  Uiso   1.00
H803   H     0.72381   0.03548   0.84718   0.00000  Uiso   1.00
F804   F     0.90323   0.28969   0.66982   0.00000  Uiso   1.00
F805   F     0.72858   0.10080   0.70414   0.00000  Uiso   1.00
C806   C     0.69329   0.24241   0.79112   0.00000  Uiso   1.00
C807   C     0.69439   0.24123   0.84902   0.00000  Uiso   1.00
H808   H     0.99893   0.22134   0.87527   0.00000  Uiso   1.00
H809   H     0.72962   0.22983   0.84898   0.00000  Uiso   1.00
H810   H     0.68817   0.27352   0.86715   0.00000  Uiso   1.00
H811   H     0.72414   0.25694   0.76094   0.00000  Uiso   1.00
H812   H     0.99806   0.26637   0.79306   0.00000  Uiso   1.00
F813   F     0.94242   0.08980   0.90253   0.00000  Uiso   1.00
F814   F     0.70770   0.17112   0.92114   0.00000  Uiso   1.00
F815   F     0.74626   0.15629   0.58010   0.00000  Uiso   1.00
F816   F     0.87322   0.09786   0.85878   0.00000  Uiso   1.00
C817   C     0.16633   0.57987   0.74955   0.00000  Uiso   1.00
C818   C     0.14441   0.48212   0.99220   0.00000  Uiso   1.00
C819   C     0.15593   0.47342   0.93602   0.00000  Uiso   1.00
C820   C     0.18197   0.48063   0.51356   0.00000  Uiso   1.00
C821   C     0.22683   0.46090   0.98338   0.00000  Uiso   1.00
C822   C     0.23433   0.44457   0.93114   0.00000  Uiso   1.00
C823   C     0.19940   0.45079   0.90748   0.00000  Uiso   1.00
C824   C     0.17655   0.49992   0.56339   0.00000  Uiso   1.00
C825   C     0.25384   0.47196   0.56000   0.00000  Uiso   1.00
C826   C     0.12314   0.48725   0.91079   0.00000  Uiso   1.00
C827   C     0.13040   0.64553   0.79257   0.00000  Uiso   1.00
C828   C     0.14015   0.49615   0.85199   0.00000  Uiso   1.00
C829   C     0.13082   0.35551   0.79633   0.00000  Uiso   1.00
C830   C     0.16680   0.37610   0.75484   0.00000  Uiso   1.00
C831   C     0.20261   0.35428   0.71306   0.00000  Uiso   1.00
C832   C     0.20216   0.64460   0.71071   0.00000  Uiso   1.00
C833   C     0.16556   0.62407   0.75002   0.00000  Uiso   1.00
C834   C     0.31740   0.46719   0.72747   0.00000  Uiso   1.00
C835   C     0.03170   0.46703   0.72771   0.00000  Uiso   1.00
C836   C     0.01492   0.53386   0.77139   0.00000  Uiso   1.00
C837   C     0.30046   0.53245   0.77254   0.00000  Uiso   1.00
C838   C     0.16656   0.42023   0.75207   0.00000  Uiso   1.00
C839   C     0.19346   0.49961   0.64762   0.00000  Uiso   1.00
C840   C     0.26279   0.45714   0.50673   0.00000  Uiso   1.00
C841   C     0.21005   0.49275   0.58865   0.00000  Uiso   1.00
C842   C     0.07509   0.49634   0.94347   0.00000  Uiso   1.00
C843   C     0.06144   0.49662   0.50003   0.00000  Uiso   1.00
C844   C     0.09565   0.49086   0.52467   0.00000  Uiso   1.00
H845   H     0.28012   0.46584   0.57933   0.00000  Uiso   1.00
H846   H     0.23008   0.37070   0.68167   0.00000  Uiso   1.00
H847   H     0.30591   0.44094   0.70909   0.00000  Uiso   1.00
H848   H     0.27484   0.55801   0.79040   0.00000  Uiso   1.00
H849   H     0.29697   0.44143   0.98480   0.00000  Uiso   1.00
H850   H     0.14553   0.51999   0.58413   0.00000  Uiso   1.00
H851   H     0.02423   0.50255   0.52500   0.00000  Uiso   1.00
H852   H     0.10375   0.62843   0.82368   0.00000  Uiso   1.00
N853   N     0.04760   0.50001   0.75001   0.00000  Uiso   1.00
N854   N     0.28573   0.49998   0.75000   0.00000  Uiso   1.00
O855   O     0.12846   0.56108   0.75000   0.00000  Uiso   1.00
O856   O     0.20490   0.56107   0.75000   0.00000  Uiso   1.00
O857   O     0.10947   0.50000   0.82681   0.00000  Uiso   1.00
O858   O     0.18591   0.49999   0.82681   0.00000  Uiso   1.00
O859   O     0.12843   0.43893   0.74999   0.00000  Uiso   1.00
O860   O     0.20488   0.43892   0.74999   0.00000  Uiso   1.00
O861   O     0.14742   0.50001   0.67319   0.00000  Uiso   1.00
O862   O     0.22387   0.50000   0.67319   0.00000  Uiso   1.00
Zn863  Zn    0.11562   0.50001   0.75000   0.00000  Uiso   1.00
Zn864  Zn    0.21771   0.49999   0.75000   0.00000  Uiso   1.00
C865   C     0.09351   0.37798   0.84494   0.00000  Uiso   1.00
C866   C     0.10076   0.36709   0.89850   0.00000  Uiso   1.00
H867   H     0.09484   0.66657   0.90754   0.00000  Uiso   1.00
H868   H     0.07477   0.38587   0.93259   0.00000  Uiso   1.00
H869   H     0.13760   0.37454   0.89617   0.00000  Uiso   1.00
H870   H     0.09436   0.41261   0.84167   0.00000  Uiso   1.00
H871   H     0.05715   0.36882   0.84718   0.00000  Uiso   1.00
F872   F     0.23656   0.62302   0.66982   0.00000  Uiso   1.00
F873   F     0.06192   0.43413   0.70414   0.00000  Uiso   1.00
C874   C     0.02662   0.57574   0.79112   0.00000  Uiso   1.00
C875   C     0.02772   0.57457   0.84902   0.00000  Uiso   1.00
H876   H     0.33226   0.55467   0.87527   0.00000  Uiso   1.00
H877   H     0.06295   0.56316   0.84898   0.00000  Uiso   1.00
H878   H     0.02150   0.60685   0.86715   0.00000  Uiso   1.00
H879   H     0.05747   0.59027   0.76094   0.00000  Uiso   1.00
H880   H     0.33139   0.59971   0.79306   0.00000  Uiso   1.00
F881   F     0.27575   0.42313   0.90253   0.00000  Uiso   1.00
F882   F     0.04103   0.50446   0.92114   0.00000  Uiso   1.00
F883   F     0.07960   0.48962   0.58010   0.00000  Uiso   1.00
F884   F     0.20655   0.43120   0.85878   0.00000  Uiso   1.00
C885   C     0.49967   0.57987   0.74955   0.00000  Uiso   1.00
C886   C     0.47774   0.48212   0.99220   0.00000  Uiso   1.00
C887   C     0.48926   0.47342   0.93602   0.00000  Uiso   1.00
C888   C     0.51530   0.48063   0.51356   0.00000  Uiso   1.00
C889   C     0.56016   0.46090   0.98338   0.00000  Uiso   1.00
C890   C     0.56767   0.44457   0.93114   0.00000  Uiso   1.00
C891   C     0.53273   0.45079   0.90748   0.00000  Uiso   1.00
C892   C     0.50989   0.49992   0.56339   0.00000  Uiso   1.00
C893   C     0.58717   0.47196   0.56000   0.00000  Uiso   1.00
C894   C     0.45647   0.48725   0.91079   0.00000  Uiso   1.00
C895   C     0.46373   0.64553   0.79257   0.00000  Uiso   1.00
C896   C     0.47348   0.49615   0.85199   0.00000  Uiso   1.00
C897   C     0.46416   0.35551   0.79633   0.00000  Uiso   1.00
C898   C     0.50013   0.37610   0.75484   0.00000  Uiso   1.00
C899   C     0.53594   0.35428   0.71306   0.00000  Uiso   1.00
C900   C     0.53550   0.64460   0.71071   0.00000  Uiso   1.00
C901   C     0.49890   0.62407   0.75002   0.00000  Uiso   1.00
C902   C     0.65073   0.46719   0.72747   0.00000  Uiso   1.00
C903   C     0.36504   0.46703   0.72771   0.00000  Uiso   1.00
C904   C     0.34825   0.53386   0.77139   0.00000  Uiso   1.00
C905   C     0.63379   0.53245   0.77254   0.00000  Uiso   1.00
C906   C     0.49989   0.42023   0.75207   0.00000  Uiso   1.00
C907   C     0.52679   0.49961   0.64762   0.00000  Uiso   1.00
C908   C     0.59613   0.45714   0.50673   0.00000  Uiso   1.00
C909   C     0.54338   0.49275   0.58865   0.00000  Uiso   1.00
C910   C     0.40842   0.49634   0.94347   0.00000  Uiso   1.00
C911   C     0.39478   0.49662   0.50003   0.00000  Uiso   1.00
C912   C     0.42898   0.49086   0.52467   0.00000  Uiso   1.00
H913   H     0.61345   0.46584   0.57933   0.00000  Uiso   1.00
H914   H     0.56341   0.37070   0.68167   0.00000  Uiso   1.00
H915   H     0.63925   0.44094   0.70909   0.00000  Uiso   1.00
H916   H     0.60817   0.55801   0.79040   0.00000  Uiso   1.00
H917   H     0.63031   0.44143   0.98480   0.00000  Uiso   1.00
H918   H     0.47887   0.51999   0.58413   0.00000  Uiso   1.00
H919   H     0.35756   0.50255   0.52500   0.00000  Uiso   1.00
H920   H     0.43709   0.62843   0.82368   0.00000  Uiso   1.00
N921   N     0.38093   0.50001   0.75001   0.00000  Uiso   1.00
N922   N     0.61906   0.49998   0.75000   0.00000  Uiso   1.00
O923   O     0.46179   0.56108   0.75000   0.00000  Uiso   1.00
O924   O     0.53823   0.56107   0.75000   0.00000  Uiso   1.00
O925   O     0.44280   0.50000   0.82681   0.00000  Uiso   1.00
O926   O     0.51924   0.49999   0.82681   0.00000  Uiso   1.00
O927   O     0.46177   0.43893   0.74999   0.00000  Uiso   1.00
O928   O     0.53821   0.43892   0.74999   0.00000  Uiso   1.00
O929   O     0.48076   0.50001   0.67319   0.00000  Uiso   1.00
O930   O     0.55720   0.50000   0.67319   0.00000  Uiso   1.00
Zn931  Zn    0.44896   0.50001   0.75000   0.00000  Uiso   1.00
Zn932  Zn    0.55104   0.49999   0.75000   0.00000  Uiso   1.00
C933   C     0.42684   0.37798   0.84494   0.00000  Uiso   1.00
C934   C     0.43410   0.36709   0.89850   0.00000  Uiso   1.00
H935   H     0.42818   0.66657   0.90754   0.00000  Uiso   1.00
H936   H     0.40811   0.38587   0.93259   0.00000  Uiso   1.00
H937   H     0.47093   0.37454   0.89617   0.00000  Uiso   1.00
H938   H     0.42770   0.41261   0.84167   0.00000  Uiso   1.00
H939   H     0.39048   0.36882   0.84718   0.00000  Uiso   1.00
F940   F     0.56989   0.62302   0.66982   0.00000  Uiso   1.00
F941   F     0.39525   0.43413   0.70414   0.00000  Uiso   1.00
C942   C     0.35996   0.57574   0.79112   0.00000  Uiso   1.00
C943   C     0.36106   0.57457   0.84902   0.00000  Uiso   1.00
H944   H     0.66560   0.55467   0.87527   0.00000  Uiso   1.00
H945   H     0.39629   0.56316   0.84898   0.00000  Uiso   1.00
H946   H     0.35484   0.60685   0.86715   0.00000  Uiso   1.00
H947   H     0.39080   0.59027   0.76094   0.00000  Uiso   1.00
H948   H     0.66472   0.59971   0.79306   0.00000  Uiso   1.00
F949   F     0.60908   0.42313   0.90253   0.00000  Uiso   1.00
F950   F     0.37437   0.50446   0.92114   0.00000  Uiso   1.00
F951   F     0.41293   0.48962   0.58010   0.00000  Uiso   1.00
F952   F     0.53988   0.43120   0.85878   0.00000  Uiso   1.00
C953   C     0.83300   0.57987   0.74955   0.00000  Uiso   1.00
C954   C     0.81107   0.48212   0.99220   0.00000  Uiso   1.00
C955   C     0.82260   0.47342   0.93602   0.00000  Uiso   1.00
C956   C     0.84863   0.48063   0.51356   0.00000  Uiso   1.00
C957   C     0.89349   0.46090   0.98338   0.00000  Uiso   1.00
C958   C     0.90100   0.44457   0.93114   0.00000  Uiso   1.00
C959   C     0.86607   0.45079   0.90748   0.00000  Uiso   1.00
C960   C     0.84322   0.49992   0.56339   0.00000  Uiso   1.00
C961   C     0.92051   0.47196   0.56000   0.00000  Uiso   1.00
C962   C     0.78980   0.48725   0.91079   0.00000  Uiso   1.00
C963   C     0.79706   0.64553   0.79257   0.00000  Uiso   1.00
C964   C     0.80681   0.49615   0.85199   0.00000  Uiso   1.00
C965   C     0.79749   0.35551   0.79633   0.00000  Uiso   1.00
C966   C     0.83346   0.37610   0.75484   0.00000  Uiso   1.00
C967   C     0.86927   0.35428   0.71306   0.00000  Uiso   1.00
C968   C     0.86883   0.64460   0.71071   0.00000  Uiso   1.00
C969   C     0.83223   0.62407   0.75002   0.00000  Uiso   1.00
C970   C     0.98406   0.46719   0.72747   0.00000  Uiso   1.00
C971   C     0.69837   0.46703   0.72771   0.00000  Uiso   1.00
C972   C     0.68158   0.53386   0.77139   0.00000  Uiso   1.00
C973   C     0.96712   0.53245   0.77254   0.00000  Uiso   1.00
C974   C     0.83322   0.42023   0.75207   0.00000  Uiso   1.00
C975   C     0.86013   0.49961   0.64762   0.00000  Uiso   1.00
C976   C     0.92946   0.45714   0.50673   0.00000  Uiso   1.00
C977   C     0.87672   0.49275   0.58865   0.00000  Uiso   1.00
C978   C     0.74176   0.49634   0.94347   0.00000  Uiso   1.00
C979   C     0.72811   0.49662   0.50003   0.00000  Uiso   1.00
C980   C     0.76232   0.49086   0.52467   0.00000  Uiso   1.00
H981   H     0.94678   0.46584   0.57933   0.00000  Uiso   1.00
H982   H     0.89675   0.37070   0.68167   0.00000  Uiso   1.00
H983   H     0.97258   0.44094   0.70909   0.00000  Uiso   1.00
H984   H     0.94150   0.55801   0.79040   0.00000  Uiso   1.00
H985   H     0.96364   0.44143   0.98480   0.00000  Uiso   1.00
H986   H     0.81220   0.51999   0.58413   0.00000  Uiso   1.00
H987   H     0.69089   0.50255   0.52500   0.00000  Uiso   1.00
H988   H     0.77042   0.62843   0.82368   0.00000  Uiso   1.00
N989   N     0.71426   0.50001   0.75001   0.00000  Uiso   1.00
N990   N     0.95239   0.49998   0.75000   0.00000  Uiso   1.00
O991   O     0.79512   0.56108   0.75000   0.00000  Uiso   1.00
O992   O     0.87157   0.56107   0.75000   0.00000  Uiso   1.00
O993   O     0.77613   0.50000   0.82681   0.00000  Uiso   1.00
O994   O     0.85258   0.49999   0.82681   0.00000  Uiso   1.00
O995   O     0.79510   0.43893   0.74999   0.00000  Uiso   1.00
O996   O     0.87154   0.43892   0.74999   0.00000  Uiso   1.00
O997   O     0.81409   0.50001   0.67319   0.00000  Uiso   1.00
O998   O     0.89053   0.50000   0.67319   0.00000  Uiso   1.00
Zn999  Zn    0.78229   0.50001   0.75000   0.00000  Uiso   1.00
Zn1000 Zn    0.88438   0.49999   0.75000   0.00000  Uiso   1.00
C1001  C     0.76017   0.37798   0.84494   0.00000  Uiso   1.00
C1002  C     0.76743   0.36709   0.89850   0.00000  Uiso   1.00
H1003  H     0.76151   0.66657   0.90754   0.00000  Uiso   1.00
H1004  H     0.74144   0.38587   0.93259   0.00000  Uiso   1.00
H1005  H     0.80426   0.37454   0.89617   0.00000  Uiso   1.00
H1006  H     0.76103   0.41261   0.84167   0.00000  Uiso   1.00
H1007  H     0.72381   0.36882   0.84718   0.00000  Uiso   1.00
F1008  F     0.90323   0.62302   0.66982   0.00000  Uiso   1.00
F1009  F     0.72858   0.43413   0.70414   0.00000  Uiso   1.00
C1010  C     0.69329   0.57574   0.79112   0.00000  Uiso   1.00
C1011  C     0.69439   0.57457   0.84902   0.00000  Uiso   1.00
H1012  H     0.99893   0.55467   0.87527   0.00000  Uiso   1.00
H1013  H     0.72962   0.56316   0.84898   0.00000  Uiso   1.00
H1014  H     0.68817   0.60685   0.86715   0.00000  Uiso   1.00
H1015  H     0.72414   0.59027   0.76094   0.00000  Uiso   1.00
H1016  H     0.99806   0.59971   0.79306   0.00000  Uiso   1.00
F1017  F     0.94242   0.42313   0.90253   0.00000  Uiso   1.00
F1018  F     0.70770   0.50446   0.92114   0.00000  Uiso   1.00
F1019  F     0.74626   0.48962   0.58010   0.00000  Uiso   1.00
F1020  F     0.87322   0.43120   0.85878   0.00000  Uiso   1.00
C1021  C     0.16633   0.91321   0.74955   0.00000  Uiso   1.00
C1022  C     0.14441   0.81545   0.99220   0.00000  Uiso   1.00
C1023  C     0.15593   0.80675   0.93602   0.00000  Uiso   1.00
C1024  C     0.18197   0.81397   0.51356   0.00000  Uiso   1.00
C1025  C     0.22683   0.79423   0.98338   0.00000  Uiso   1.00
C1026  C     0.23433   0.77791   0.93114   0.00000  Uiso   1.00
C1027  C     0.19940   0.78413   0.90748   0.00000  Uiso   1.00
C1028  C     0.17655   0.83325   0.56339   0.00000  Uiso   1.00
C1029  C     0.25384   0.80529   0.56000   0.00000  Uiso   1.00
C1030  C     0.12314   0.82058   0.91079   0.00000  Uiso   1.00
C1031  C     0.13040   0.97886   0.79257   0.00000  Uiso   1.00
C1032  C     0.14015   0.82948   0.85199   0.00000  Uiso   1.00
C1033  C     0.13082   0.68884   0.79633   0.00000  Uiso   1.00
C1034  C     0.16680   0.70944   0.75484   0.00000  Uiso   1.00
C1035  C     0.20261   0.68762   0.71306   0.00000  Uiso   1.00
C1036  C     0.20216   0.97793   0.71071   0.00000  Uiso   1.00
C1037  C     0.16556   0.95740   0.75002   0.00000  Uiso   1.00
C1038  C     0.31740   0.80053   0.72747   0.00000  Uiso   1.00
C1039  C     0.03170   0.80036   0.72771   0.00000  Uiso   1.00
C1040  C     0.01492   0.86719   0.77139   0.00000  Uiso   1.00
C1041  C     0.30046   0.86578   0.77254   0.00000  Uiso   1.00
C1042  C     0.16656   0.75356   0.75207   0.00000  Uiso   1.00
C1043  C     0.19346   0.83295   0.64762   0.00000  Uiso   1.00
C1044  C     0.26279   0.79048   0.50673   0.00000  Uiso   1.00
C1045  C     0.21005   0.82608   0.58865   0.00000  Uiso   1.00
C1046  C     0.07509   0.82968   0.94347   0.00000  Uiso   1.00
C1047  C     0.06144   0.82995   0.50003   0.00000  Uiso   1.00
C1048  C     0.09565   0.82419   0.52467   0.00000  Uiso   1.00
H1049  H     0.28012   0.79917   0.57933   0.00000  Uiso   1.00
H1050  H     0.23008   0.70403   0.68167   0.00000  Uiso   1.00
H1051  H     0.30591   0.77427   0.70909   0.00000  Uiso   1.00
H1052  H     0.27484   0.89134   0.79040   0.00000  Uiso   1.00
H1053  H     0.29697   0.77476   0.98480   0.00000  Uiso   1.00
H1054  H     0.14553   0.85332   0.58413   0.00000  Uiso   1.00
H1055  H     0.02423   0.83588   0.52500   0.00000  Uiso   1.00
H1056  H     0.10375   0.96177   0.82368   0.00000  Uiso   1.00
N1057  N     0.04760   0.83334   0.75001   0.00000  Uiso   1.00
N1058  N     0.28573   0.83331   0.75000   0.00000  Uiso   1.00
O1059  O     0.12846   0.89442   0.75000   0.00000  Uiso   1.00
O1060  O     0.20490   0.89441   0.75000   0.00000  Uiso   1.00
O1061  O     0.10947   0.83333   0.82681   0.00000  Uiso   1.00
O1062  O     0.18591   0.83332   0.82681   0.00000  Uiso   1.00
O1063  O     0.12843   0.77226   0.74999   0.00000  Uiso   1.00
O1064  O     0.20488   0.77225   0.74999   0.00000  Uiso   1.00
O1065  O     0.14742   0.83335   0.67319   0.00000  Uiso   1.00
O1066  O     0.22387   0.83334   0.67319   0.00000  Uiso   1.00
Zn1067 Zn    0.11562   0.83334   0.75000   0.00000  Uiso   1.00
Zn1068 Zn    0.21771   0.83333   0.75000   0.00000  Uiso   1.00
C1069  C     0.09351   0.71131   0.84494   0.00000  Uiso   1.00
C1070  C     0.10076   0.70042   0.89850   0.00000  Uiso   1.00
H1071  H     0.09484   0.99990   0.90754   0.00000  Uiso   1.00
H1072  H     0.07477   0.71921   0.93259   0.00000  Uiso   1.00
H1073  H     0.13760   0.70787   0.89617   0.00000  Uiso   1.00
H1074  H     0.09436   0.74594   0.84167   0.00000  Uiso   1.00
H1075  H     0.05715   0.70215   0.84718   0.00000  Uiso   1.00
F1076  F     0.23656   0.95635   0.66982   0.00000  Uiso   1.00
F1077  F     0.06192   0.76746   0.70414   0.00000  Uiso   1.00
C1078  C     0.02662   0.90908   0.79112   0.00000  Uiso   1.00
C1079  C     0.02772   0.90790   0.84902   0.00000  Uiso   1.00
H1080  H     0.33226   0.88801   0.87527   0.00000  Uiso   1.00
H1081  H     0.06295   0.89650   0.84898   0.00000  Uiso   1.00
H1082  H     0.02150   0.94018   0.86715   0.00000  Uiso   1.00
H1083  H     0.05747   0.92361   0.76094   0.00000  Uiso   1.00
H1084  H     0.33139   0.93304   0.79306   0.00000  Uiso   1.00
F1085  F     0.27575   0.75646   0.90253   0.00000  Uiso   1.00
F1086  F     0.04103   0.83779   0.92114   0.00000  Uiso   1.00
F1087  F     0.07960   0.82296   0.58010   0.00000  Uiso   1.00
F1088  F     0.20655   0.76453   0.85878   0.00000  Uiso   1.00
C1089  C     0.49967   0.91321   0.74955   0.00000  Uiso   1.00
C1090  C     0.47774   0.81545   0.99220   0.00000  Uiso   1.00
C1091  C     0.48926   0.80675   0.93602   0.00000  Uiso   1.00
C1092  C     0.51530   0.81397   0.51356   0.00000  Uiso   1.00
C1093  C     0.56016   0.79423   0.98338   0.00000  Uiso   1.00
C1094  C     0.56767   0.77791   0.93114   0.00000  Uiso   1.00
C1095  C     0.53273   0.78413   0.90748   0.00000  Uiso   1.00
C1096  C     0.50989   0.83325   0.56339   0.00000  Uiso   1.00
C1097  C     0.58717   0.80529   0.56000   0.00000  Uiso   1.00
C1098  C     0.45647   0.82058   0.91079   0.00000  Uiso   1.00
C1099  C     0.46373   0.97886   0.79257   0.00000  Uiso   1.00
C1100  C     0.47348   0.82948   0.85199   0.00000  Uiso   1.00
C1101  C     0.46416   0.68884   0.79633   0.00000  Uiso   1.00
C1102  C     0.50013   0.70944   0.75484   0.00000  Uiso   1.00
C1103  C     0.53594   0.68762   0.71306   0.00000  Uiso   1.00
C1104  C     0.53550   0.97793   0.71071   0.00000  Uiso   1.00
C1105  C     0.49890   0.95740   0.75002   0.00000  Uiso   1.00
C1106  C     0.65073   0.80053   0.72747   0.00000  Uiso   1.00
C1107  C     0.36504   0.80036   0.72771   0.00000  Uiso   1.00
C1108  C     0.34825   0.86719   0.77139   0.00000  Uiso   1.00
C1109  C     0.63379   0.86578   0.77254   0.00000  Uiso   1.00
C1110  C     0.49989   0.75356   0.75207   0.00000  Uiso   1.00
C1111  C     0.52679   0.83295   0.64762   0.00000  Uiso   1.00
C1112  C     0.59613   0.79048   0.50673   0.00000  Uiso   1.00
C1113  C     0.54338   0.82608   0.58865   0.00000  Uiso   1.00
C1114  C     0.40842   0.82968   0.94347   0.00000  Uiso   1.00
C1115  C     0.39478   0.82995   0.50003   0.00000  Uiso   1.00
C1116  C     0.42898   0.82419   0.52467   0.00000  Uiso   1.00
H1117  H     0.61345   0.79917   0.57933   0.00000  Uiso   1.00
H1118  H     0.56341   0.70403   0.68167   0.00000  Uiso   1.00
H1119  H     0.63925   0.77427   0.70909   0.00000  Uiso   1.00
H1120  H     0.60817   0.89134   0.79040   0.00000  Uiso   1.00
H1121  H     0.63031   0.77476   0.98480   0.00000  Uiso   1.00
H1122  H     0.47887   0.85332   0.58413   0.00000  Uiso   1.00
H1123  H     0.35756   0.83588   0.52500   0.00000  Uiso   1.00
H1124  H     0.43709   0.96177   0.82368   0.00000  Uiso   1.00
N1125  N     0.38093   0.83334   0.75001   0.00000  Uiso   1.00
N1126  N     0.61906   0.83331   0.75000   0.00000  Uiso   1.00
O1127  O     0.46179   0.89442   0.75000   0.00000  Uiso   1.00
O1128  O     0.53823   0.89441   0.75000   0.00000  Uiso   1.00
O1129  O     0.44280   0.83333   0.82681   0.00000  Uiso   1.00
O1130  O     0.51924   0.83332   0.82681   0.00000  Uiso   1.00
O1131  O     0.46177   0.77226   0.74999   0.00000  Uiso   1.00
O1132  O     0.53821   0.77225   0.74999   0.00000  Uiso   1.00
O1133  O     0.48076   0.83335   0.67319   0.00000  Uiso   1.00
O1134  O     0.55720   0.83334   0.67319   0.00000  Uiso   1.00
Zn1135 Zn    0.44896   0.83334   0.75000   0.00000  Uiso   1.00
Zn1136 Zn    0.55104   0.83333   0.75000   0.00000  Uiso   1.00
C1137  C     0.42684   0.71131   0.84494   0.00000  Uiso   1.00
C1138  C     0.43410   0.70042   0.89850   0.00000  Uiso   1.00
H1139  H     0.42818   0.99990   0.90754   0.00000  Uiso   1.00
H1140  H     0.40811   0.71921   0.93259   0.00000  Uiso   1.00
H1141  H     0.47093   0.70787   0.89617   0.00000  Uiso   1.00
H1142  H     0.42770   0.74594   0.84167   0.00000  Uiso   1.00
H1143  H     0.39048   0.70215   0.84718   0.00000  Uiso   1.00
F1144  F     0.56989   0.95635   0.66982   0.00000  Uiso   1.00
F1145  F     0.39525   0.76746   0.70414   0.00000  Uiso   1.00
C1146  C     0.35996   0.90908   0.79112   0.00000  Uiso   1.00
C1147  C     0.36106   0.90790   0.84902   0.00000  Uiso   1.00
H1148  H     0.66560   0.88801   0.87527   0.00000  Uiso   1.00
H1149  H     0.39629   0.89650   0.84898   0.00000  Uiso   1.00
H1150  H     0.35484   0.94018   0.86715   0.00000  Uiso   1.00
H1151  H     0.39080   0.92361   0.76094   0.00000  Uiso   1.00
H1152  H     0.66472   0.93304   0.79306   0.00000  Uiso   1.00
F1153  F     0.60908   0.75646   0.90253   0.00000  Uiso   1.00
F1154  F     0.37437   0.83779   0.92114   0.00000  Uiso   1.00
F1155  F     0.41293   0.82296   0.58010   0.00000  Uiso   1.00
F1156  F     0.53988   0.76453   0.85878   0.00000  Uiso   1.00
C1157  C     0.83300   0.91321   0.74955   0.00000  Uiso   1.00
C1158  C     0.81107   0.81545   0.99220   0.00000  Uiso   1.00
C1159  C     0.82260   0.80675   0.93602   0.00000  Uiso   1.00
C1160  C     0.84863   0.81397   0.51356   0.00000  Uiso   1.00
C1161  C     0.89349   0.79423   0.98338   0.00000  Uiso   1.00
C1162  C     0.90100   0.77791   0.93114   0.00000  Uiso   1.00
C1163  C     0.86607   0.78413   0.90748   0.00000  Uiso   1.00
C1164  C     0.84322   0.83325   0.56339   0.00000  Uiso   1.00
C1165  C     0.92051   0.80529   0.56000   0.00000  Uiso   1.00
C1166  C     0.78980   0.82058   0.91079   0.00000  Uiso   1.00
C1167  C     0.79706   0.97886   0.79257   0.00000  Uiso   1.00
C1168  C     0.80681   0.82948   0.85199   0.00000  Uiso   1.00
C1169  C     0.79749   0.68884   0.79633   0.00000  Uiso   1.00
C1170  C     0.83346   0.70944   0.75484   0.00000  Uiso   1.00
C1171  C     0.86927   0.68762   0.71306   0.00000  Uiso   1.00
C1172  C     0.86883   0.97793   0.71071   0.00000  Uiso   1.00
C1173  C     0.83223   0.95740   0.75002   0.00000  Uiso   1.00
C1174  C     0.98406   0.80053   0.72747   0.00000  Uiso   1.00
C1175  C     0.69837   0.80036   0.72771   0.00000  Uiso   1.00
C1176  C     0.68158   0.86719   0.77139   0.00000  Uiso   1.00
C1177  C     0.96712   0.86578   0.77254   0.00000  Uiso   1.00
C1178  C     0.83322   0.75356   0.75207   0.00000  Uiso   1.00
C1179  C     0.86013   0.83295   0.64762   0.00000  Uiso   1.00
C1180  C     0.92946   0.79048   0.50673   0.00000  Uiso   1.00
C1181  C     0.87672   0.82608   0.58865   0.00000  Uiso   1.00
C1182  C     0.74176   0.82968   0.94347   0.00000  Uiso   1.00
C1183  C     0.72811   0.82995   0.50003   0.00000  Uiso   1.00
C1184  C     0.76232   0.82419   0.52467   0.00000  Uiso   1.00
H1185  H     0.94678   0.79917   0.57933   0.00000  Uiso   1.00
H1186  H     0.89675   0.70403   0.68167   0.00000  Uiso   1.00
H1187  H     0.97258   0.77427   0.70909   0.00000  Uiso   1.00
H1188  H     0.94150   0.89134   0.79040   0.00000  Uiso   1.00
H1189  H     0.96364   0.77476   0.98480   0.00000  Uiso   1.00
H1190  H     0.81220   0.85332   0.58413   0.00000  Uiso   1.00
H1191  H     0.69089   0.83588   0.52500   0.00000  Uiso   1.00
H1192  H     0.77042   0.96177   0.82368   0.00000  Uiso   1.00
N1193  N     0.71426   0.83334   0.75001   0.00000  Uiso   1.00
N1194  N     0.95239   0.83331   0.75000   0.00000  Uiso   1.00
O1195  O     0.79512   0.89442   0.75000   0.00000  Uiso   1.00
O1196  O     0.87157   0.89441   0.75000   0.00000  Uiso   1.00
O1197  O     0.77613   0.83333   0.82681   0.00000  Uiso   1.00
O1198  O     0.85258   0.83332   0.82681   0.00000  Uiso   1.00
O1199  O     0.79510   0.77226   0.74999   0.00000  Uiso   1.00
O1200  O     0.87154   0.77225   0.74999   0.00000  Uiso   1.00
O1201  O     0.81409   0.83335   0.67319   0.00000  Uiso   1.00
O1202  O     0.89053   0.83334   0.67319   0.00000  Uiso   1.00
Zn1203 Zn    0.78229   0.83334   0.75000   0.00000  Uiso   1.00
Zn1204 Zn    0.88438   0.83333   0.75000   0.00000  Uiso   1.00
C1205  C     0.76017   0.71131   0.84494   0.00000  Uiso   1.00
C1206  C     0.76743   0.70042   0.89850   0.00000  Uiso   1.00
H1207  H     0.76151   0.99990   0.90754   0.00000  Uiso   1.00
H1208  H     0.74144   0.71921   0.93259   0.00000  Uiso   1.00
H1209  H     0.80426   0.70787   0.89617   0.00000  Uiso   1.00
H1210  H     0.76103   0.74594   0.84167   0.00000  Uiso   1.00
H1211  H     0.72381   0.70215   0.84718   0.00000  Uiso   1.00
F1212  F     0.90323   0.95635   0.66982   0.00000  Uiso   1.00
F1213  F     0.72858   0.76746   0.70414   0.00000  Uiso   1.00
C1214  C     0.69329   0.90908   0.79112   0.00000  Uiso   1.00
C1215  C     0.69439   0.90790   0.84902   0.00000  Uiso   1.00
H1216  H     0.99893   0.88801   0.87527   0.00000  Uiso   1.00
H1217  H     0.72962   0.89650   0.84898   0.00000  Uiso   1.00
H1218  H     0.68817   0.94018   0.86715   0.00000  Uiso   1.00
H1219  H     0.72414   0.92361   0.76094   0.00000  Uiso   1.00
H1220  H     0.99806   0.93304   0.79306   0.00000  Uiso   1.00
F1221  F     0.94242   0.75646   0.90253   0.00000  Uiso   1.00
F1222  F     0.70770   0.83779   0.92114   0.00000  Uiso   1.00
F1223  F     0.74626   0.82296   0.58010   0.00000  Uiso   1.00
F1224  F     0.87322   0.76453   0.85878   0.00000  Uiso   1.00
loop_
_geom_bond_atom_site_label_1
_geom_bond_atom_site_label_2
_geom_bond_distance
_geom_bond_site_symmetry_2
_ccdc_geom_bond_type
C1     C17     1.406   .     S
C1     O39     1.289   .     A
C1     O40     1.283   .     A
C2     C3      1.408   .     A
C2     C616    1.413   .     S
C2     C640    1.421   .     S
C3     C7      1.419   .     A
C3     C10     1.417   .     A
C4     C8      1.390   .     A
C4     C614    1.413   1_554 S
C4     C617    1.418   1_554 S
C5     C6      1.396   .     A
C5     C616    1.418   .     S
C5     C636    1.408   .     S
C6     C7      1.393   .     A
C6     F65     1.359   .     S
C7     F68     1.357   .     S
C8     C25     1.389   .     A
C8     H34     1.080   .     S
C9     C24     1.397   .     A
C9     H29     1.083   .     S
C9     C25     1.400   .     A
C10    C26     1.407   .     A
C10    C12     1.471   .     S
C11    H36     1.080   .     S
C11    C17     1.390   .     A
C11    C217    1.382   .     S
C12    O42     1.300   .     A
C12    O41     1.302   .     A
C13    C14     1.411   .     A
C13    C49     1.521   .     S
C13    C419    1.382   1_545 S
C14    C22     1.406   .     S
C14    C15     1.394   .     A
C15    H30     1.085   .     S
C15    C424    1.370   1_545 S
C16    F56     1.359   .     S
C16    C17     1.392   .     A
C16    C219    1.370   .     S
C18    N38     1.368   .     A
C18    H31     1.082   .     S
C18    C87     1.421   .     S
C19    N37     1.370   .     A
C19    F57     1.354   .     S
C19    C154    1.421   1_455 S
C20    N37     1.404   .     A
C20    C58     1.518   .     S
C20    C157    1.415   1_455 S
C21    H32     1.082   .     S
C21    N38     1.343   .     A
C21    C88     1.415   .     S
C22    O43     1.285   .     A
C22    O44     1.287   .     A
C23    O45     1.299   .     A
C23    O46     1.299   .     A
C23    C25     1.456   .     S
C24    C617    1.408   1_554 S
C24    H645    1.083   1_554 S
C26    F66     1.354   .     S
C26    C639    1.388   .     S
C27    C28     1.390   .     A
C27    H35     1.082   .     S
C27    C638    1.388   1_554 S
C28    F67     1.357   .     S
C28    C614    1.421   1_554 S
H33    C636    1.083   .     S
N37    Zn47    2.026   .     S
N38    Zn48    2.026   .     S
O39    Zn47    1.991   .     S
O40    Zn48    1.969   .     S
O41    Zn47    1.948   .     S
O42    Zn48    1.895   .     S
O43    Zn47    1.969   .     S
O44    Zn48    1.991   .     S
O45    Zn47    1.895   .     S
O46    Zn48    1.948   .     S
C49    H55     1.112   .     S
C49    C50     1.528   .     S
C49    H54     1.106   .     S
C50    H52     1.111   .     S
C50    H53     1.110   .     S
C50    H459    1.110   1_545 S
H51    C254    1.110   .     S
C58    H63     1.097   .     S
C58    C59     1.524   .     S
C58    H200    1.113   1_455 S
C59    H61     1.100   .     S
C59    H62     1.111   .     S
C59    H196    1.111   1_455 S
H60    C127    1.111   .     S
H64    C126    1.113   .     S
C69    C85     1.406   .     S
C69    O107    1.289   .     A
C69    O108    1.283   .     A
C70    C71     1.408   .     A
C70    C684    1.413   .     S
C70    C708    1.421   .     S
C71    C75     1.419   .     A
C71    C78     1.417   .     A
C72    C76     1.390   .     A
C72    C682    1.413   1_554 S
C72    C685    1.418   1_554 S
C73    C74     1.396   .     A
C73    C684    1.418   .     S
C73    C704    1.408   .     S
C74    C75     1.393   .     A
C74    F133    1.359   .     S
C75    F136    1.357   .     S
C76    C93     1.389   .     A
C76    H102    1.080   .     S
C77    C92     1.397   .     A
C77    H97     1.083   .     S
C77    C93     1.400   .     A
C78    C94     1.407   .     A
C78    C80     1.471   .     S
C79    H104    1.080   .     S
C79    C85     1.390   .     A
C79    C285    1.382   .     S
C80    O110    1.300   .     A
C80    O109    1.302   .     A
C81    C82     1.411   .     A
C81    C117    1.521   .     S
C81    C487    1.382   1_545 S
C82    C90     1.406   .     S
C82    C83     1.394   .     A
C83    H98     1.085   .     S
C83    C492    1.370   1_545 S
C84    F124    1.359   .     S
C84    C85     1.392   .     A
C84    C287    1.370   .     S
C86    N106    1.368   .     A
C86    H99     1.082   .     S
C86    C155    1.421   .     S
C87    N105    1.370   .     A
C87    F125    1.354   .     S
C88    N105    1.404   .     A
C88    C126    1.518   .     S
C89    H100    1.082   .     S
C89    N106    1.343   .     A
C89    C156    1.415   .     S
C90    O111    1.285   .     A
C90    O112    1.287   .     A
C91    O113    1.299   .     A
C91    O114    1.299   .     A
C91    C93     1.456   .     S
C92    C685    1.408   1_554 S
C92    H713    1.083   1_554 S
C94    F134    1.354   .     S
C94    C707    1.388   .     S
C95    C96     1.390   .     A
C95    H103    1.082   .     S
C95    C706    1.388   1_554 S
C96    F135    1.357   .     S
C96    C682    1.421   1_554 S
H101   C704    1.083   .     S
N105   Zn115   2.026   .     S
N106   Zn116   2.026   .     S
O107   Zn115   1.991   .     S
O108   Zn116   1.969   .     S
O109   Zn115   1.948   .     S
O110   Zn116   1.895   .     S
O111   Zn115   1.969   .     S
O112   Zn116   1.991   .     S
O113   Zn115   1.895   .     S
O114   Zn116   1.948   .     S
C117   H123    1.112   .     S
C117   C118    1.528   .     S
C117   H122    1.106   .     S
C118   H120    1.111   .     S
C118   H121    1.110   .     S
C118   H527    1.110   1_545 S
H119   C322    1.110   .     S
C126   H131    1.097   .     S
C126   C127    1.524   .     S
C127   H129    1.100   .     S
C127   H130    1.111   .     S
H128   C195    1.111   .     S
H132   C194    1.113   .     S
C137   C153    1.406   .     S
C137   O175    1.289   .     A
C137   O176    1.283   .     A
C138   C139    1.408   .     A
C138   C752    1.413   .     S
C138   C776    1.421   .     S
C139   C143    1.419   .     A
C139   C146    1.417   .     A
C140   C144    1.390   .     A
C140   C750    1.413   1_554 S
C140   C753    1.418   1_554 S
C141   C142    1.396   .     A
C141   C752    1.418   .     S
C141   C772    1.408   .     S
C142   C143    1.393   .     A
C142   F201    1.359   .     S
C143   F204    1.357   .     S
C144   C161    1.389   .     A
C144   H170    1.080   .     S
C145   C160    1.397   .     A
C145   H165    1.083   .     S
C145   C161    1.400   .     A
C146   C162    1.407   .     A
C146   C148    1.471   .     S
C147   H172    1.080   .     S
C147   C153    1.390   .     A
C147   C353    1.382   .     S
C148   O178    1.300   .     A
C148   O177    1.302   .     A
C149   C150    1.411   .     A
C149   C185    1.521   .     S
C149   C555    1.382   1_545 S
C150   C158    1.406   .     S
C150   C151    1.394   .     A
C151   H166    1.085   .     S
C151   C560    1.370   1_545 S
C152   F192    1.359   .     S
C152   C153    1.392   .     A
C152   C355    1.370   .     S
C154   N174    1.368   .     A
C154   H167    1.082   .     S
C154   C19     1.421   1_655 S
C155   N173    1.370   .     A
C155   F193    1.354   .     S
C156   N173    1.404   .     A
C156   C194    1.518   .     S
C157   H168    1.082   .     S
C157   N174    1.343   .     A
C157   C20     1.415   1_655 S
C158   O179    1.285   .     A
C158   O180    1.287   .     A
C159   O181    1.299   .     A
C159   O182    1.299   .     A
C159   C161    1.456   .     S
C160   C753    1.408   1_554 S
C160   H781    1.083   1_554 S
C162   F202    1.354   .     S
C162   C775    1.388   .     S
C163   C164    1.390   .     A
C163   H171    1.082   .     S
C163   C774    1.388   1_554 S
C164   F203    1.357   .     S
C164   C750    1.421   1_554 S
H169   C772    1.083   .     S
N173   Zn183   2.026   .     S
N174   Zn184   2.026   .     S
O175   Zn183   1.991   .     S
O176   Zn184   1.969   .     S
O177   Zn183   1.948   .     S
O178   Zn184   1.895   .     S
O179   Zn183   1.969   .     S
O180   Zn184   1.991   .     S
O181   Zn183   1.895   .     S
O182   Zn184   1.948   .     S
C185   H191    1.112   .     S
C185   C186    1.528   .     S
C185   H190    1.106   .     S
C186   H188    1.111   .     S
C186   H189    1.110   .     S
C186   H595    1.110   1_545 S
H187   C390    1.110   .     S
C194   H199    1.097   .     S
C194   C195    1.524   .     S
C195   H197    1.100   .     S
C195   H198    1.111   .     S
H196   C59     1.111   1_655 S
H200   C58     1.113   1_655 S
C205   C221    1.406   .     S
C205   O243    1.289   .     A
C205   O244    1.283   .     A
C206   C207    1.408   .     A
C206   C820    1.413   .     S
C206   C844    1.421   .     S
C207   C211    1.419   .     A
C207   C214    1.417   .     A
C208   C212    1.390   .     A
C208   C818    1.413   1_554 S
C208   C821    1.418   1_554 S
C209   C210    1.396   .     A
C209   C820    1.418   .     S
C209   C840    1.408   .     S
C210   C211    1.393   .     A
C210   F269    1.359   .     S
C211   F272    1.357   .     S
C212   C229    1.389   .     A
C212   H238    1.080   .     S
C213   C228    1.397   .     A
C213   H233    1.083   .     S
C213   C229    1.400   .     A
C214   C230    1.407   .     A
C214   C216    1.471   .     S
C215   H240    1.080   .     S
C215   C221    1.390   .     A
C215   C421    1.382   .     S
C216   O246    1.300   .     A
C216   O245    1.302   .     A
C217   C218    1.411   .     A
C217   C253    1.521   .     S
C218   C226    1.406   .     S
C218   C219    1.394   .     A
C219   H234    1.085   .     S
C220   F260    1.359   .     S
C220   C221    1.392   .     A
C220   C423    1.370   .     S
C222   N242    1.368   .     A
C222   H235    1.082   .     S
C222   C291    1.421   .     S
C223   N241    1.370   .     A
C223   F261    1.354   .     S
C223   C358    1.421   1_455 S
C224   N241    1.404   .     A
C224   C262    1.518   .     S
C224   C361    1.415   1_455 S
C225   H236    1.082   .     S
C225   N242    1.343   .     A
C225   C292    1.415   .     S
C226   O247    1.285   .     A
C226   O248    1.287   .     A
C227   O249    1.299   .     A
C227   O250    1.299   .     A
C227   C229    1.456   .     S
C228   C821    1.408   1_554 S
C228   H849    1.083   1_554 S
C230   F270    1.354   .     S
C230   C843    1.388   .     S
C231   C232    1.390   .     A
C231   H239    1.082   .     S
C231   C842    1.388   1_554 S
C232   F271    1.357   .     S
C232   C818    1.421   1_554 S
H237   C840    1.083   .     S
N241   Zn251   2.026   .     S
N242   Zn252   2.026   .     S
O243   Zn251   1.991   .     S
O244   Zn252   1.969   .     S
O245   Zn251   1.948   .     S
O246   Zn252   1.895   .     S
O247   Zn251   1.969   .     S
O248   Zn252   1.991   .     S
O249   Zn251   1.895   .     S
O250   Zn252   1.948   .     S
C253   H259    1.112   .     S
C253   C254    1.528   .     S
C253   H258    1.106   .     S
C254   H256    1.111   .     S
C254   H257    1.110   .     S
H255   C458    1.110   .     S
C262   H267    1.097   .     S
C262   C263    1.524   .     S
C262   H404    1.113   1_455 S
C263   H265    1.100   .     S
C263   H266    1.111   .     S
C263   H400    1.111   1_455 S
H264   C331    1.111   .     S
H268   C330    1.113   .     S
C273   C289    1.406   .     S
C273   O311    1.289   .     A
C273   O312    1.283   .     A
C274   C275    1.408   .     A
C274   C888    1.413   .     S
C274   C912    1.421   .     S
C275   C279    1.419   .     A
C275   C282    1.417   .     A
C276   C280    1.390   .     A
C276   C886    1.413   1_554 S
C276   C889    1.418   1_554 S
C277   C278    1.396   .     A
C277   C888    1.418   .     S
C277   C908    1.408   .     S
C278   C279    1.393   .     A
C278   F337    1.359   .     S
C279   F340    1.357   .     S
C280   C297    1.389   .     A
C280   H306    1.080   .     S
C281   C296    1.397   .     A
C281   H301    1.083   .     S
C281   C297    1.400   .     A
C282   C298    1.407   .     A
C282   C284    1.471   .     S
C283   H308    1.080   .     S
C283   C289    1.390   .     A
C283   C489    1.382   .     S
C284   O314    1.300   .     A
C284   O313    1.302   .     A
C285   C286    1.411   .     A
C285   C321    1.521   .     S
C286   C294    1.406   .     S
C286   C287    1.394   .     A
C287   H302    1.085   .     S
C288   F328    1.359   .     S
C288   C289    1.392   .     A
C288   C491    1.370   .     S
C290   N310    1.368   .     A
C290   H303    1.082   .     S
C290   C359    1.421   .     S
C291   N309    1.370   .     A
C291   F329    1.354   .     S
C292   N309    1.404   .     A
C292   C330    1.518   .     S
C293   H304    1.082   .     S
C293   N310    1.343   .     A
C293   C360    1.415   .     S
C294   O315    1.285   .     A
C294   O316    1.287   .     A
C295   O317    1.299   .     A
C295   O318    1.299   .     A
C295   C297    1.456   .     S
C296   C889    1.408   1_554 S
C296   H917    1.083   1_554 S
C298   F338    1.354   .     S
C298   C911    1.388   .     S
C299   C300    1.390   .     A
C299   H307    1.082   .     S
C299   C910    1.388   1_554 S
C300   F339    1.357   .     S
C300   C886    1.421   1_554 S
H305   C908    1.083   .     S
N309   Zn319   2.026   .     S
N310   Zn320   2.026   .     S
O311   Zn319   1.991   .     S
O312   Zn320   1.969   .     S
O313   Zn319   1.948   .     S
O314   Zn320   1.895   .     S
O315   Zn319   1.969   .     S
O316   Zn320   1.991   .     S
O317   Zn319   1.895   .     S
O318   Zn320   1.948   .     S
C321   H327    1.112   .     S
C321   C322    1.528   .     S
C321   H326    1.106   .     S
C322   H324    1.111   .     S
C322   H325    1.110   .     S
H323   C526    1.110   .     S
C330   H335    1.097   .     S
C330   C331    1.524   .     S
C331   H333    1.100   .     S
C331   H334    1.111   .     S
H332   C399    1.111   .     S
H336   C398    1.113   .     S
C341   C357    1.406   .     S
C341   O379    1.289   .     A
C341   O380    1.283   .     A
C342   C343    1.408   .     A
C342   C956    1.413   .     S
C342   C980    1.421   .     S
C343   C347    1.419   .     A
C343   C350    1.417   .     A
C344   C348    1.390   .     A
C344   C954    1.413   1_554 S
C344   C957    1.418   1_554 S
C345   C346    1.396   .     A
C345   C956    1.418   .     S
C345   C976    1.408   .     S
C346   C347    1.393   .     A
C346   F405    1.359   .     S
C347   F408    1.357   .     S
C348   C365    1.389   .     A
C348   H374    1.080   .     S
C349   C364    1.397   .     A
C349   H369    1.083   .     S
C349   C365    1.400   .     A
C350   C366    1.407   .     A
C350   C352    1.471   .     S
C351   H376    1.080   .     S
C351   C357    1.390   .     A
C351   C557    1.382   .     S
C352   O382    1.300   .     A
C352   O381    1.302   .     A
C353   C354    1.411   .     A
C353   C389    1.521   .     S
C354   C362    1.406   .     S
C354   C355    1.394   .     A
C355   H370    1.085   .     S
C356   F396    1.359   .     S
C356   C357    1.392   .     A
C356   C559    1.370   .     S
C358   N378    1.368   .     A
C358   H371    1.082   .     S
C358   C223    1.421   1_655 S
C359   N377    1.370   .     A
C359   F397    1.354   .     S
C360   N377    1.404   .     A
C360   C398    1.518   .     S
C361   H372    1.082   .     S
C361   N378    1.343   .     A
C361   C224    1.415   1_655 S
C362   O383    1.285   .     A
C362   O384    1.287   .     A
C363   O385    1.299   .     A
C363   O386    1.299   .     A
C363   C365    1.456   .     S
C364   C957    1.408   1_554 S
C364   H985    1.083   1_554 S
C366   F406    1.354   .     S
C366   C979    1.388   .     S
C367   C368    1.390   .     A
C367   H375    1.082   .     S
C367   C978    1.388   1_554 S
C368   F407    1.357   .     S
C368   C954    1.421   1_554 S
H373   C976    1.083   .     S
N377   Zn387   2.026   .     S
N378   Zn388   2.026   .     S
O379   Zn387   1.991   .     S
O380   Zn388   1.969   .     S
O381   Zn387   1.948   .     S
O382   Zn388   1.895   .     S
O383   Zn387   1.969   .     S
O384   Zn388   1.991   .     S
O385   Zn387   1.895   .     S
O386   Zn388   1.948   .     S
C389   H395    1.112   .     S
C389   C390    1.528   .     S
C389   H394    1.106   .     S
C390   H392    1.111   .     S
C390   H393    1.110   .     S
H391   C594    1.110   .     S
C398   H403    1.097   .     S
C398   C399    1.524   .     S
C399   H401    1.100   .     S
C399   H402    1.111   .     S
H400   C263    1.111   1_655 S
H404   C262    1.113   1_655 S
C409   C425    1.406   .     S
C409   O447    1.289   .     A
C409   O448    1.283   .     A
C410   C411    1.408   .     A
C410   C1024   1.413   .     S
C410   C1048   1.421   .     S
C411   C415    1.419   .     A
C411   C418    1.417   .     A
C412   C416    1.390   .     A
C412   C1022   1.413   1_554 S
C412   C1025   1.418   1_554 S
C413   C414    1.396   .     A
C413   C1024   1.418   .     S
C413   C1044   1.408   .     S
C414   C415    1.393   .     A
C414   F473    1.359   .     S
C415   F476    1.357   .     S
C416   C433    1.389   .     A
C416   H442    1.080   .     S
C417   C432    1.397   .     A
C417   H437    1.083   .     S
C417   C433    1.400   .     A
C418   C434    1.407   .     A
C418   C420    1.471   .     S
C419   H444    1.080   .     S
C419   C425    1.390   .     A
C419   C13     1.382   1_565 S
C420   O450    1.300   .     A
C420   O449    1.302   .     A
C421   C422    1.411   .     A
C421   C457    1.521   .     S
C422   C430    1.406   .     S
C422   C423    1.394   .     A
C423   H438    1.085   .     S
C424   F464    1.359   .     S
C424   C425    1.392   .     A
C424   C15     1.370   1_565 S
C426   N446    1.368   .     A
C426   H439    1.082   .     S
C426   C495    1.421   .     S
C427   N445    1.370   .     A
C427   F465    1.354   .     S
C427   C562    1.421   1_455 S
C428   N445    1.404   .     A
C428   C466    1.518   .     S
C428   C565    1.415   1_455 S
C429   H440    1.082   .     S
C429   N446    1.343   .     A
C429   C496    1.415   .     S
C430   O451    1.285   .     A
C430   O452    1.287   .     A
C431   O453    1.299   .     A
C431   O454    1.299   .     A
C431   C433    1.456   .     S
C432   C1025   1.408   1_554 S
C432   H1053   1.083   1_554 S
C434   F474    1.354   .     S
C434   C1047   1.388   .     S
C435   C436    1.390   .     A
C435   H443    1.082   .     S
C435   C1046   1.388   1_554 S
C436   F475    1.357   .     S
C436   C1022   1.421   1_554 S
H441   C1044   1.083   .     S
N445   Zn455   2.026   .     S
N446   Zn456   2.026   .     S
O447   Zn455   1.991   .     S
O448   Zn456   1.969   .     S
O449   Zn455   1.948   .     S
O450   Zn456   1.895   .     S
O451   Zn455   1.969   .     S
O452   Zn456   1.991   .     S
O453   Zn455   1.895   .     S
O454   Zn456   1.948   .     S
C457   H463    1.112   .     S
C457   C458    1.528   .     S
C457   H462    1.106   .     S
C458   H460    1.111   .     S
C458   H461    1.110   .     S
H459   C50     1.110   1_565 S
C466   H471    1.097   .     S
C466   C467    1.524   .     S
C466   H608    1.113   1_455 S
C467   H469    1.100   .     S
C467   H470    1.111   .     S
C467   H604    1.111   1_455 S
H468   C535    1.111   .     S
H472   C534    1.113   .     S
C477   C493    1.406   .     S
C477   O515    1.289   .     A
C477   O516    1.283   .     A
C478   C479    1.408   .     A
C478   C1092   1.413   .     S
C478   C1116   1.421   .     S
C479   C483    1.419   .     A
C479   C486    1.417   .     A
C480   C484    1.390   .     A
C480   C1090   1.413   1_554 S
C480   C1093   1.418   1_554 S
C481   C482    1.396   .     A
C481   C1092   1.418   .     S
C481   C1112   1.408   .     S
C482   C483    1.393   .     A
C482   F541    1.359   .     S
C483   F544    1.357   .     S
C484   C501    1.389   .     A
C484   H510    1.080   .     S
C485   C500    1.397   .     A
C485   H505    1.083   .     S
C485   C501    1.400   .     A
C486   C502    1.407   .     A
C486   C488    1.471   .     S
C487   H512    1.080   .     S
C487   C493    1.390   .     A
C487   C81     1.382   1_565 S
C488   O518    1.300   .     A
C488   O517    1.302   .     A
C489   C490    1.411   .     A
C489   C525    1.521   .     S
C490   C498    1.406   .     S
C490   C491    1.394   .     A
C491   H506    1.085   .     S
C492   F532    1.359   .     S
C492   C493    1.392   .     A
C492   C83     1.370   1_565 S
C494   N514    1.368   .     A
C494   H507    1.082   .     S
C494   C563    1.421   .     S
C495   N513    1.370   .     A
C495   F533    1.354   .     S
C496   N513    1.404   .     A
C496   C534    1.518   .     S
C497   H508    1.082   .     S
C497   N514    1.343   .     A
C497   C564    1.415   .     S
C498   O519    1.285   .     A
C498   O520    1.287   .     A
C499   O521    1.299   .     A
C499   O522    1.299   .     A
C499   C501    1.456   .     S
C500   C1093   1.408   1_554 S
C500   H1121   1.083   1_554 S
C502   F542    1.354   .     S
C502   C1115   1.388   .     S
C503   C504    1.390   .     A
C503   H511    1.082   .     S
C503   C1114   1.388   1_554 S
C504   F543    1.357   .     S
C504   C1090   1.421   1_554 S
H509   C1112   1.083   .     S
N513   Zn523   2.026   .     S
N514   Zn524   2.026   .     S
O515   Zn523   1.991   .     S
O516   Zn524   1.969   .     S
O517   Zn523   1.948   .     S
O518   Zn524   1.895   .     S
O519   Zn523   1.969   .     S
O520   Zn524   1.991   .     S
O521   Zn523   1.895   .     S
O522   Zn524   1.948   .     S
C525   H531    1.112   .     S
C525   C526    1.528   .     S
C525   H530    1.106   .     S
C526   H528    1.111   .     S
C526   H529    1.110   .     S
H527   C118    1.110   1_565 S
C534   H539    1.097   .     S
C534   C535    1.524   .     S
C535   H537    1.100   .     S
C535   H538    1.111   .     S
H536   C603    1.111   .     S
H540   C602    1.113   .     S
C545   C561    1.406   .     S
C545   O583    1.289   .     A
C545   O584    1.283   .     A
C546   C547    1.408   .     A
C546   C1160   1.413   .     S
C546   C1184   1.421   .     S
C547   C551    1.419   .     A
C547   C554    1.417   .     A
C548   C552    1.390   .     A
C548   C1158   1.413   1_554 S
C548   C1161   1.418   1_554 S
C549   C550    1.396   .     A
C549   C1160   1.418   .     S
C549   C1180   1.408   .     S
C550   C551    1.393   .     A
C550   F609    1.359   .     S
C551   F612    1.357   .     S
C552   C569    1.389   .     A
C552   H578    1.080   .     S
C553   C568    1.397   .     A
C553   H573    1.083   .     S
C553   C569    1.400   .     A
C554   C570    1.407   .     A
C554   C556    1.471   .     S
C555   H580    1.080   .     S
C555   C561    1.390   .     A
C555   C149    1.382   1_565 S
C556   O586    1.300   .     A
C556   O585    1.302   .     A
C557   C558    1.411   .     A
C557   C593    1.521   .     S
C558   C566    1.406   .     S
C558   C559    1.394   .     A
C559   H574    1.085   .     S
C560   F600    1.359   .     S
C560   C561    1.392   .     A
C560   C151    1.370   1_565 S
C562   N582    1.368   .     A
C562   H575    1.082   .     S
C562   C427    1.421   1_655 S
C563   N581    1.370   .     A
C563   F601    1.354   .     S
C564   N581    1.404   .     A
C564   C602    1.518   .     S
C565   H576    1.082   .     S
C565   N582    1.343   .     A
C565   C428    1.415   1_655 S
C566   O587    1.285   .     A
C566   O588    1.287   .     A
C567   O589    1.299   .     A
C567   O590    1.299   .     A
C567   C569    1.456   .     S
C568   C1161   1.408   1_554 S
C568   H1189   1.083   1_554 S
C570   F610    1.354   .     S
C570   C1183   1.388   .     S
C571   C572    1.390   .     A
C571   H579    1.082   .     S
C571   C1182   1.388   1_554 S
C572   F611    1.357   .     S
C572   C1158   1.421   1_554 S
H577   C1180   1.083   .     S
N581   Zn591   2.026   .     S
N582   Zn592   2.026   .     S
O583   Zn591   1.991   .     S
O584   Zn592   1.969   .     S
O585   Zn591   1.948   .     S
O586   Zn592   1.895   .     S
O587   Zn591   1.969   .     S
O588   Zn592   1.991   .     S
O589   Zn591   1.895   .     S
O590   Zn592   1.948   .     S
C593   H599    1.112   .     S
C593   C594    1.528   .     S
C593   H598    1.106   .     S
C594   H596    1.111   .     S
C594   H597    1.110   .     S
H595   C186    1.110   1_565 S
C602   H607    1.097   .     S
C602   C603    1.524   .     S
C603   H605    1.100   .     S
C603   H606    1.111   .     S
H604   C467    1.111   1_655 S
H608   C466    1.113   1_655 S
C613   C629    1.406   .     S
C613   O651    1.289   .     A
C613   O652    1.283   .     A
C614   C615    1.408   .     A
C614   C4      1.413   1_556 S
C614   C28     1.421   1_556 S
C615   C619    1.419   .     A
C615   C622    1.417   .     A
C616   C620    1.390   .     A
C617   C618    1.396   .     A
C617   C4      1.418   1_556 S
C617   C24     1.408   1_556 S
C618   C619    1.393   .     A
C618   F677    1.359   .     S
C619   F680    1.357   .     S
C620   C637    1.389   .     A
C620   H646    1.080   .     S
C621   C636    1.397   .     A
C621   H641    1.083   .     S
C621   C637    1.400   .     A
C622   C638    1.407   .     A
C622   C624    1.471   .     S
C623   H648    1.080   .     S
C623   C629    1.390   .     A
C623   C829    1.382   .     S
C624   O654    1.300   .     A
C624   O653    1.302   .     A
C625   C626    1.411   .     A
C625   C661    1.521   .     S
C625   C1031   1.382   1_545 S
C626   C634    1.406   .     S
C626   C627    1.394   .     A
C627   H642    1.085   .     S
C627   C1036   1.370   1_545 S
C628   F668    1.359   .     S
C628   C629    1.392   .     A
C628   C831    1.370   .     S
C630   N650    1.368   .     A
C630   H643    1.082   .     S
C630   C699    1.421   .     S
C631   N649    1.370   .     A
C631   F669    1.354   .     S
C631   C766    1.421   1_455 S
C632   N649    1.404   .     A
C632   C670    1.518   .     S
C632   C769    1.415   1_455 S
C633   H644    1.082   .     S
C633   N650    1.343   .     A
C633   C700    1.415   .     S
C634   O655    1.285   .     A
C634   O656    1.287   .     A
C635   O657    1.299   .     A
C635   O658    1.299   .     A
C635   C637    1.456   .     S
C638   F678    1.354   .     S
C638   C27     1.388   1_556 S
C639   C640    1.390   .     A
C639   H647    1.082   .     S
C640   F679    1.357   .     S
H645   C24     1.083   1_556 S
N649   Zn659   2.026   .     S
N650   Zn660   2.026   .     S
O651   Zn659   1.991   .     S
O652   Zn660   1.969   .     S
O653   Zn659   1.948   .     S
O654   Zn660   1.895   .     S
O655   Zn659   1.969   .     S
O656   Zn660   1.991   .     S
O657   Zn659   1.895   .     S
O658   Zn660   1.948   .     S
C661   H667    1.112   .     S
C661   C662    1.528   .     S
C661   H666    1.106   .     S
C662   H664    1.111   .     S
C662   H665    1.110   .     S
C662   H1071   1.110   1_545 S
H663   C866    1.110   .     S
C670   H675    1.097   .     S
C670   C671    1.524   .     S
C670   H812    1.113   1_455 S
C671   H673    1.100   .     S
C671   H674    1.111   .     S
C671   H808    1.111   1_455 S
H672   C739    1.111   .     S
H676   C738    1.113   .     S
C681   C697    1.406   .     S
C681   O719    1.289   .     A
C681   O720    1.283   .     A
C682   C683    1.408   .     A
C682   C72     1.413   1_556 S
C682   C96     1.421   1_556 S
C683   C687    1.419   .     A
C683   C690    1.417   .     A
C684   C688    1.390   .     A
C685   C686    1.396   .     A
C685   C72     1.418   1_556 S
C685   C92     1.408   1_556 S
C686   C687    1.393   .     A
C686   F745    1.359   .     S
C687   F748    1.357   .     S
C688   C705    1.389   .     A
C688   H714    1.080   .     S
C689   C704    1.397   .     A
C689   H709    1.083   .     S
C689   C705    1.400   .     A
C690   C706    1.407   .     A
C690   C692    1.471   .     S
C691   H716    1.080   .     S
C691   C697    1.390   .     A
C691   C897    1.382   .     S
C692   O722    1.300   .     A
C692   O721    1.302   .     A
C693   C694    1.411   .     A
C693   C729    1.521   .     S
C693   C1099   1.382   1_545 S
C694   C702    1.406   .     S
C694   C695    1.394   .     A
C695   H710    1.085   .     S
C695   C1104   1.370   1_545 S
C696   F736    1.359   .     S
C696   C697    1.392   .     A
C696   C899    1.370   .     S
C698   N718    1.368   .     A
C698   H711    1.082   .     S
C698   C767    1.421   .     S
C699   N717    1.370   .     A
C699   F737    1.354   .     S
C700   N717    1.404   .     A
C700   C738    1.518   .     S
C701   H712    1.082   .     S
C701   N718    1.343   .     A
C701   C768    1.415   .     S
C702   O723    1.285   .     A
C702   O724    1.287   .     A
C703   O725    1.299   .     A
C703   O726    1.299   .     A
C703   C705    1.456   .     S
C706   F746    1.354   .     S
C706   C95     1.388   1_556 S
C707   C708    1.390   .     A
C707   H715    1.082   .     S
C708   F747    1.357   .     S
H713   C92     1.083   1_556 S
N717   Zn727   2.026   .     S
N718   Zn728   2.026   .     S
O719   Zn727   1.991   .     S
O720   Zn728   1.969   .     S
O721   Zn727   1.948   .     S
O722   Zn728   1.895   .     S
O723   Zn727   1.969   .     S
O724   Zn728   1.991   .     S
O725   Zn727   1.895   .     S
O726   Zn728   1.948   .     S
C729   H735    1.112   .     S
C729   C730    1.528   .     S
C729   H734    1.106   .     S
C730   H732    1.111   .     S
C730   H733    1.110   .     S
C730   H1139   1.110   1_545 S
H731   C934    1.110   .     S
C738   H743    1.097   .     S
C738   C739    1.524   .     S
C739   H741    1.100   .     S
C739   H742    1.111   .     S
H740   C807    1.111   .     S
H744   C806    1.113   .     S
C749   C765    1.406   .     S
C749   O787    1.289   .     A
C749   O788    1.283   .     A
C750   C751    1.408   .     A
C750   C140    1.413   1_556 S
C750   C164    1.421   1_556 S
C751   C755    1.419   .     A
C751   C758    1.417   .     A
C752   C756    1.390   .     A
C753   C754    1.396   .     A
C753   C140    1.418   1_556 S
C753   C160    1.408   1_556 S
C754   C755    1.393   .     A
C754   F813    1.359   .     S
C755   F816    1.357   .     S
C756   C773    1.389   .     A
C756   H782    1.080   .     S
C757   C772    1.397   .     A
C757   H777    1.083   .     S
C757   C773    1.400   .     A
C758   C774    1.407   .     A
C758   C760    1.471   .     S
C759   H784    1.080   .     S
C759   C765    1.390   .     A
C759   C965    1.382   .     S
C760   O790    1.300   .     A
C760   O789    1.302   .     A
C761   C762    1.411   .     A
C761   C797    1.521   .     S
C761   C1167   1.382   1_545 S
C762   C770    1.406   .     S
C762   C763    1.394   .     A
C763   H778    1.085   .     S
C763   C1172   1.370   1_545 S
C764   F804    1.359   .     S
C764   C765    1.392   .     A
C764   C967    1.370   .     S
C766   N786    1.368   .     A
C766   H779    1.082   .     S
C766   C631    1.421   1_655 S
C767   N785    1.370   .     A
C767   F805    1.354   .     S
C768   N785    1.404   .     A
C768   C806    1.518   .     S
C769   H780    1.082   .     S
C769   N786    1.343   .     A
C769   C632    1.415   1_655 S
C770   O791    1.285   .     A
C770   O792    1.287   .     A
C771   O793    1.299   .     A
C771   O794    1.299   .     A
C771   C773    1.456   .     S
C774   F814    1.354   .     S
C774   C163    1.388   1_556 S
C775   C776    1.390   .     A
C775   H783    1.082   .     S
C776   F815    1.357   .     S
H781   C160    1.083   1_556 S
N785   Zn795   2.026   .     S
N786   Zn796   2.026   .     S
O787   Zn795   1.991   .     S
O788   Zn796   1.969   .     S
O789   Zn795   1.948   .     S
O790   Zn796   1.895   .     S
O791   Zn795   1.969   .     S
O792   Zn796   1.991   .     S
O793   Zn795   1.895   .     S
O794   Zn796   1.948   .     S
C797   H803    1.112   .     S
C797   C798    1.528   .     S
C797   H802    1.106   .     S
C798   H800    1.111   .     S
C798   H801    1.110   .     S
C798   H1207   1.110   1_545 S
H799   C1002   1.110   .     S
C806   H811    1.097   .     S
C806   C807    1.524   .     S
C807   H809    1.100   .     S
C807   H810    1.111   .     S
H808   C671    1.111   1_655 S
H812   C670    1.113   1_655 S
C817   C833    1.406   .     S
C817   O855    1.289   .     A
C817   O856    1.283   .     A
C818   C819    1.408   .     A
C818   C208    1.413   1_556 S
C818   C232    1.421   1_556 S
C819   C823    1.419   .     A
C819   C826    1.417   .     A
C820   C824    1.390   .     A
C821   C822    1.396   .     A
C821   C208    1.418   1_556 S
C821   C228    1.408   1_556 S
C822   C823    1.393   .     A
C822   F881    1.359   .     S
C823   F884    1.357   .     S
C824   C841    1.389   .     A
C824   H850    1.080   .     S
C825   C840    1.397   .     A
C825   H845    1.083   .     S
C825   C841    1.400   .     A
C826   C842    1.407   .     A
C826   C828    1.471   .     S
C827   H852    1.080   .     S
C827   C833    1.390   .     A
C827   C1033   1.382   .     S
C828   O858    1.300   .     A
C828   O857    1.302   .     A
C829   C830    1.411   .     A
C829   C865    1.521   .     S
C830   C838    1.406   .     S
C830   C831    1.394   .     A
C831   H846    1.085   .     S
C832   F872    1.359   .     S
C832   C833    1.392   .     A
C832   C1035   1.370   .     S
C834   N854    1.368   .     A
C834   H847    1.082   .     S
C834   C903    1.421   .     S
C835   N853    1.370   .     A
C835   F873    1.354   .     S
C835   C970    1.421   1_455 S
C836   N853    1.404   .     A
C836   C874    1.518   .     S
C836   C973    1.415   1_455 S
C837   H848    1.082   .     S
C837   N854    1.343   .     A
C837   C904    1.415   .     S
C838   O859    1.285   .     A
C838   O860    1.287   .     A
C839   O861    1.299   .     A
C839   O862    1.299   .     A
C839   C841    1.456   .     S
C842   F882    1.354   .     S
C842   C231    1.388   1_556 S
C843   C844    1.390   .     A
C843   H851    1.082   .     S
C844   F883    1.357   .     S
H849   C228    1.083   1_556 S
N853   Zn863   2.026   .     S
N854   Zn864   2.026   .     S
O855   Zn863   1.991   .     S
O856   Zn864   1.969   .     S
O857   Zn863   1.948   .     S
O858   Zn864   1.895   .     S
O859   Zn863   1.969   .     S
O860   Zn864   1.991   .     S
O861   Zn863   1.895   .     S
O862   Zn864   1.948   .     S
C865   H871    1.112   .     S
C865   C866    1.528   .     S
C865   H870    1.106   .     S
C866   H868    1.111   .     S
C866   H869    1.110   .     S
H867   C1070   1.110   .     S
C874   H879    1.097   .     S
C874   C875    1.524   .     S
C874   H1016   1.113   1_455 S
C875   H877    1.100   .     S
C875   H878    1.111   .     S
C875   H1012   1.111   1_455 S
H876   C943    1.111   .     S
H880   C942    1.113   .     S
C885   C901    1.406   .     S
C885   O923    1.289   .     A
C885   O924    1.283   .     A
C886   C887    1.408   .     A
C886   C276    1.413   1_556 S
C886   C300    1.421   1_556 S
C887   C891    1.419   .     A
C887   C894    1.417   .     A
C888   C892    1.390   .     A
C889   C890    1.396   .     A
C889   C276    1.418   1_556 S
C889   C296    1.408   1_556 S
C890   C891    1.393   .     A
C890   F949    1.359   .     S
C891   F952    1.357   .     S
C892   C909    1.389   .     A
C892   H918    1.080   .     S
C893   C908    1.397   .     A
C893   H913    1.083   .     S
C893   C909    1.400   .     A
C894   C910    1.407   .     A
C894   C896    1.471   .     S
C895   H920    1.080   .     S
C895   C901    1.390   .     A
C895   C1101   1.382   .     S
C896   O926    1.300   .     A
C896   O925    1.302   .     A
C897   C898    1.411   .     A
C897   C933    1.521   .     S
C898   C906    1.406   .     S
C898   C899    1.394   .     A
C899   H914    1.085   .     S
C900   F940    1.359   .     S
C900   C901    1.392   .     A
C900   C1103   1.370   .     S
C902   N922    1.368   .     A
C902   H915    1.082   .     S
C902   C971    1.421   .     S
C903   N921    1.370   .     A
C903   F941    1.354   .     S
C904   N921    1.404   .     A
C904   C942    1.518   .     S
C905   H916    1.082   .     S
C905   N922    1.343   .     A
C905   C972    1.415   .     S
C906   O927    1.285   .     A
C906   O928    1.287   .     A
C907   O929    1.299   .     A
C907   O930    1.299   .     A
C907   C909    1.456   .     S
C910   F950    1.354   .     S
C910   C299    1.388   1_556 S
C911   C912    1.390   .     A
C911   H919    1.082   .     S
C912   F951    1.357   .     S
H917   C296    1.083   1_556 S
N921   Zn931   2.026   .     S
N922   Zn932   2.026   .     S
O923   Zn931   1.991   .     S
O924   Zn932   1.969   .     S
O925   Zn931   1.948   .     S
O926   Zn932   1.895   .     S
O927   Zn931   1.969   .     S
O928   Zn932   1.991   .     S
O929   Zn931   1.895   .     S
O930   Zn932   1.948   .     S
C933   H939    1.112   .     S
C933   C934    1.528   .     S
C933   H938    1.106   .     S
C934   H936    1.111   .     S
C934   H937    1.110   .     S
H935   C1138   1.110   .     S
C942   H947    1.097   .     S
C942   C943    1.524   .     S
C943   H945    1.100   .     S
C943   H946    1.111   .     S
H944   C1011   1.111   .     S
H948   C1010   1.113   .     S
C953   C969    1.406   .     S
C953   O991    1.289   .     A
C953   O992    1.283   .     A
C954   C955    1.408   .     A
C954   C344    1.413   1_556 S
C954   C368    1.421   1_556 S
C955   C959    1.419   .     A
C955   C962    1.417   .     A
C956   C960    1.390   .     A
C957   C958    1.396   .     A
C957   C344    1.418   1_556 S
C957   C364    1.408   1_556 S
C958   C959    1.393   .     A
C958   F1017   1.359   .     S
C959   F1020   1.357   .     S
C960   C977    1.389   .     A
C960   H986    1.080   .     S
C961   C976    1.397   .     A
C961   H981    1.083   .     S
C961   C977    1.400   .     A
C962   C978    1.407   .     A
C962   C964    1.471   .     S
C963   H988    1.080   .     S
C963   C969    1.390   .     A
C963   C1169   1.382   .     S
C964   O994    1.300   .     A
C964   O993    1.302   .     A
C965   C966    1.411   .     A
C965   C1001   1.521   .     S
C966   C974    1.406   .     S
C966   C967    1.394   .     A
C967   H982    1.085   .     S
C968   F1008   1.359   .     S
C968   C969    1.392   .     A
C968   C1171   1.370   .     S
C970   N990    1.368   .     A
C970   H983    1.082   .     S
C970   C835    1.421   1_655 S
C971   N989    1.370   .     A
C971   F1009   1.354   .     S
C972   N989    1.404   .     A
C972   C1010   1.518   .     S
C973   H984    1.082   .     S
C973   N990    1.343   .     A
C973   C836    1.415   1_655 S
C974   O995    1.285   .     A
C974   O996    1.287   .     A
C975   O997    1.299   .     A
C975   O998    1.299   .     A
C975   C977    1.456   .     S
C978   F1018   1.354   .     S
C978   C367    1.388   1_556 S
C979   C980    1.390   .     A
C979   H987    1.082   .     S
C980   F1019   1.357   .     S
H985   C364    1.083   1_556 S
N989   Zn999   2.026   .     S
N990   Zn1000  2.026   .     S
O991   Zn999   1.991   .     S
O992   Zn1000  1.969   .     S
O993   Zn999   1.948   .     S
O994   Zn1000  1.895   .     S
O995   Zn999   1.969   .     S
O996   Zn1000  1.991   .     S
O997   Zn999   1.895   .     S
O998   Zn1000  1.948   .     S
C1001  H1007   1.112   .     S
C1001  C1002   1.528   .     S
C1001  H1006   1.106   .     S
C1002  H1004   1.111   .     S
C1002  H1005   1.110   .     S
H1003  C1206   1.110   .     S
C1010  H1015   1.097   .     S
C1010  C1011   1.524   .     S
C1011  H1013   1.100   .     S
C1011  H1014   1.111   .     S
H1012  C875    1.111   1_655 S
H1016  C874    1.113   1_655 S
C1021  C1037   1.406   .     S
C1021  O1059   1.289   .     A
C1021  O1060   1.283   .     A
C1022  C1023   1.408   .     A
C1022  C412    1.413   1_556 S
C1022  C436    1.421   1_556 S
C1023  C1027   1.419   .     A
C1023  C1030   1.417   .     A
C1024  C1028   1.390   .     A
C1025  C1026   1.396   .     A
C1025  C412    1.418   1_556 S
C1025  C432    1.408   1_556 S
C1026  C1027   1.393   .     A
C1026  F1085   1.359   .     S
C1027  F1088   1.357   .     S
C1028  C1045   1.389   .     A
C1028  H1054   1.080   .     S
C1029  C1044   1.397   .     A
C1029  H1049   1.083   .     S
C1029  C1045   1.400   .     A
C1030  C1046   1.407   .     A
C1030  C1032   1.471   .     S
C1031  H1056   1.080   .     S
C1031  C1037   1.390   .     A
C1031  C625    1.382   1_565 S
C1032  O1062   1.300   .     A
C1032  O1061   1.302   .     A
C1033  C1034   1.411   .     A
C1033  C1069   1.521   .     S
C1034  C1042   1.406   .     S
C1034  C1035   1.394   .     A
C1035  H1050   1.085   .     S
C1036  F1076   1.359   .     S
C1036  C1037   1.392   .     A
C1036  C627    1.370   1_565 S
C1038  N1058   1.368   .     A
C1038  H1051   1.082   .     S
C1038  C1107   1.421   .     S
C1039  N1057   1.370   .     A
C1039  F1077   1.354   .     S
C1039  C1174   1.421   1_455 S
C1040  N1057   1.404   .     A
C1040  C1078   1.518   .     S
C1040  C1177   1.415   1_455 S
C1041  H1052   1.082   .     S
C1041  N1058   1.343   .     A
C1041  C1108   1.415   .     S
C1042  O1063   1.285   .     A
C1042  O1064   1.287   .     A
C1043  O1065   1.299   .     A
C1043  O1066   1.299   .     A
C1043  C1045   1.456   .     S
C1046  F1086   1.354   .     S
C1046  C435    1.388   1_556 S
C1047  C1048   1.390   .     A
C1047  H1055   1.082   .     S
C1048  F1087   1.357   .     S
H1053  C432    1.083   1_556 S
N1057  Zn1067  2.026   .     S
N1058  Zn1068  2.026   .     S
O1059  Zn1067  1.991   .     S
O1060  Zn1068  1.969   .     S
O1061  Zn1067  1.948   .     S
O1062  Zn1068  1.895   .     S
O1063  Zn1067  1.969   .     S
O1064  Zn1068  1.991   .     S
O1065  Zn1067  1.895   .     S
O1066  Zn1068  1.948   .     S
C1069  H1075   1.112   .     S
C1069  C1070   1.528   .     S
C1069  H1074   1.106   .     S
C1070  H1072   1.111   .     S
C1070  H1073   1.110   .     S
H1071  C662    1.110   1_565 S
C1078  H1083   1.097   .     S
C1078  C1079   1.524   .     S
C1078  H1220   1.113   1_455 S
C1079  H1081   1.100   .     S
C1079  H1082   1.111   .     S
C1079  H1216   1.111   1_455 S
H1080  C1147   1.111   .     S
H1084  C1146   1.113   .     S
C1089  C1105   1.406   .     S
C1089  O1127   1.289   .     A
C1089  O1128   1.283   .     A
C1090  C1091   1.408   .     A
C1090  C480    1.413   1_556 S
C1090  C504    1.421   1_556 S
C1091  C1095   1.419   .     A
C1091  C1098   1.417   .     A
C1092  C1096   1.390   .     A
C1093  C1094   1.396   .     A
C1093  C480    1.418   1_556 S
C1093  C500    1.408   1_556 S
C1094  C1095   1.393   .     A
C1094  F1153   1.359   .     S
C1095  F1156   1.357   .     S
C1096  C1113   1.389   .     A
C1096  H1122   1.080   .     S
C1097  C1112   1.397   .     A
C1097  H1117   1.083   .     S
C1097  C1113   1.400   .     A
C1098  C1114   1.407   .     A
C1098  C1100   1.471   .     S
C1099  H1124   1.080   .     S
C1099  C1105   1.390   .     A
C1099  C693    1.382   1_565 S
C1100  O1130   1.300   .     A
C1100  O1129   1.302   .     A
C1101  C1102   1.411   .     A
C1101  C1137   1.521   .     S
C1102  C1110   1.406   .     S
C1102  C1103   1.394   .     A
C1103  H1118   1.085   .     S
C1104  F1144   1.359   .     S
C1104  C1105   1.392   .     A
C1104  C695    1.370   1_565 S
C1106  N1126   1.368   .     A
C1106  H1119   1.082   .     S
C1106  C1175   1.421   .     S
C1107  N1125   1.370   .     A
C1107  F1145   1.354   .     S
C1108  N1125   1.404   .     A
C1108  C1146   1.518   .     S
C1109  H1120   1.082   .     S
C1109  N1126   1.343   .     A
C1109  C1176   1.415   .     S
C1110  O1131   1.285   .     A
C1110  O1132   1.287   .     A
C1111  O1133   1.299   .     A
C1111  O1134   1.299   .     A
C1111  C1113   1.456   .     S
C1114  F1154   1.354   .     S
C1114  C503    1.388   1_556 S
C1115  C1116   1.390   .     A
C1115  H1123   1.082   .     S
C1116  F1155   1.357   .     S
H1121  C500    1.083   1_556 S
N1125  Zn1135  2.026   .     S
N1126  Zn1136  2.026   .     S
O1127  Zn1135  1.991   .     S
O1128  Zn1136  1.969   .     S
O1129  Zn1135  1.948   .     S
O1130  Zn1136  1.895   .     S
O1131  Zn1135  1.969   .     S
O1132  Zn1136  1.991   .     S
O1133  Zn1135  1.895   .     S
O1134  Zn1136  1.948   .     S
C1137  H1143   1.112   .     S
C1137  C1138   1.528   .     S
C1137  H1142   1.106   .     S
C1138  H1140   1.111   .     S
C1138  H1141   1.110   .     S
H1139  C730    1.110   1_565 S
C1146  H1151   1.097   .     S
C1146  C1147   1.524   .     S
C1147  H1149   1.100   .     S
C1147  H1150   1.111   .     S
H1148  C1215   1.111   .     S
H1152  C1214   1.113   .     S
C1157  C1173   1.406   .     S
C1157  O1195   1.289   .     A
C1157  O1196   1.283   .     A
C1158  C1159   1.408   .     A
C1158  C548    1.413   1_556 S
C1158  C572    1.421   1_556 S
C1159  C1163   1.419   .     A
C1159  C1166   1.417   .     A
C1160  C1164   1.390   .     A
C1161  C1162   1.396   .     A
C1161  C548    1.418   1_556 S
C1161  C568    1.408   1_556 S
C1162  C1163   1.393   .     A
C1162  F1221   1.359   .     S
C1163  F1224   1.357   .     S
C1164  C1181   1.389   .     A
C1164  H1190   1.080   .     S
C1165  C1180   1.397   .     A
C1165  H1185   1.083   .     S
C1165  C1181   1.400   .     A
C1166  C1182   1.407   .     A
C1166  C1168   1.471   .     S
C1167  H1192   1.080   .     S
C1167  C1173   1.390   .     A
C1167  C761    1.382   1_565 S
C1168  O1198   1.300   .     A
C1168  O1197   1.302   .     A
C1169  C1170   1.411   .     A
C1169  C1205   1.521   .     S
C1170  C1178   1.406   .     S
C1170  C1171   1.394   .     A
C1171  H1186   1.085   .     S
C1172  F1212   1.359   .     S
C1172  C1173   1.392   .     A
C1172  C763    1.370   1_565 S
C1174  N1194   1.368   .     A
C1174  H1187   1.082   .     S
C1174  C1039   1.421   1_655 S
C1175  N1193   1.370   .     A
C1175  F1213   1.354   .     S
C1176  N1193   1.404   .     A
C1176  C1214   1.518   .     S
C1177  H1188   1.082   .     S
C1177  N1194   1.343   .     A
C1177  C1040   1.415   1_655 S
C1178  O1199   1.285   .     A
C1178  O1200   1.287   .     A
C1179  O1201   1.299   .     A
C1179  O1202   1.299   .     A
C1179  C1181   1.456   .     S
C1182  F1222   1.354   .     S
C1182  C571    1.388   1_556 S
C1183  C1184   1.390   .     A
C1183  H1191   1.082   .     S
C1184  F1223   1.357   .     S
H1189  C568    1.083   1_556 S
N1193  Zn1203  2.026   .     S
N1194  Zn1204  2.026   .     S
O1195  Zn1203  1.991   .     S
O1196  Zn1204  1.969   .     S
O1197  Zn1203  1.948   .     S
O1198  Zn1204  1.895   .     S
O1199  Zn1203  1.969   .     S
O1200  Zn1204  1.991   .     S
O1201  Zn1203  1.895   .     S
O1202  Zn1204  1.948   .     S
C1205  H1211   1.112   .     S
C1205  C1206   1.528   .     S
C1205  H1210   1.106   .     S
C1206  H1208   1.111   .     S
C1206  H1209   1.110   .     S
H1207  C798    1.110   1_565 S
C1214  H1219   1.097   .     S
C1214  C1215   1.524   .     S
C1215  H1217   1.100   .     S
C1215  H1218   1.111   .     S
H1216  C1079   1.111   1_655 S
H1220  C1078   1.113   1_655 S
