data_str_m3_o2_o10_pcu_sym.57
_audit_creation_date              2020-01-03
_audit_creation_method            'Materials Studio'
_symmetry_space_group_name_H-M    'P1'
_symmetry_Int_Tables_number       1
_symmetry_cell_setting            triclinic
loop_
_symmetry_equiv_pos_as_xyz
  x,y,z
_cell_length_a                    25.6553
_cell_length_b                    30.1494
_cell_length_c                    28.6744
_cell_angle_alpha                 89.2785
_cell_angle_beta                  97.7603
_cell_angle_gamma                 92.1015
loop_
_atom_site_label
_atom_site_type_symbol
_atom_site_fract_x
_atom_site_fract_y
_atom_site_fract_z
_atom_site_U_iso_or_equiv
_atom_site_adp_type
_atom_site_occupancy
C1     C     0.16839   0.16395   0.25057   0.00000  Uiso   1.00
C2     C     0.12588   0.22840   0.44281   0.00000  Uiso   1.00
C3     C     0.16644   0.25016   0.02647   0.00000  Uiso   1.00
C4     C     0.16663   0.25008   0.47334   0.00000  Uiso   1.00
C5     C     0.06726   0.24873   0.23798   0.00000  Uiso   1.00
C6     C     0.26611   0.25072   0.26214   0.00000  Uiso   1.00
C7     C     0.01244   0.24381   0.23252   0.00000  Uiso   1.00
C8     C     0.32108   0.25456   0.26817   0.00000  Uiso   1.00
C9     C     0.13572   0.04661   0.28149   0.00000  Uiso   1.00
C10    C     0.13397   0.45168   0.20374   0.00000  Uiso   1.00
C11    C     0.14896   0.09141   0.28785   0.00000  Uiso   1.00
C12    C     0.16423   0.33604   0.24945   0.00000  Uiso   1.00
C13    C     0.13812   0.40551   0.20488   0.00000  Uiso   1.00
C14    C     0.16934   0.11561   0.25134   0.00000  Uiso   1.00
C15    C     0.15709   0.38398   0.24797   0.00000  Uiso   1.00
C16    C     0.18642   0.09298   0.21354   0.00000  Uiso   1.00
C17    C     0.16978   0.40910   0.28950   0.00000  Uiso   1.00
C18    C     0.17918   0.04719   0.21103   0.00000  Uiso   1.00
C19    C     0.17101   0.45470   0.28639   0.00000  Uiso   1.00
C20    C     0.15369   0.02418   0.24442   0.00000  Uiso   1.00
C21    C     0.15240   0.47607   0.24444   0.00000  Uiso   1.00
C22    C     0.05629   0.01979   0.29749   0.00000  Uiso   1.00
C23    C     0.12017   0.25712   0.04678   0.00000  Uiso   1.00
C24    C     0.06307   0.48628   0.16454   0.00000  Uiso   1.00
C25    C     0.19165   0.11381   0.36428   0.00000  Uiso   1.00
C26    C     0.06972   0.36103   0.15918   0.00000  Uiso   1.00
C27    C     0.26671   0.12917   0.19480   0.00000  Uiso   1.00
C28    C     0.13485   0.38075   0.35808   0.00000  Uiso   1.00
C29    C     0.07193   0.31201   0.01004   0.00000  Uiso   1.00
C30    C     0.23055   0.33677   0.49019   0.00000  Uiso   1.00
C31    C     0.05830   0.19452   0.11451   0.00000  Uiso   1.00
C32    C     0.27457   0.31769   0.37510   0.00000  Uiso   1.00
C33    C     0.27240   0.30742   0.13964   0.00000  Uiso   1.00
C34    C     0.20756   0.27162   0.45207   0.00000  Uiso   1.00
C35    C     0.05860   0.18290   0.35043   0.00000  Uiso   1.00
C36    C     0.26095   0.18733   0.03684   0.00000  Uiso   1.00
C37    C     0.10327   0.16322   0.47728   0.00000  Uiso   1.00
C38    C     0.12025   0.25066   0.09589   0.00000  Uiso   1.00
C39    C     0.20979   0.26632   0.40329   0.00000  Uiso   1.00
C40    C     0.21279   0.24990   0.10684   0.00000  Uiso   1.00
C41    C     0.12361   0.23371   0.39341   0.00000  Uiso   1.00
C42    C     0.21266   0.24319   0.05800   0.00000  Uiso   1.00
H43    H     0.32600   0.22959   0.20021   0.00000  Uiso   1.00
H44    H     0.04311   0.49154   0.12822   0.00000  Uiso   1.00
H45    H     0.11215   0.09883   0.34741   0.00000  Uiso   1.00
H46    H     0.20329   0.07995   0.37629   0.00000  Uiso   1.00
H47    H     0.18553   0.13364   0.39530   0.00000  Uiso   1.00
H48    H     0.22404   0.13025   0.34762   0.00000  Uiso   1.00
H49    H     0.12954   0.39691   0.13229   0.00000  Uiso   1.00
H50    H     0.03994   0.38701   0.15353   0.00000  Uiso   1.00
H51    H     0.06421   0.34175   0.19151   0.00000  Uiso   1.00
H52    H     0.06342   0.33811   0.12883   0.00000  Uiso   1.00
H53    H     0.20830   0.10016   0.14671   0.00000  Uiso   1.00
H54    H     0.00767   0.26787   0.30110   0.00000  Uiso   1.00
H55    H     0.29090   0.09949   0.20276   0.00000  Uiso   1.00
H56    H     0.26959   0.15008   0.22671   0.00000  Uiso   1.00
H57    H     0.28266   0.14899   0.16672   0.00000  Uiso   1.00
H58    H     0.21086   0.40532   0.35654   0.00000  Uiso   1.00
H59    H     0.10402   0.36148   0.33500   0.00000  Uiso   1.00
H60    H     0.14569   0.36106   0.39065   0.00000  Uiso   1.00
H61    H     0.11861   0.41261   0.36750   0.00000  Uiso   1.00
H62    H     0.10289   0.32312   0.48838   0.00000  Uiso   1.00
H63    H     0.07584   0.33125   0.04329   0.00000  Uiso   1.00
H64    H     0.03325   0.31937   0.48969   0.00000  Uiso   1.00
H65    H     0.19470   0.02938   0.18363   0.00000  Uiso   1.00
H66    H     0.20313   0.33349   0.01694   0.00000  Uiso   1.00
H67    H     0.21166   0.35484   0.45866   0.00000  Uiso   1.00
H68    H     0.26506   0.35738   0.00581   0.00000  Uiso   1.00
H69    H     0.04085   0.25959   0.09642   0.00000  Uiso   1.00
H70    H     0.09031   0.17660   0.13601   0.00000  Uiso   1.00
H71    H     0.02189   0.18901   0.13092   0.00000  Uiso   1.00
H72    H     0.05179   0.18060   0.07840   0.00000  Uiso   1.00
H73    H     0.28922   0.25734   0.40797   0.00000  Uiso   1.00
H74    H     0.27441   0.34014   0.40536   0.00000  Uiso   1.00
H75    H     0.24818   0.32967   0.34443   0.00000  Uiso   1.00
H76    H     0.18551   0.47363   0.31766   0.00000  Uiso   1.00
H77    H     0.31501   0.31842   0.36526   0.00000  Uiso   1.00
H78    H     0.29250   0.24401   0.12490   0.00000  Uiso   1.00
H79    H     0.30748   0.31316   0.16617   0.00000  Uiso   1.00
H80    H     0.23891   0.32417   0.15185   0.00000  Uiso   1.00
H81    H     0.28035   0.32218   0.10546   0.00000  Uiso   1.00
H82    H     0.04424   0.24250   0.37984   0.00000  Uiso   1.00
H83    H     0.06411   0.15910   0.38030   0.00000  Uiso   1.00
H84    H     0.08118   0.17336   0.32230   0.00000  Uiso   1.00
H85    H     0.01637   0.18140   0.33531   0.00000  Uiso   1.00
H86    H     0.26011   0.17007   0.07131   0.00000  Uiso   1.00
H87    H     0.04928   0.49742   0.26660   0.00000  Uiso   1.00
H88    H     0.29843   0.17960   0.02397   0.00000  Uiso   1.00
H89    H     0.22833   0.17438   0.01045   0.00000  Uiso   1.00
H90    H     0.12900   0.16666   0.01149   0.00000  Uiso   1.00
H91    H     0.12414   0.14578   0.45168   0.00000  Uiso   1.00
H92    H     0.06869   0.14189   0.48351   0.00000  Uiso   1.00
H93    H     0.03911   0.05271   0.28844   0.00000  Uiso   1.00
H94    H     0.03534   0.00465   0.32547   0.00000  Uiso   1.00
H95    H     0.06407   0.01846   0.18307   0.00000  Uiso   1.00
H96    H     0.03879   0.46118   0.18171   0.00000  Uiso   1.00
N97    N     0.16667   0.24999   0.12623   0.00000  Uiso   1.00
N98    N     0.07386   0.22765   0.36537   0.00000  Uiso   1.00
N99    N     0.16667   0.25001   0.37376   0.00000  Uiso   1.00
N100   N     0.14344   0.11132   0.33161   0.00000  Uiso   1.00
N101   N     0.12226   0.38090   0.16287   0.00000  Uiso   1.00
N102   N     0.21254   0.11572   0.17892   0.00000  Uiso   1.00
N103   N     0.18097   0.38915   0.33480   0.00000  Uiso   1.00
N104   N     0.07158   0.24155   0.11277   0.00000  Uiso   1.00
N105   N     0.25936   0.27269   0.38673   0.00000  Uiso   1.00
N106   N     0.26121   0.26021   0.13477   0.00000  Uiso   1.00
O107   O     0.16667   0.18454   0.28974   0.00000  Uiso   1.00
O108   O     0.11462   0.47251   0.16194   0.00000  Uiso   1.00
O109   O     0.07330   0.26598   0.01899   0.00000  Uiso   1.00
O110   O     0.24835   0.29510   0.47854   0.00000  Uiso   1.00
O111   O     0.25921   0.23369   0.04157   0.00000  Uiso   1.00
O112   O     0.08520   0.20475   0.46004   0.00000  Uiso   1.00
O113   O     0.16666   0.31547   0.21026   0.00000  Uiso   1.00
O114   O     0.16667   0.18453   0.21026   0.00000  Uiso   1.00
O115   O     0.16666   0.31547   0.28974   0.00000  Uiso   1.00
O116   O     0.09058   0.25000   0.28044   0.00000  Uiso   1.00
O117   O     0.24275   0.25000   0.21955   0.00000  Uiso   1.00
O118   O     0.09058   0.25000   0.20096   0.00000  Uiso   1.00
O119   O     0.24275   0.25001   0.29903   0.00000  Uiso   1.00
O120   O     0.11035   0.02393   0.31473   0.00000  Uiso   1.00
Zn121  Zn    0.16667   0.25001   0.30307   0.00000  Uiso   1.00
Zn122  Zn    0.16667   0.25000   0.19693   0.00000  Uiso   1.00
C123   C     0.50172   0.16395   0.25057   0.00000  Uiso   1.00
C124   C     0.45922   0.22840   0.44281   0.00000  Uiso   1.00
C125   C     0.49978   0.25016   0.02647   0.00000  Uiso   1.00
C126   C     0.49996   0.25008   0.47334   0.00000  Uiso   1.00
C127   C     0.40060   0.24873   0.23798   0.00000  Uiso   1.00
C128   C     0.59945   0.25072   0.26214   0.00000  Uiso   1.00
C129   C     0.34577   0.24381   0.23252   0.00000  Uiso   1.00
C130   C     0.65441   0.25456   0.26817   0.00000  Uiso   1.00
C131   C     0.46905   0.04661   0.28149   0.00000  Uiso   1.00
C132   C     0.46731   0.45168   0.20374   0.00000  Uiso   1.00
C133   C     0.48230   0.09141   0.28785   0.00000  Uiso   1.00
C134   C     0.49756   0.33604   0.24945   0.00000  Uiso   1.00
C135   C     0.47145   0.40551   0.20488   0.00000  Uiso   1.00
C136   C     0.50267   0.11561   0.25134   0.00000  Uiso   1.00
C137   C     0.49042   0.38398   0.24797   0.00000  Uiso   1.00
C138   C     0.51975   0.09298   0.21354   0.00000  Uiso   1.00
C139   C     0.50311   0.40910   0.28950   0.00000  Uiso   1.00
C140   C     0.51251   0.04719   0.21103   0.00000  Uiso   1.00
C141   C     0.50435   0.45470   0.28639   0.00000  Uiso   1.00
C142   C     0.48702   0.02418   0.24442   0.00000  Uiso   1.00
C143   C     0.48573   0.47607   0.24444   0.00000  Uiso   1.00
C144   C     0.38962   0.01979   0.29749   0.00000  Uiso   1.00
C145   C     0.45350   0.25712   0.04678   0.00000  Uiso   1.00
C146   C     0.39641   0.48628   0.16454   0.00000  Uiso   1.00
C147   C     0.52499   0.11381   0.36428   0.00000  Uiso   1.00
C148   C     0.40305   0.36103   0.15918   0.00000  Uiso   1.00
C149   C     0.60004   0.12917   0.19480   0.00000  Uiso   1.00
C150   C     0.46818   0.38075   0.35808   0.00000  Uiso   1.00
C151   C     0.40526   0.31201   0.01004   0.00000  Uiso   1.00
C152   C     0.56389   0.33677   0.49019   0.00000  Uiso   1.00
C153   C     0.39163   0.19452   0.11451   0.00000  Uiso   1.00
C154   C     0.60791   0.31769   0.37510   0.00000  Uiso   1.00
C155   C     0.60574   0.30742   0.13964   0.00000  Uiso   1.00
C156   C     0.54090   0.27162   0.45207   0.00000  Uiso   1.00
C157   C     0.39194   0.18290   0.35043   0.00000  Uiso   1.00
C158   C     0.59428   0.18733   0.03684   0.00000  Uiso   1.00
C159   C     0.43660   0.16322   0.47728   0.00000  Uiso   1.00
C160   C     0.45358   0.25066   0.09589   0.00000  Uiso   1.00
C161   C     0.54313   0.26632   0.40329   0.00000  Uiso   1.00
C162   C     0.54613   0.24990   0.10684   0.00000  Uiso   1.00
C163   C     0.45695   0.23371   0.39341   0.00000  Uiso   1.00
C164   C     0.54600   0.24319   0.05800   0.00000  Uiso   1.00
H165   H     0.65934   0.22959   0.20021   0.00000  Uiso   1.00
H166   H     0.37644   0.49154   0.12822   0.00000  Uiso   1.00
H167   H     0.44549   0.09883   0.34741   0.00000  Uiso   1.00
H168   H     0.53663   0.07995   0.37629   0.00000  Uiso   1.00
H169   H     0.51886   0.13364   0.39530   0.00000  Uiso   1.00
H170   H     0.55737   0.13025   0.34762   0.00000  Uiso   1.00
H171   H     0.46288   0.39691   0.13229   0.00000  Uiso   1.00
H172   H     0.37327   0.38701   0.15353   0.00000  Uiso   1.00
H173   H     0.39754   0.34175   0.19151   0.00000  Uiso   1.00
H174   H     0.39676   0.33811   0.12883   0.00000  Uiso   1.00
H175   H     0.54163   0.10016   0.14671   0.00000  Uiso   1.00
H176   H     0.34101   0.26787   0.30110   0.00000  Uiso   1.00
H177   H     0.62423   0.09949   0.20276   0.00000  Uiso   1.00
H178   H     0.60293   0.15008   0.22671   0.00000  Uiso   1.00
H179   H     0.61599   0.14899   0.16672   0.00000  Uiso   1.00
H180   H     0.54420   0.40532   0.35654   0.00000  Uiso   1.00
H181   H     0.43735   0.36148   0.33500   0.00000  Uiso   1.00
H182   H     0.47902   0.36106   0.39065   0.00000  Uiso   1.00
H183   H     0.45194   0.41261   0.36750   0.00000  Uiso   1.00
H184   H     0.43622   0.32312   0.48838   0.00000  Uiso   1.00
H185   H     0.40917   0.33125   0.04329   0.00000  Uiso   1.00
H186   H     0.36658   0.31937   0.48969   0.00000  Uiso   1.00
H187   H     0.52803   0.02938   0.18363   0.00000  Uiso   1.00
H188   H     0.53647   0.33349   0.01694   0.00000  Uiso   1.00
H189   H     0.54499   0.35484   0.45866   0.00000  Uiso   1.00
H190   H     0.59839   0.35738   0.00581   0.00000  Uiso   1.00
H191   H     0.37418   0.25959   0.09642   0.00000  Uiso   1.00
H192   H     0.42364   0.17660   0.13601   0.00000  Uiso   1.00
H193   H     0.35522   0.18901   0.13092   0.00000  Uiso   1.00
H194   H     0.38512   0.18060   0.07840   0.00000  Uiso   1.00
H195   H     0.62256   0.25734   0.40797   0.00000  Uiso   1.00
H196   H     0.60774   0.34014   0.40536   0.00000  Uiso   1.00
H197   H     0.58151   0.32967   0.34443   0.00000  Uiso   1.00
H198   H     0.51885   0.47363   0.31766   0.00000  Uiso   1.00
H199   H     0.64834   0.31842   0.36526   0.00000  Uiso   1.00
H200   H     0.62583   0.24401   0.12490   0.00000  Uiso   1.00
H201   H     0.64082   0.31316   0.16617   0.00000  Uiso   1.00
H202   H     0.57224   0.32417   0.15185   0.00000  Uiso   1.00
H203   H     0.61368   0.32218   0.10546   0.00000  Uiso   1.00
H204   H     0.37757   0.24250   0.37984   0.00000  Uiso   1.00
H205   H     0.39744   0.15910   0.38030   0.00000  Uiso   1.00
H206   H     0.41451   0.17336   0.32230   0.00000  Uiso   1.00
H207   H     0.34970   0.18140   0.33531   0.00000  Uiso   1.00
H208   H     0.59344   0.17007   0.07131   0.00000  Uiso   1.00
H209   H     0.38261   0.49742   0.26660   0.00000  Uiso   1.00
H210   H     0.63176   0.17960   0.02397   0.00000  Uiso   1.00
H211   H     0.56166   0.17438   0.01045   0.00000  Uiso   1.00
H212   H     0.46234   0.16666   0.01149   0.00000  Uiso   1.00
H213   H     0.45747   0.14578   0.45168   0.00000  Uiso   1.00
H214   H     0.40202   0.14189   0.48351   0.00000  Uiso   1.00
H215   H     0.37244   0.05271   0.28844   0.00000  Uiso   1.00
H216   H     0.36867   0.00465   0.32547   0.00000  Uiso   1.00
H217   H     0.39741   0.01846   0.18307   0.00000  Uiso   1.00
H218   H     0.37213   0.46118   0.18171   0.00000  Uiso   1.00
N219   N     0.50000   0.24999   0.12623   0.00000  Uiso   1.00
N220   N     0.40719   0.22765   0.36537   0.00000  Uiso   1.00
N221   N     0.50000   0.25001   0.37376   0.00000  Uiso   1.00
N222   N     0.47678   0.11132   0.33161   0.00000  Uiso   1.00
N223   N     0.45559   0.38090   0.16287   0.00000  Uiso   1.00
N224   N     0.54588   0.11572   0.17892   0.00000  Uiso   1.00
N225   N     0.51431   0.38915   0.33480   0.00000  Uiso   1.00
N226   N     0.40492   0.24155   0.11277   0.00000  Uiso   1.00
N227   N     0.59270   0.27269   0.38673   0.00000  Uiso   1.00
N228   N     0.59454   0.26021   0.13477   0.00000  Uiso   1.00
O229   O     0.50000   0.18454   0.28974   0.00000  Uiso   1.00
O230   O     0.44795   0.47251   0.16194   0.00000  Uiso   1.00
O231   O     0.40663   0.26598   0.01899   0.00000  Uiso   1.00
O232   O     0.58169   0.29510   0.47854   0.00000  Uiso   1.00
O233   O     0.59255   0.23369   0.04157   0.00000  Uiso   1.00
O234   O     0.41853   0.20475   0.46004   0.00000  Uiso   1.00
O235   O     0.50000   0.31547   0.21026   0.00000  Uiso   1.00
O236   O     0.50000   0.18453   0.21026   0.00000  Uiso   1.00
O237   O     0.50000   0.31547   0.28974   0.00000  Uiso   1.00
O238   O     0.42392   0.25000   0.28044   0.00000  Uiso   1.00
O239   O     0.57608   0.25000   0.21955   0.00000  Uiso   1.00
O240   O     0.42392   0.25000   0.20096   0.00000  Uiso   1.00
O241   O     0.57608   0.25001   0.29903   0.00000  Uiso   1.00
O242   O     0.44368   0.02393   0.31473   0.00000  Uiso   1.00
Zn243  Zn    0.50000   0.25001   0.30307   0.00000  Uiso   1.00
Zn244  Zn    0.50000   0.25000   0.19693   0.00000  Uiso   1.00
C245   C     0.83506   0.16395   0.25057   0.00000  Uiso   1.00
C246   C     0.79255   0.22840   0.44281   0.00000  Uiso   1.00
C247   C     0.83311   0.25016   0.02647   0.00000  Uiso   1.00
C248   C     0.83329   0.25008   0.47334   0.00000  Uiso   1.00
C249   C     0.73393   0.24873   0.23798   0.00000  Uiso   1.00
C250   C     0.93278   0.25072   0.26214   0.00000  Uiso   1.00
C251   C     0.67911   0.24381   0.23252   0.00000  Uiso   1.00
C252   C     0.98775   0.25456   0.26817   0.00000  Uiso   1.00
C253   C     0.80239   0.04661   0.28149   0.00000  Uiso   1.00
C254   C     0.80064   0.45168   0.20374   0.00000  Uiso   1.00
C255   C     0.81563   0.09141   0.28785   0.00000  Uiso   1.00
C256   C     0.83090   0.33604   0.24945   0.00000  Uiso   1.00
C257   C     0.80479   0.40551   0.20488   0.00000  Uiso   1.00
C258   C     0.83601   0.11561   0.25134   0.00000  Uiso   1.00
C259   C     0.82375   0.38398   0.24797   0.00000  Uiso   1.00
C260   C     0.85309   0.09298   0.21354   0.00000  Uiso   1.00
C261   C     0.83645   0.40910   0.28950   0.00000  Uiso   1.00
C262   C     0.84585   0.04719   0.21103   0.00000  Uiso   1.00
C263   C     0.83768   0.45470   0.28639   0.00000  Uiso   1.00
C264   C     0.82035   0.02418   0.24442   0.00000  Uiso   1.00
C265   C     0.81906   0.47607   0.24444   0.00000  Uiso   1.00
C266   C     0.72296   0.01979   0.29749   0.00000  Uiso   1.00
C267   C     0.78684   0.25712   0.04678   0.00000  Uiso   1.00
C268   C     0.72974   0.48628   0.16454   0.00000  Uiso   1.00
C269   C     0.85832   0.11381   0.36428   0.00000  Uiso   1.00
C270   C     0.73639   0.36103   0.15918   0.00000  Uiso   1.00
C271   C     0.93338   0.12917   0.19480   0.00000  Uiso   1.00
C272   C     0.80151   0.38075   0.35808   0.00000  Uiso   1.00
C273   C     0.73860   0.31201   0.01004   0.00000  Uiso   1.00
C274   C     0.89722   0.33677   0.49019   0.00000  Uiso   1.00
C275   C     0.72497   0.19452   0.11451   0.00000  Uiso   1.00
C276   C     0.94124   0.31769   0.37510   0.00000  Uiso   1.00
C277   C     0.93907   0.30742   0.13964   0.00000  Uiso   1.00
C278   C     0.87423   0.27162   0.45207   0.00000  Uiso   1.00
C279   C     0.72527   0.18290   0.35043   0.00000  Uiso   1.00
C280   C     0.92761   0.18733   0.03684   0.00000  Uiso   1.00
C281   C     0.76994   0.16322   0.47728   0.00000  Uiso   1.00
C282   C     0.78691   0.25066   0.09589   0.00000  Uiso   1.00
C283   C     0.87646   0.26632   0.40329   0.00000  Uiso   1.00
C284   C     0.87946   0.24990   0.10684   0.00000  Uiso   1.00
C285   C     0.79028   0.23371   0.39341   0.00000  Uiso   1.00
C286   C     0.87933   0.24319   0.05800   0.00000  Uiso   1.00
H287   H     0.99267   0.22959   0.20021   0.00000  Uiso   1.00
H288   H     0.70977   0.49154   0.12822   0.00000  Uiso   1.00
H289   H     0.77882   0.09883   0.34741   0.00000  Uiso   1.00
H290   H     0.86996   0.07995   0.37629   0.00000  Uiso   1.00
H291   H     0.85219   0.13364   0.39530   0.00000  Uiso   1.00
H292   H     0.89071   0.13025   0.34762   0.00000  Uiso   1.00
H293   H     0.79621   0.39691   0.13229   0.00000  Uiso   1.00
H294   H     0.70661   0.38701   0.15353   0.00000  Uiso   1.00
H295   H     0.73087   0.34175   0.19151   0.00000  Uiso   1.00
H296   H     0.73009   0.33811   0.12883   0.00000  Uiso   1.00
H297   H     0.87496   0.10016   0.14671   0.00000  Uiso   1.00
H298   H     0.67434   0.26787   0.30110   0.00000  Uiso   1.00
H299   H     0.95757   0.09949   0.20276   0.00000  Uiso   1.00
H300   H     0.93626   0.15008   0.22671   0.00000  Uiso   1.00
H301   H     0.94933   0.14899   0.16672   0.00000  Uiso   1.00
H302   H     0.87753   0.40532   0.35654   0.00000  Uiso   1.00
H303   H     0.77068   0.36148   0.33500   0.00000  Uiso   1.00
H304   H     0.81236   0.36106   0.39065   0.00000  Uiso   1.00
H305   H     0.78528   0.41261   0.36750   0.00000  Uiso   1.00
H306   H     0.76956   0.32312   0.48838   0.00000  Uiso   1.00
H307   H     0.74250   0.33125   0.04329   0.00000  Uiso   1.00
H308   H     0.69992   0.31937   0.48969   0.00000  Uiso   1.00
H309   H     0.86137   0.02938   0.18363   0.00000  Uiso   1.00
H310   H     0.86980   0.33349   0.01694   0.00000  Uiso   1.00
H311   H     0.87832   0.35484   0.45866   0.00000  Uiso   1.00
H312   H     0.93173   0.35738   0.00581   0.00000  Uiso   1.00
H313   H     0.70752   0.25959   0.09642   0.00000  Uiso   1.00
H314   H     0.75697   0.17660   0.13601   0.00000  Uiso   1.00
H315   H     0.68855   0.18901   0.13092   0.00000  Uiso   1.00
H316   H     0.71845   0.18060   0.07840   0.00000  Uiso   1.00
H317   H     0.95589   0.25734   0.40797   0.00000  Uiso   1.00
H318   H     0.94107   0.34014   0.40536   0.00000  Uiso   1.00
H319   H     0.91484   0.32967   0.34443   0.00000  Uiso   1.00
H320   H     0.85218   0.47363   0.31766   0.00000  Uiso   1.00
H321   H     0.98167   0.31842   0.36526   0.00000  Uiso   1.00
H322   H     0.95916   0.24401   0.12490   0.00000  Uiso   1.00
H323   H     0.97415   0.31316   0.16617   0.00000  Uiso   1.00
H324   H     0.90558   0.32417   0.15185   0.00000  Uiso   1.00
H325   H     0.94701   0.32218   0.10546   0.00000  Uiso   1.00
H326   H     0.71090   0.24250   0.37984   0.00000  Uiso   1.00
H327   H     0.73078   0.15910   0.38030   0.00000  Uiso   1.00
H328   H     0.74785   0.17336   0.32230   0.00000  Uiso   1.00
H329   H     0.68304   0.18140   0.33531   0.00000  Uiso   1.00
H330   H     0.92678   0.17007   0.07131   0.00000  Uiso   1.00
H331   H     0.71595   0.49742   0.26660   0.00000  Uiso   1.00
H332   H     0.96510   0.17960   0.02397   0.00000  Uiso   1.00
H333   H     0.89499   0.17438   0.01045   0.00000  Uiso   1.00
H334   H     0.79567   0.16666   0.01149   0.00000  Uiso   1.00
H335   H     0.79081   0.14578   0.45168   0.00000  Uiso   1.00
H336   H     0.73536   0.14189   0.48351   0.00000  Uiso   1.00
H337   H     0.70577   0.05271   0.28844   0.00000  Uiso   1.00
H338   H     0.70200   0.00465   0.32547   0.00000  Uiso   1.00
H339   H     0.73074   0.01846   0.18307   0.00000  Uiso   1.00
H340   H     0.70546   0.46118   0.18171   0.00000  Uiso   1.00
N341   N     0.83333   0.24999   0.12623   0.00000  Uiso   1.00
N342   N     0.74053   0.22765   0.36537   0.00000  Uiso   1.00
N343   N     0.83333   0.25001   0.37376   0.00000  Uiso   1.00
N344   N     0.81011   0.11132   0.33161   0.00000  Uiso   1.00
N345   N     0.78893   0.38090   0.16287   0.00000  Uiso   1.00
N346   N     0.87921   0.11572   0.17892   0.00000  Uiso   1.00
N347   N     0.84764   0.38915   0.33480   0.00000  Uiso   1.00
N348   N     0.73825   0.24155   0.11277   0.00000  Uiso   1.00
N349   N     0.92603   0.27269   0.38673   0.00000  Uiso   1.00
N350   N     0.92788   0.26021   0.13477   0.00000  Uiso   1.00
O351   O     0.83334   0.18454   0.28974   0.00000  Uiso   1.00
O352   O     0.78129   0.47251   0.16194   0.00000  Uiso   1.00
O353   O     0.73996   0.26598   0.01899   0.00000  Uiso   1.00
O354   O     0.91502   0.29510   0.47854   0.00000  Uiso   1.00
O355   O     0.92588   0.23369   0.04157   0.00000  Uiso   1.00
O356   O     0.75187   0.20475   0.46004   0.00000  Uiso   1.00
O357   O     0.83333   0.31547   0.21026   0.00000  Uiso   1.00
O358   O     0.83334   0.18453   0.21026   0.00000  Uiso   1.00
O359   O     0.83333   0.31547   0.28974   0.00000  Uiso   1.00
O360   O     0.75725   0.25000   0.28044   0.00000  Uiso   1.00
O361   O     0.90942   0.25000   0.21955   0.00000  Uiso   1.00
O362   O     0.75725   0.25000   0.20096   0.00000  Uiso   1.00
O363   O     0.90942   0.25001   0.29903   0.00000  Uiso   1.00
O364   O     0.77701   0.02393   0.31473   0.00000  Uiso   1.00
Zn365  Zn    0.83333   0.25001   0.30307   0.00000  Uiso   1.00
Zn366  Zn    0.83333   0.25000   0.19693   0.00000  Uiso   1.00
C367   C     0.16839   0.66395   0.25057   0.00000  Uiso   1.00
C368   C     0.12588   0.72840   0.44281   0.00000  Uiso   1.00
C369   C     0.16644   0.75016   0.02647   0.00000  Uiso   1.00
C370   C     0.16663   0.75008   0.47334   0.00000  Uiso   1.00
C371   C     0.06726   0.74873   0.23798   0.00000  Uiso   1.00
C372   C     0.26611   0.75072   0.26214   0.00000  Uiso   1.00
C373   C     0.01244   0.74381   0.23252   0.00000  Uiso   1.00
C374   C     0.32108   0.75456   0.26817   0.00000  Uiso   1.00
C375   C     0.13572   0.54661   0.28149   0.00000  Uiso   1.00
C376   C     0.13397   0.95168   0.20374   0.00000  Uiso   1.00
C377   C     0.14896   0.59141   0.28785   0.00000  Uiso   1.00
C378   C     0.16423   0.83604   0.24945   0.00000  Uiso   1.00
C379   C     0.13812   0.90551   0.20488   0.00000  Uiso   1.00
C380   C     0.16934   0.61561   0.25134   0.00000  Uiso   1.00
C381   C     0.15709   0.88398   0.24797   0.00000  Uiso   1.00
C382   C     0.18642   0.59298   0.21354   0.00000  Uiso   1.00
C383   C     0.16978   0.90910   0.28950   0.00000  Uiso   1.00
C384   C     0.17918   0.54719   0.21103   0.00000  Uiso   1.00
C385   C     0.17101   0.95470   0.28639   0.00000  Uiso   1.00
C386   C     0.15369   0.52418   0.24442   0.00000  Uiso   1.00
C387   C     0.15240   0.97607   0.24444   0.00000  Uiso   1.00
C388   C     0.05629   0.51979   0.29749   0.00000  Uiso   1.00
C389   C     0.12017   0.75712   0.04678   0.00000  Uiso   1.00
C390   C     0.06307   0.98628   0.16454   0.00000  Uiso   1.00
C391   C     0.19165   0.61381   0.36428   0.00000  Uiso   1.00
C392   C     0.06972   0.86103   0.15918   0.00000  Uiso   1.00
C393   C     0.26671   0.62917   0.19480   0.00000  Uiso   1.00
C394   C     0.13485   0.88075   0.35808   0.00000  Uiso   1.00
C395   C     0.07193   0.81201   0.01004   0.00000  Uiso   1.00
C396   C     0.23055   0.83677   0.49019   0.00000  Uiso   1.00
C397   C     0.05830   0.69452   0.11451   0.00000  Uiso   1.00
C398   C     0.27457   0.81769   0.37510   0.00000  Uiso   1.00
C399   C     0.27240   0.80742   0.13964   0.00000  Uiso   1.00
C400   C     0.20756   0.77162   0.45207   0.00000  Uiso   1.00
C401   C     0.05860   0.68290   0.35043   0.00000  Uiso   1.00
C402   C     0.26095   0.68733   0.03684   0.00000  Uiso   1.00
C403   C     0.10327   0.66322   0.47728   0.00000  Uiso   1.00
C404   C     0.12025   0.75066   0.09589   0.00000  Uiso   1.00
C405   C     0.20979   0.76632   0.40329   0.00000  Uiso   1.00
C406   C     0.21279   0.74990   0.10684   0.00000  Uiso   1.00
C407   C     0.12361   0.73371   0.39341   0.00000  Uiso   1.00
C408   C     0.21266   0.74319   0.05800   0.00000  Uiso   1.00
H409   H     0.32600   0.72959   0.20021   0.00000  Uiso   1.00
H410   H     0.04311   0.99154   0.12822   0.00000  Uiso   1.00
H411   H     0.11215   0.59883   0.34741   0.00000  Uiso   1.00
H412   H     0.20329   0.57995   0.37629   0.00000  Uiso   1.00
H413   H     0.18553   0.63364   0.39530   0.00000  Uiso   1.00
H414   H     0.22404   0.63025   0.34762   0.00000  Uiso   1.00
H415   H     0.12954   0.89691   0.13229   0.00000  Uiso   1.00
H416   H     0.03994   0.88701   0.15353   0.00000  Uiso   1.00
H417   H     0.06421   0.84175   0.19151   0.00000  Uiso   1.00
H418   H     0.06342   0.83811   0.12883   0.00000  Uiso   1.00
H419   H     0.20830   0.60016   0.14671   0.00000  Uiso   1.00
H420   H     0.00767   0.76787   0.30110   0.00000  Uiso   1.00
H421   H     0.29090   0.59949   0.20276   0.00000  Uiso   1.00
H422   H     0.26959   0.65008   0.22671   0.00000  Uiso   1.00
H423   H     0.28266   0.64899   0.16672   0.00000  Uiso   1.00
H424   H     0.21086   0.90532   0.35654   0.00000  Uiso   1.00
H425   H     0.10402   0.86148   0.33500   0.00000  Uiso   1.00
H426   H     0.14569   0.86106   0.39065   0.00000  Uiso   1.00
H427   H     0.11861   0.91261   0.36750   0.00000  Uiso   1.00
H428   H     0.10289   0.82312   0.48838   0.00000  Uiso   1.00
H429   H     0.07584   0.83125   0.04329   0.00000  Uiso   1.00
H430   H     0.03325   0.81937   0.48969   0.00000  Uiso   1.00
H431   H     0.19470   0.52938   0.18363   0.00000  Uiso   1.00
H432   H     0.20313   0.83349   0.01694   0.00000  Uiso   1.00
H433   H     0.21166   0.85484   0.45866   0.00000  Uiso   1.00
H434   H     0.26506   0.85738   0.00581   0.00000  Uiso   1.00
H435   H     0.04085   0.75959   0.09642   0.00000  Uiso   1.00
H436   H     0.09031   0.67660   0.13601   0.00000  Uiso   1.00
H437   H     0.02189   0.68901   0.13092   0.00000  Uiso   1.00
H438   H     0.05179   0.68060   0.07840   0.00000  Uiso   1.00
H439   H     0.28922   0.75734   0.40797   0.00000  Uiso   1.00
H440   H     0.27441   0.84014   0.40536   0.00000  Uiso   1.00
H441   H     0.24818   0.82967   0.34443   0.00000  Uiso   1.00
H442   H     0.18551   0.97363   0.31766   0.00000  Uiso   1.00
H443   H     0.31501   0.81842   0.36526   0.00000  Uiso   1.00
H444   H     0.29250   0.74401   0.12490   0.00000  Uiso   1.00
H445   H     0.30748   0.81316   0.16617   0.00000  Uiso   1.00
H446   H     0.23891   0.82417   0.15185   0.00000  Uiso   1.00
H447   H     0.28035   0.82218   0.10546   0.00000  Uiso   1.00
H448   H     0.04424   0.74250   0.37984   0.00000  Uiso   1.00
H449   H     0.06411   0.65910   0.38030   0.00000  Uiso   1.00
H450   H     0.08118   0.67336   0.32230   0.00000  Uiso   1.00
H451   H     0.01637   0.68140   0.33531   0.00000  Uiso   1.00
H452   H     0.26011   0.67007   0.07131   0.00000  Uiso   1.00
H453   H     0.04928   0.99742   0.26660   0.00000  Uiso   1.00
H454   H     0.29843   0.67960   0.02397   0.00000  Uiso   1.00
H455   H     0.22833   0.67438   0.01045   0.00000  Uiso   1.00
H456   H     0.12900   0.66666   0.01149   0.00000  Uiso   1.00
H457   H     0.12414   0.64578   0.45168   0.00000  Uiso   1.00
H458   H     0.06869   0.64189   0.48351   0.00000  Uiso   1.00
H459   H     0.03911   0.55271   0.28844   0.00000  Uiso   1.00
H460   H     0.03534   0.50465   0.32547   0.00000  Uiso   1.00
H461   H     0.06407   0.51846   0.18307   0.00000  Uiso   1.00
H462   H     0.03879   0.96118   0.18171   0.00000  Uiso   1.00
N463   N     0.16667   0.74999   0.12623   0.00000  Uiso   1.00
N464   N     0.07386   0.72765   0.36537   0.00000  Uiso   1.00
N465   N     0.16667   0.75001   0.37376   0.00000  Uiso   1.00
N466   N     0.14344   0.61132   0.33161   0.00000  Uiso   1.00
N467   N     0.12226   0.88090   0.16287   0.00000  Uiso   1.00
N468   N     0.21254   0.61572   0.17892   0.00000  Uiso   1.00
N469   N     0.18097   0.88915   0.33480   0.00000  Uiso   1.00
N470   N     0.07158   0.74155   0.11277   0.00000  Uiso   1.00
N471   N     0.25936   0.77269   0.38673   0.00000  Uiso   1.00
N472   N     0.26121   0.76021   0.13477   0.00000  Uiso   1.00
O473   O     0.16667   0.68454   0.28974   0.00000  Uiso   1.00
O474   O     0.11462   0.97251   0.16194   0.00000  Uiso   1.00
O475   O     0.07330   0.76598   0.01899   0.00000  Uiso   1.00
O476   O     0.24835   0.79510   0.47854   0.00000  Uiso   1.00
O477   O     0.25921   0.73369   0.04157   0.00000  Uiso   1.00
O478   O     0.08520   0.70475   0.46004   0.00000  Uiso   1.00
O479   O     0.16666   0.81547   0.21026   0.00000  Uiso   1.00
O480   O     0.16667   0.68453   0.21026   0.00000  Uiso   1.00
O481   O     0.16666   0.81547   0.28974   0.00000  Uiso   1.00
O482   O     0.09058   0.75000   0.28044   0.00000  Uiso   1.00
O483   O     0.24275   0.75000   0.21955   0.00000  Uiso   1.00
O484   O     0.09058   0.75000   0.20096   0.00000  Uiso   1.00
O485   O     0.24275   0.75001   0.29903   0.00000  Uiso   1.00
O486   O     0.11035   0.52393   0.31473   0.00000  Uiso   1.00
Zn487  Zn    0.16667   0.75001   0.30307   0.00000  Uiso   1.00
Zn488  Zn    0.16667   0.75000   0.19693   0.00000  Uiso   1.00
C489   C     0.50172   0.66395   0.25057   0.00000  Uiso   1.00
C490   C     0.45922   0.72840   0.44281   0.00000  Uiso   1.00
C491   C     0.49978   0.75016   0.02647   0.00000  Uiso   1.00
C492   C     0.49996   0.75008   0.47334   0.00000  Uiso   1.00
C493   C     0.40060   0.74873   0.23798   0.00000  Uiso   1.00
C494   C     0.59945   0.75072   0.26214   0.00000  Uiso   1.00
C495   C     0.34577   0.74381   0.23252   0.00000  Uiso   1.00
C496   C     0.65441   0.75456   0.26817   0.00000  Uiso   1.00
C497   C     0.46905   0.54661   0.28149   0.00000  Uiso   1.00
C498   C     0.46731   0.95168   0.20374   0.00000  Uiso   1.00
C499   C     0.48230   0.59141   0.28785   0.00000  Uiso   1.00
C500   C     0.49756   0.83604   0.24945   0.00000  Uiso   1.00
C501   C     0.47145   0.90551   0.20488   0.00000  Uiso   1.00
C502   C     0.50267   0.61561   0.25134   0.00000  Uiso   1.00
C503   C     0.49042   0.88398   0.24797   0.00000  Uiso   1.00
C504   C     0.51975   0.59298   0.21354   0.00000  Uiso   1.00
C505   C     0.50311   0.90910   0.28950   0.00000  Uiso   1.00
C506   C     0.51251   0.54719   0.21103   0.00000  Uiso   1.00
C507   C     0.50435   0.95470   0.28639   0.00000  Uiso   1.00
C508   C     0.48702   0.52418   0.24442   0.00000  Uiso   1.00
C509   C     0.48573   0.97607   0.24444   0.00000  Uiso   1.00
C510   C     0.38962   0.51979   0.29749   0.00000  Uiso   1.00
C511   C     0.45350   0.75712   0.04678   0.00000  Uiso   1.00
C512   C     0.39641   0.98628   0.16454   0.00000  Uiso   1.00
C513   C     0.52499   0.61381   0.36428   0.00000  Uiso   1.00
C514   C     0.40305   0.86103   0.15918   0.00000  Uiso   1.00
C515   C     0.60004   0.62917   0.19480   0.00000  Uiso   1.00
C516   C     0.46818   0.88075   0.35808   0.00000  Uiso   1.00
C517   C     0.40526   0.81201   0.01004   0.00000  Uiso   1.00
C518   C     0.56389   0.83677   0.49019   0.00000  Uiso   1.00
C519   C     0.39163   0.69452   0.11451   0.00000  Uiso   1.00
C520   C     0.60791   0.81769   0.37510   0.00000  Uiso   1.00
C521   C     0.60574   0.80742   0.13964   0.00000  Uiso   1.00
C522   C     0.54090   0.77162   0.45207   0.00000  Uiso   1.00
C523   C     0.39194   0.68290   0.35043   0.00000  Uiso   1.00
C524   C     0.59428   0.68733   0.03684   0.00000  Uiso   1.00
C525   C     0.43660   0.66322   0.47728   0.00000  Uiso   1.00
C526   C     0.45358   0.75066   0.09589   0.00000  Uiso   1.00
C527   C     0.54313   0.76632   0.40329   0.00000  Uiso   1.00
C528   C     0.54613   0.74990   0.10684   0.00000  Uiso   1.00
C529   C     0.45695   0.73371   0.39341   0.00000  Uiso   1.00
C530   C     0.54600   0.74319   0.05800   0.00000  Uiso   1.00
H531   H     0.65934   0.72959   0.20021   0.00000  Uiso   1.00
H532   H     0.37644   0.99154   0.12822   0.00000  Uiso   1.00
H533   H     0.44549   0.59883   0.34741   0.00000  Uiso   1.00
H534   H     0.53663   0.57995   0.37629   0.00000  Uiso   1.00
H535   H     0.51886   0.63364   0.39530   0.00000  Uiso   1.00
H536   H     0.55737   0.63025   0.34762   0.00000  Uiso   1.00
H537   H     0.46288   0.89691   0.13229   0.00000  Uiso   1.00
H538   H     0.37327   0.88701   0.15353   0.00000  Uiso   1.00
H539   H     0.39754   0.84175   0.19151   0.00000  Uiso   1.00
H540   H     0.39676   0.83811   0.12883   0.00000  Uiso   1.00
H541   H     0.54163   0.60016   0.14671   0.00000  Uiso   1.00
H542   H     0.34101   0.76787   0.30110   0.00000  Uiso   1.00
H543   H     0.62423   0.59949   0.20276   0.00000  Uiso   1.00
H544   H     0.60293   0.65008   0.22671   0.00000  Uiso   1.00
H545   H     0.61599   0.64899   0.16672   0.00000  Uiso   1.00
H546   H     0.54420   0.90532   0.35654   0.00000  Uiso   1.00
H547   H     0.43735   0.86148   0.33500   0.00000  Uiso   1.00
H548   H     0.47902   0.86106   0.39065   0.00000  Uiso   1.00
H549   H     0.45194   0.91261   0.36750   0.00000  Uiso   1.00
H550   H     0.43622   0.82312   0.48838   0.00000  Uiso   1.00
H551   H     0.40917   0.83125   0.04329   0.00000  Uiso   1.00
H552   H     0.36658   0.81937   0.48969   0.00000  Uiso   1.00
H553   H     0.52803   0.52938   0.18363   0.00000  Uiso   1.00
H554   H     0.53647   0.83349   0.01694   0.00000  Uiso   1.00
H555   H     0.54499   0.85484   0.45866   0.00000  Uiso   1.00
H556   H     0.59839   0.85738   0.00581   0.00000  Uiso   1.00
H557   H     0.37418   0.75959   0.09642   0.00000  Uiso   1.00
H558   H     0.42364   0.67660   0.13601   0.00000  Uiso   1.00
H559   H     0.35522   0.68901   0.13092   0.00000  Uiso   1.00
H560   H     0.38512   0.68060   0.07840   0.00000  Uiso   1.00
H561   H     0.62256   0.75734   0.40797   0.00000  Uiso   1.00
H562   H     0.60774   0.84014   0.40536   0.00000  Uiso   1.00
H563   H     0.58151   0.82967   0.34443   0.00000  Uiso   1.00
H564   H     0.51885   0.97363   0.31766   0.00000  Uiso   1.00
H565   H     0.64834   0.81842   0.36526   0.00000  Uiso   1.00
H566   H     0.62583   0.74401   0.12490   0.00000  Uiso   1.00
H567   H     0.64082   0.81316   0.16617   0.00000  Uiso   1.00
H568   H     0.57224   0.82417   0.15185   0.00000  Uiso   1.00
H569   H     0.61368   0.82218   0.10546   0.00000  Uiso   1.00
H570   H     0.37757   0.74250   0.37984   0.00000  Uiso   1.00
H571   H     0.39744   0.65910   0.38030   0.00000  Uiso   1.00
H572   H     0.41451   0.67336   0.32230   0.00000  Uiso   1.00
H573   H     0.34970   0.68140   0.33531   0.00000  Uiso   1.00
H574   H     0.59344   0.67007   0.07131   0.00000  Uiso   1.00
H575   H     0.38261   0.99742   0.26660   0.00000  Uiso   1.00
H576   H     0.63176   0.67960   0.02397   0.00000  Uiso   1.00
H577   H     0.56166   0.67438   0.01045   0.00000  Uiso   1.00
H578   H     0.46234   0.66666   0.01149   0.00000  Uiso   1.00
H579   H     0.45747   0.64578   0.45168   0.00000  Uiso   1.00
H580   H     0.40202   0.64189   0.48351   0.00000  Uiso   1.00
H581   H     0.37244   0.55271   0.28844   0.00000  Uiso   1.00
H582   H     0.36867   0.50465   0.32547   0.00000  Uiso   1.00
H583   H     0.39741   0.51846   0.18307   0.00000  Uiso   1.00
H584   H     0.37213   0.96118   0.18171   0.00000  Uiso   1.00
N585   N     0.50000   0.74999   0.12623   0.00000  Uiso   1.00
N586   N     0.40719   0.72765   0.36537   0.00000  Uiso   1.00
N587   N     0.50000   0.75001   0.37376   0.00000  Uiso   1.00
N588   N     0.47678   0.61132   0.33161   0.00000  Uiso   1.00
N589   N     0.45559   0.88090   0.16287   0.00000  Uiso   1.00
N590   N     0.54588   0.61572   0.17892   0.00000  Uiso   1.00
N591   N     0.51431   0.88915   0.33480   0.00000  Uiso   1.00
N592   N     0.40492   0.74155   0.11277   0.00000  Uiso   1.00
N593   N     0.59270   0.77269   0.38673   0.00000  Uiso   1.00
N594   N     0.59454   0.76021   0.13477   0.00000  Uiso   1.00
O595   O     0.50000   0.68454   0.28974   0.00000  Uiso   1.00
O596   O     0.44795   0.97251   0.16194   0.00000  Uiso   1.00
O597   O     0.40663   0.76598   0.01899   0.00000  Uiso   1.00
O598   O     0.58169   0.79510   0.47854   0.00000  Uiso   1.00
O599   O     0.59255   0.73369   0.04157   0.00000  Uiso   1.00
O600   O     0.41853   0.70475   0.46004   0.00000  Uiso   1.00
O601   O     0.50000   0.81547   0.21026   0.00000  Uiso   1.00
O602   O     0.50000   0.68453   0.21026   0.00000  Uiso   1.00
O603   O     0.50000   0.81547   0.28974   0.00000  Uiso   1.00
O604   O     0.42392   0.75000   0.28044   0.00000  Uiso   1.00
O605   O     0.57608   0.75000   0.21955   0.00000  Uiso   1.00
O606   O     0.42392   0.75000   0.20096   0.00000  Uiso   1.00
O607   O     0.57608   0.75001   0.29903   0.00000  Uiso   1.00
O608   O     0.44368   0.52393   0.31473   0.00000  Uiso   1.00
Zn609  Zn    0.50000   0.75001   0.30307   0.00000  Uiso   1.00
Zn610  Zn    0.50000   0.75000   0.19693   0.00000  Uiso   1.00
C611   C     0.83506   0.66395   0.25057   0.00000  Uiso   1.00
C612   C     0.79255   0.72840   0.44281   0.00000  Uiso   1.00
C613   C     0.83311   0.75016   0.02647   0.00000  Uiso   1.00
C614   C     0.83329   0.75008   0.47334   0.00000  Uiso   1.00
C615   C     0.73393   0.74873   0.23798   0.00000  Uiso   1.00
C616   C     0.93278   0.75072   0.26214   0.00000  Uiso   1.00
C617   C     0.67911   0.74381   0.23252   0.00000  Uiso   1.00
C618   C     0.98775   0.75456   0.26817   0.00000  Uiso   1.00
C619   C     0.80239   0.54661   0.28149   0.00000  Uiso   1.00
C620   C     0.80064   0.95168   0.20374   0.00000  Uiso   1.00
C621   C     0.81563   0.59141   0.28785   0.00000  Uiso   1.00
C622   C     0.83090   0.83604   0.24945   0.00000  Uiso   1.00
C623   C     0.80479   0.90551   0.20488   0.00000  Uiso   1.00
C624   C     0.83601   0.61561   0.25134   0.00000  Uiso   1.00
C625   C     0.82375   0.88398   0.24797   0.00000  Uiso   1.00
C626   C     0.85309   0.59298   0.21354   0.00000  Uiso   1.00
C627   C     0.83645   0.90910   0.28950   0.00000  Uiso   1.00
C628   C     0.84585   0.54719   0.21103   0.00000  Uiso   1.00
C629   C     0.83768   0.95470   0.28639   0.00000  Uiso   1.00
C630   C     0.82035   0.52418   0.24442   0.00000  Uiso   1.00
C631   C     0.81906   0.97607   0.24444   0.00000  Uiso   1.00
C632   C     0.72296   0.51979   0.29749   0.00000  Uiso   1.00
C633   C     0.78684   0.75712   0.04678   0.00000  Uiso   1.00
C634   C     0.72974   0.98628   0.16454   0.00000  Uiso   1.00
C635   C     0.85832   0.61381   0.36428   0.00000  Uiso   1.00
C636   C     0.73639   0.86103   0.15918   0.00000  Uiso   1.00
C637   C     0.93338   0.62917   0.19480   0.00000  Uiso   1.00
C638   C     0.80151   0.88075   0.35808   0.00000  Uiso   1.00
C639   C     0.73860   0.81201   0.01004   0.00000  Uiso   1.00
C640   C     0.89722   0.83677   0.49019   0.00000  Uiso   1.00
C641   C     0.72497   0.69452   0.11451   0.00000  Uiso   1.00
C642   C     0.94124   0.81769   0.37510   0.00000  Uiso   1.00
C643   C     0.93907   0.80742   0.13964   0.00000  Uiso   1.00
C644   C     0.87423   0.77162   0.45207   0.00000  Uiso   1.00
C645   C     0.72527   0.68290   0.35043   0.00000  Uiso   1.00
C646   C     0.92761   0.68733   0.03684   0.00000  Uiso   1.00
C647   C     0.76994   0.66322   0.47728   0.00000  Uiso   1.00
C648   C     0.78691   0.75066   0.09589   0.00000  Uiso   1.00
C649   C     0.87646   0.76632   0.40329   0.00000  Uiso   1.00
C650   C     0.87946   0.74990   0.10684   0.00000  Uiso   1.00
C651   C     0.79028   0.73371   0.39341   0.00000  Uiso   1.00
C652   C     0.87933   0.74319   0.05800   0.00000  Uiso   1.00
H653   H     0.99267   0.72959   0.20021   0.00000  Uiso   1.00
H654   H     0.70977   0.99154   0.12822   0.00000  Uiso   1.00
H655   H     0.77882   0.59883   0.34741   0.00000  Uiso   1.00
H656   H     0.86996   0.57995   0.37629   0.00000  Uiso   1.00
H657   H     0.85219   0.63364   0.39530   0.00000  Uiso   1.00
H658   H     0.89071   0.63025   0.34762   0.00000  Uiso   1.00
H659   H     0.79621   0.89691   0.13229   0.00000  Uiso   1.00
H660   H     0.70661   0.88701   0.15353   0.00000  Uiso   1.00
H661   H     0.73087   0.84175   0.19151   0.00000  Uiso   1.00
H662   H     0.73009   0.83811   0.12883   0.00000  Uiso   1.00
H663   H     0.87496   0.60016   0.14671   0.00000  Uiso   1.00
H664   H     0.67434   0.76787   0.30110   0.00000  Uiso   1.00
H665   H     0.95757   0.59949   0.20276   0.00000  Uiso   1.00
H666   H     0.93626   0.65008   0.22671   0.00000  Uiso   1.00
H667   H     0.94933   0.64899   0.16672   0.00000  Uiso   1.00
H668   H     0.87753   0.90532   0.35654   0.00000  Uiso   1.00
H669   H     0.77068   0.86148   0.33500   0.00000  Uiso   1.00
H670   H     0.81236   0.86106   0.39065   0.00000  Uiso   1.00
H671   H     0.78528   0.91261   0.36750   0.00000  Uiso   1.00
H672   H     0.76956   0.82312   0.48838   0.00000  Uiso   1.00
H673   H     0.74250   0.83125   0.04329   0.00000  Uiso   1.00
H674   H     0.69992   0.81937   0.48969   0.00000  Uiso   1.00
H675   H     0.86137   0.52938   0.18363   0.00000  Uiso   1.00
H676   H     0.86980   0.83349   0.01694   0.00000  Uiso   1.00
H677   H     0.87832   0.85484   0.45866   0.00000  Uiso   1.00
H678   H     0.93173   0.85738   0.00581   0.00000  Uiso   1.00
H679   H     0.70752   0.75959   0.09642   0.00000  Uiso   1.00
H680   H     0.75697   0.67660   0.13601   0.00000  Uiso   1.00
H681   H     0.68855   0.68901   0.13092   0.00000  Uiso   1.00
H682   H     0.71845   0.68060   0.07840   0.00000  Uiso   1.00
H683   H     0.95589   0.75734   0.40797   0.00000  Uiso   1.00
H684   H     0.94107   0.84014   0.40536   0.00000  Uiso   1.00
H685   H     0.91484   0.82967   0.34443   0.00000  Uiso   1.00
H686   H     0.85218   0.97363   0.31766   0.00000  Uiso   1.00
H687   H     0.98167   0.81842   0.36526   0.00000  Uiso   1.00
H688   H     0.95916   0.74401   0.12490   0.00000  Uiso   1.00
H689   H     0.97415   0.81316   0.16617   0.00000  Uiso   1.00
H690   H     0.90558   0.82417   0.15185   0.00000  Uiso   1.00
H691   H     0.94701   0.82218   0.10546   0.00000  Uiso   1.00
H692   H     0.71090   0.74250   0.37984   0.00000  Uiso   1.00
H693   H     0.73078   0.65910   0.38030   0.00000  Uiso   1.00
H694   H     0.74785   0.67336   0.32230   0.00000  Uiso   1.00
H695   H     0.68304   0.68140   0.33531   0.00000  Uiso   1.00
H696   H     0.92678   0.67007   0.07131   0.00000  Uiso   1.00
H697   H     0.71595   0.99742   0.26660   0.00000  Uiso   1.00
H698   H     0.96510   0.67960   0.02397   0.00000  Uiso   1.00
H699   H     0.89499   0.67438   0.01045   0.00000  Uiso   1.00
H700   H     0.79567   0.66666   0.01149   0.00000  Uiso   1.00
H701   H     0.79081   0.64578   0.45168   0.00000  Uiso   1.00
H702   H     0.73536   0.64189   0.48351   0.00000  Uiso   1.00
H703   H     0.70577   0.55271   0.28844   0.00000  Uiso   1.00
H704   H     0.70200   0.50465   0.32547   0.00000  Uiso   1.00
H705   H     0.73074   0.51846   0.18307   0.00000  Uiso   1.00
H706   H     0.70546   0.96118   0.18171   0.00000  Uiso   1.00
N707   N     0.83333   0.74999   0.12623   0.00000  Uiso   1.00
N708   N     0.74053   0.72765   0.36537   0.00000  Uiso   1.00
N709   N     0.83333   0.75001   0.37376   0.00000  Uiso   1.00
N710   N     0.81011   0.61132   0.33161   0.00000  Uiso   1.00
N711   N     0.78893   0.88090   0.16287   0.00000  Uiso   1.00
N712   N     0.87921   0.61572   0.17892   0.00000  Uiso   1.00
N713   N     0.84764   0.88915   0.33480   0.00000  Uiso   1.00
N714   N     0.73825   0.74155   0.11277   0.00000  Uiso   1.00
N715   N     0.92603   0.77269   0.38673   0.00000  Uiso   1.00
N716   N     0.92788   0.76021   0.13477   0.00000  Uiso   1.00
O717   O     0.83334   0.68454   0.28974   0.00000  Uiso   1.00
O718   O     0.78129   0.97251   0.16194   0.00000  Uiso   1.00
O719   O     0.73996   0.76598   0.01899   0.00000  Uiso   1.00
O720   O     0.91502   0.79510   0.47854   0.00000  Uiso   1.00
O721   O     0.92588   0.73369   0.04157   0.00000  Uiso   1.00
O722   O     0.75187   0.70475   0.46004   0.00000  Uiso   1.00
O723   O     0.83333   0.81547   0.21026   0.00000  Uiso   1.00
O724   O     0.83334   0.68453   0.21026   0.00000  Uiso   1.00
O725   O     0.83333   0.81547   0.28974   0.00000  Uiso   1.00
O726   O     0.75725   0.75000   0.28044   0.00000  Uiso   1.00
O727   O     0.90942   0.75000   0.21955   0.00000  Uiso   1.00
O728   O     0.75725   0.75000   0.20096   0.00000  Uiso   1.00
O729   O     0.90942   0.75001   0.29903   0.00000  Uiso   1.00
O730   O     0.77701   0.52393   0.31473   0.00000  Uiso   1.00
Zn731  Zn    0.83333   0.75001   0.30307   0.00000  Uiso   1.00
Zn732  Zn    0.83333   0.75000   0.19693   0.00000  Uiso   1.00
C733   C     0.16839   0.16395   0.75057   0.00000  Uiso   1.00
C734   C     0.12588   0.22840   0.94281   0.00000  Uiso   1.00
C735   C     0.16644   0.25016   0.52647   0.00000  Uiso   1.00
C736   C     0.16663   0.25008   0.97334   0.00000  Uiso   1.00
C737   C     0.06726   0.24873   0.73798   0.00000  Uiso   1.00
C738   C     0.26611   0.25072   0.76214   0.00000  Uiso   1.00
C739   C     0.01244   0.24381   0.73252   0.00000  Uiso   1.00
C740   C     0.32108   0.25456   0.76817   0.00000  Uiso   1.00
C741   C     0.13572   0.04661   0.78149   0.00000  Uiso   1.00
C742   C     0.13397   0.45168   0.70374   0.00000  Uiso   1.00
C743   C     0.14896   0.09141   0.78785   0.00000  Uiso   1.00
C744   C     0.16423   0.33604   0.74945   0.00000  Uiso   1.00
C745   C     0.13812   0.40551   0.70488   0.00000  Uiso   1.00
C746   C     0.16934   0.11561   0.75134   0.00000  Uiso   1.00
C747   C     0.15709   0.38398   0.74797   0.00000  Uiso   1.00
C748   C     0.18642   0.09298   0.71354   0.00000  Uiso   1.00
C749   C     0.16978   0.40910   0.78950   0.00000  Uiso   1.00
C750   C     0.17918   0.04719   0.71103   0.00000  Uiso   1.00
C751   C     0.17101   0.45470   0.78639   0.00000  Uiso   1.00
C752   C     0.15369   0.02418   0.74442   0.00000  Uiso   1.00
C753   C     0.15240   0.47607   0.74444   0.00000  Uiso   1.00
C754   C     0.05629   0.01979   0.79749   0.00000  Uiso   1.00
C755   C     0.12017   0.25712   0.54678   0.00000  Uiso   1.00
C756   C     0.06307   0.48628   0.66454   0.00000  Uiso   1.00
C757   C     0.19165   0.11381   0.86428   0.00000  Uiso   1.00
C758   C     0.06972   0.36103   0.65918   0.00000  Uiso   1.00
C759   C     0.26671   0.12917   0.69480   0.00000  Uiso   1.00
C760   C     0.13485   0.38075   0.85808   0.00000  Uiso   1.00
C761   C     0.07193   0.31201   0.51004   0.00000  Uiso   1.00
C762   C     0.23055   0.33677   0.99019   0.00000  Uiso   1.00
C763   C     0.05830   0.19452   0.61451   0.00000  Uiso   1.00
C764   C     0.27457   0.31769   0.87510   0.00000  Uiso   1.00
C765   C     0.27240   0.30742   0.63964   0.00000  Uiso   1.00
C766   C     0.20756   0.27162   0.95207   0.00000  Uiso   1.00
C767   C     0.05860   0.18290   0.85043   0.00000  Uiso   1.00
C768   C     0.26095   0.18733   0.53684   0.00000  Uiso   1.00
C769   C     0.10327   0.16322   0.97728   0.00000  Uiso   1.00
C770   C     0.12025   0.25066   0.59589   0.00000  Uiso   1.00
C771   C     0.20979   0.26632   0.90329   0.00000  Uiso   1.00
C772   C     0.21279   0.24990   0.60684   0.00000  Uiso   1.00
C773   C     0.12361   0.23371   0.89341   0.00000  Uiso   1.00
C774   C     0.21266   0.24319   0.55800   0.00000  Uiso   1.00
H775   H     0.32600   0.22959   0.70021   0.00000  Uiso   1.00
H776   H     0.04311   0.49154   0.62822   0.00000  Uiso   1.00
H777   H     0.11215   0.09883   0.84741   0.00000  Uiso   1.00
H778   H     0.20329   0.07995   0.87629   0.00000  Uiso   1.00
H779   H     0.18553   0.13364   0.89530   0.00000  Uiso   1.00
H780   H     0.22404   0.13025   0.84762   0.00000  Uiso   1.00
H781   H     0.12954   0.39691   0.63229   0.00000  Uiso   1.00
H782   H     0.03994   0.38701   0.65353   0.00000  Uiso   1.00
H783   H     0.06421   0.34175   0.69151   0.00000  Uiso   1.00
H784   H     0.06342   0.33811   0.62883   0.00000  Uiso   1.00
H785   H     0.20830   0.10016   0.64671   0.00000  Uiso   1.00
H786   H     0.00767   0.26787   0.80110   0.00000  Uiso   1.00
H787   H     0.29090   0.09949   0.70276   0.00000  Uiso   1.00
H788   H     0.26959   0.15008   0.72671   0.00000  Uiso   1.00
H789   H     0.28266   0.14899   0.66672   0.00000  Uiso   1.00
H790   H     0.21086   0.40532   0.85654   0.00000  Uiso   1.00
H791   H     0.10402   0.36148   0.83500   0.00000  Uiso   1.00
H792   H     0.14569   0.36106   0.89065   0.00000  Uiso   1.00
H793   H     0.11861   0.41261   0.86750   0.00000  Uiso   1.00
H794   H     0.10289   0.32312   0.98838   0.00000  Uiso   1.00
H795   H     0.07584   0.33125   0.54329   0.00000  Uiso   1.00
H796   H     0.03325   0.31937   0.98969   0.00000  Uiso   1.00
H797   H     0.19470   0.02938   0.68363   0.00000  Uiso   1.00
H798   H     0.20313   0.33349   0.51694   0.00000  Uiso   1.00
H799   H     0.21166   0.35484   0.95866   0.00000  Uiso   1.00
H800   H     0.26506   0.35738   0.50581   0.00000  Uiso   1.00
H801   H     0.04085   0.25959   0.59642   0.00000  Uiso   1.00
H802   H     0.09031   0.17660   0.63601   0.00000  Uiso   1.00
H803   H     0.02189   0.18901   0.63092   0.00000  Uiso   1.00
H804   H     0.05179   0.18060   0.57840   0.00000  Uiso   1.00
H805   H     0.28922   0.25734   0.90797   0.00000  Uiso   1.00
H806   H     0.27441   0.34014   0.90536   0.00000  Uiso   1.00
H807   H     0.24818   0.32967   0.84443   0.00000  Uiso   1.00
H808   H     0.18551   0.47363   0.81766   0.00000  Uiso   1.00
H809   H     0.31501   0.31842   0.86526   0.00000  Uiso   1.00
H810   H     0.29250   0.24401   0.62490   0.00000  Uiso   1.00
H811   H     0.30748   0.31316   0.66617   0.00000  Uiso   1.00
H812   H     0.23891   0.32417   0.65185   0.00000  Uiso   1.00
H813   H     0.28035   0.32218   0.60546   0.00000  Uiso   1.00
H814   H     0.04424   0.24250   0.87984   0.00000  Uiso   1.00
H815   H     0.06411   0.15910   0.88030   0.00000  Uiso   1.00
H816   H     0.08118   0.17336   0.82230   0.00000  Uiso   1.00
H817   H     0.01637   0.18140   0.83531   0.00000  Uiso   1.00
H818   H     0.26011   0.17007   0.57131   0.00000  Uiso   1.00
H819   H     0.04928   0.49742   0.76660   0.00000  Uiso   1.00
H820   H     0.29843   0.17960   0.52397   0.00000  Uiso   1.00
H821   H     0.22833   0.17438   0.51045   0.00000  Uiso   1.00
H822   H     0.12900   0.16666   0.51149   0.00000  Uiso   1.00
H823   H     0.12414   0.14578   0.95168   0.00000  Uiso   1.00
H824   H     0.06869   0.14189   0.98351   0.00000  Uiso   1.00
H825   H     0.03911   0.05271   0.78844   0.00000  Uiso   1.00
H826   H     0.03534   0.00465   0.82547   0.00000  Uiso   1.00
H827   H     0.06407   0.01846   0.68307   0.00000  Uiso   1.00
H828   H     0.03879   0.46118   0.68171   0.00000  Uiso   1.00
N829   N     0.16667   0.24999   0.62623   0.00000  Uiso   1.00
N830   N     0.07386   0.22765   0.86537   0.00000  Uiso   1.00
N831   N     0.16667   0.25001   0.87376   0.00000  Uiso   1.00
N832   N     0.14344   0.11132   0.83161   0.00000  Uiso   1.00
N833   N     0.12226   0.38090   0.66287   0.00000  Uiso   1.00
N834   N     0.21254   0.11572   0.67892   0.00000  Uiso   1.00
N835   N     0.18097   0.38915   0.83480   0.00000  Uiso   1.00
N836   N     0.07158   0.24155   0.61277   0.00000  Uiso   1.00
N837   N     0.25936   0.27269   0.88673   0.00000  Uiso   1.00
N838   N     0.26121   0.26021   0.63477   0.00000  Uiso   1.00
O839   O     0.16667   0.18454   0.78974   0.00000  Uiso   1.00
O840   O     0.11462   0.47251   0.66194   0.00000  Uiso   1.00
O841   O     0.07330   0.26598   0.51899   0.00000  Uiso   1.00
O842   O     0.24835   0.29510   0.97854   0.00000  Uiso   1.00
O843   O     0.25921   0.23369   0.54157   0.00000  Uiso   1.00
O844   O     0.08520   0.20475   0.96004   0.00000  Uiso   1.00
O845   O     0.16666   0.31547   0.71026   0.00000  Uiso   1.00
O846   O     0.16667   0.18453   0.71026   0.00000  Uiso   1.00
O847   O     0.16666   0.31547   0.78974   0.00000  Uiso   1.00
O848   O     0.09058   0.25000   0.78044   0.00000  Uiso   1.00
O849   O     0.24275   0.25000   0.71955   0.00000  Uiso   1.00
O850   O     0.09058   0.25000   0.70096   0.00000  Uiso   1.00
O851   O     0.24275   0.25001   0.79903   0.00000  Uiso   1.00
O852   O     0.11035   0.02393   0.81473   0.00000  Uiso   1.00
Zn853  Zn    0.16667   0.25001   0.80307   0.00000  Uiso   1.00
Zn854  Zn    0.16667   0.25000   0.69693   0.00000  Uiso   1.00
C855   C     0.50172   0.16395   0.75057   0.00000  Uiso   1.00
C856   C     0.45922   0.22840   0.94281   0.00000  Uiso   1.00
C857   C     0.49978   0.25016   0.52647   0.00000  Uiso   1.00
C858   C     0.49996   0.25008   0.97334   0.00000  Uiso   1.00
C859   C     0.40060   0.24873   0.73798   0.00000  Uiso   1.00
C860   C     0.59945   0.25072   0.76214   0.00000  Uiso   1.00
C861   C     0.34577   0.24381   0.73252   0.00000  Uiso   1.00
C862   C     0.65441   0.25456   0.76817   0.00000  Uiso   1.00
C863   C     0.46905   0.04661   0.78149   0.00000  Uiso   1.00
C864   C     0.46731   0.45168   0.70374   0.00000  Uiso   1.00
C865   C     0.48230   0.09141   0.78785   0.00000  Uiso   1.00
C866   C     0.49756   0.33604   0.74945   0.00000  Uiso   1.00
C867   C     0.47145   0.40551   0.70488   0.00000  Uiso   1.00
C868   C     0.50267   0.11561   0.75134   0.00000  Uiso   1.00
C869   C     0.49042   0.38398   0.74797   0.00000  Uiso   1.00
C870   C     0.51975   0.09298   0.71354   0.00000  Uiso   1.00
C871   C     0.50311   0.40910   0.78950   0.00000  Uiso   1.00
C872   C     0.51251   0.04719   0.71103   0.00000  Uiso   1.00
C873   C     0.50435   0.45470   0.78639   0.00000  Uiso   1.00
C874   C     0.48702   0.02418   0.74442   0.00000  Uiso   1.00
C875   C     0.48573   0.47607   0.74444   0.00000  Uiso   1.00
C876   C     0.38962   0.01979   0.79749   0.00000  Uiso   1.00
C877   C     0.45350   0.25712   0.54678   0.00000  Uiso   1.00
C878   C     0.39641   0.48628   0.66454   0.00000  Uiso   1.00
C879   C     0.52499   0.11381   0.86428   0.00000  Uiso   1.00
C880   C     0.40305   0.36103   0.65918   0.00000  Uiso   1.00
C881   C     0.60004   0.12917   0.69480   0.00000  Uiso   1.00
C882   C     0.46818   0.38075   0.85808   0.00000  Uiso   1.00
C883   C     0.40526   0.31201   0.51004   0.00000  Uiso   1.00
C884   C     0.56389   0.33677   0.99019   0.00000  Uiso   1.00
C885   C     0.39163   0.19452   0.61451   0.00000  Uiso   1.00
C886   C     0.60791   0.31769   0.87510   0.00000  Uiso   1.00
C887   C     0.60574   0.30742   0.63964   0.00000  Uiso   1.00
C888   C     0.54090   0.27162   0.95207   0.00000  Uiso   1.00
C889   C     0.39194   0.18290   0.85043   0.00000  Uiso   1.00
C890   C     0.59428   0.18733   0.53684   0.00000  Uiso   1.00
C891   C     0.43660   0.16322   0.97728   0.00000  Uiso   1.00
C892   C     0.45358   0.25066   0.59589   0.00000  Uiso   1.00
C893   C     0.54313   0.26632   0.90329   0.00000  Uiso   1.00
C894   C     0.54613   0.24990   0.60684   0.00000  Uiso   1.00
C895   C     0.45695   0.23371   0.89341   0.00000  Uiso   1.00
C896   C     0.54600   0.24319   0.55800   0.00000  Uiso   1.00
H897   H     0.65934   0.22959   0.70021   0.00000  Uiso   1.00
H898   H     0.37644   0.49154   0.62822   0.00000  Uiso   1.00
H899   H     0.44549   0.09883   0.84741   0.00000  Uiso   1.00
H900   H     0.53663   0.07995   0.87629   0.00000  Uiso   1.00
H901   H     0.51886   0.13364   0.89530   0.00000  Uiso   1.00
H902   H     0.55737   0.13025   0.84762   0.00000  Uiso   1.00
H903   H     0.46288   0.39691   0.63229   0.00000  Uiso   1.00
H904   H     0.37327   0.38701   0.65353   0.00000  Uiso   1.00
H905   H     0.39754   0.34175   0.69151   0.00000  Uiso   1.00
H906   H     0.39676   0.33811   0.62883   0.00000  Uiso   1.00
H907   H     0.54163   0.10016   0.64671   0.00000  Uiso   1.00
H908   H     0.34101   0.26787   0.80110   0.00000  Uiso   1.00
H909   H     0.62423   0.09949   0.70276   0.00000  Uiso   1.00
H910   H     0.60293   0.15008   0.72671   0.00000  Uiso   1.00
H911   H     0.61599   0.14899   0.66672   0.00000  Uiso   1.00
H912   H     0.54420   0.40532   0.85654   0.00000  Uiso   1.00
H913   H     0.43735   0.36148   0.83500   0.00000  Uiso   1.00
H914   H     0.47902   0.36106   0.89065   0.00000  Uiso   1.00
H915   H     0.45194   0.41261   0.86750   0.00000  Uiso   1.00
H916   H     0.43622   0.32312   0.98838   0.00000  Uiso   1.00
H917   H     0.40917   0.33125   0.54329   0.00000  Uiso   1.00
H918   H     0.36658   0.31937   0.98969   0.00000  Uiso   1.00
H919   H     0.52803   0.02938   0.68363   0.00000  Uiso   1.00
H920   H     0.53647   0.33349   0.51694   0.00000  Uiso   1.00
H921   H     0.54499   0.35484   0.95866   0.00000  Uiso   1.00
H922   H     0.59839   0.35738   0.50581   0.00000  Uiso   1.00
H923   H     0.37418   0.25959   0.59642   0.00000  Uiso   1.00
H924   H     0.42364   0.17660   0.63601   0.00000  Uiso   1.00
H925   H     0.35522   0.18901   0.63092   0.00000  Uiso   1.00
H926   H     0.38512   0.18060   0.57840   0.00000  Uiso   1.00
H927   H     0.62256   0.25734   0.90797   0.00000  Uiso   1.00
H928   H     0.60774   0.34014   0.90536   0.00000  Uiso   1.00
H929   H     0.58151   0.32967   0.84443   0.00000  Uiso   1.00
H930   H     0.51885   0.47363   0.81766   0.00000  Uiso   1.00
H931   H     0.64834   0.31842   0.86526   0.00000  Uiso   1.00
H932   H     0.62583   0.24401   0.62490   0.00000  Uiso   1.00
H933   H     0.64082   0.31316   0.66617   0.00000  Uiso   1.00
H934   H     0.57224   0.32417   0.65185   0.00000  Uiso   1.00
H935   H     0.61368   0.32218   0.60546   0.00000  Uiso   1.00
H936   H     0.37757   0.24250   0.87984   0.00000  Uiso   1.00
H937   H     0.39744   0.15910   0.88030   0.00000  Uiso   1.00
H938   H     0.41451   0.17336   0.82230   0.00000  Uiso   1.00
H939   H     0.34970   0.18140   0.83531   0.00000  Uiso   1.00
H940   H     0.59344   0.17007   0.57131   0.00000  Uiso   1.00
H941   H     0.38261   0.49742   0.76660   0.00000  Uiso   1.00
H942   H     0.63176   0.17960   0.52397   0.00000  Uiso   1.00
H943   H     0.56166   0.17438   0.51045   0.00000  Uiso   1.00
H944   H     0.46234   0.16666   0.51149   0.00000  Uiso   1.00
H945   H     0.45747   0.14578   0.95168   0.00000  Uiso   1.00
H946   H     0.40202   0.14189   0.98351   0.00000  Uiso   1.00
H947   H     0.37244   0.05271   0.78844   0.00000  Uiso   1.00
H948   H     0.36867   0.00465   0.82547   0.00000  Uiso   1.00
H949   H     0.39741   0.01846   0.68307   0.00000  Uiso   1.00
H950   H     0.37213   0.46118   0.68171   0.00000  Uiso   1.00
N951   N     0.50000   0.24999   0.62623   0.00000  Uiso   1.00
N952   N     0.40719   0.22765   0.86537   0.00000  Uiso   1.00
N953   N     0.50000   0.25001   0.87376   0.00000  Uiso   1.00
N954   N     0.47678   0.11132   0.83161   0.00000  Uiso   1.00
N955   N     0.45559   0.38090   0.66287   0.00000  Uiso   1.00
N956   N     0.54588   0.11572   0.67892   0.00000  Uiso   1.00
N957   N     0.51431   0.38915   0.83480   0.00000  Uiso   1.00
N958   N     0.40492   0.24155   0.61277   0.00000  Uiso   1.00
N959   N     0.59270   0.27269   0.88673   0.00000  Uiso   1.00
N960   N     0.59454   0.26021   0.63477   0.00000  Uiso   1.00
O961   O     0.50000   0.18454   0.78974   0.00000  Uiso   1.00
O962   O     0.44795   0.47251   0.66194   0.00000  Uiso   1.00
O963   O     0.40663   0.26598   0.51899   0.00000  Uiso   1.00
O964   O     0.58169   0.29510   0.97854   0.00000  Uiso   1.00
O965   O     0.59255   0.23369   0.54157   0.00000  Uiso   1.00
O966   O     0.41853   0.20475   0.96004   0.00000  Uiso   1.00
O967   O     0.50000   0.31547   0.71026   0.00000  Uiso   1.00
O968   O     0.50000   0.18453   0.71026   0.00000  Uiso   1.00
O969   O     0.50000   0.31547   0.78974   0.00000  Uiso   1.00
O970   O     0.42392   0.25000   0.78044   0.00000  Uiso   1.00
O971   O     0.57608   0.25000   0.71955   0.00000  Uiso   1.00
O972   O     0.42392   0.25000   0.70096   0.00000  Uiso   1.00
O973   O     0.57608   0.25001   0.79903   0.00000  Uiso   1.00
O974   O     0.44368   0.02393   0.81473   0.00000  Uiso   1.00
Zn975  Zn    0.50000   0.25001   0.80307   0.00000  Uiso   1.00
Zn976  Zn    0.50000   0.25000   0.69693   0.00000  Uiso   1.00
C977   C     0.83506   0.16395   0.75057   0.00000  Uiso   1.00
C978   C     0.79255   0.22840   0.94281   0.00000  Uiso   1.00
C979   C     0.83311   0.25016   0.52647   0.00000  Uiso   1.00
C980   C     0.83329   0.25008   0.97334   0.00000  Uiso   1.00
C981   C     0.73393   0.24873   0.73798   0.00000  Uiso   1.00
C982   C     0.93278   0.25072   0.76214   0.00000  Uiso   1.00
C983   C     0.67911   0.24381   0.73252   0.00000  Uiso   1.00
C984   C     0.98775   0.25456   0.76817   0.00000  Uiso   1.00
C985   C     0.80239   0.04661   0.78149   0.00000  Uiso   1.00
C986   C     0.80064   0.45168   0.70374   0.00000  Uiso   1.00
C987   C     0.81563   0.09141   0.78785   0.00000  Uiso   1.00
C988   C     0.83090   0.33604   0.74945   0.00000  Uiso   1.00
C989   C     0.80479   0.40551   0.70488   0.00000  Uiso   1.00
C990   C     0.83601   0.11561   0.75134   0.00000  Uiso   1.00
C991   C     0.82375   0.38398   0.74797   0.00000  Uiso   1.00
C992   C     0.85309   0.09298   0.71354   0.00000  Uiso   1.00
C993   C     0.83645   0.40910   0.78950   0.00000  Uiso   1.00
C994   C     0.84585   0.04719   0.71103   0.00000  Uiso   1.00
C995   C     0.83768   0.45470   0.78639   0.00000  Uiso   1.00
C996   C     0.82035   0.02418   0.74442   0.00000  Uiso   1.00
C997   C     0.81906   0.47607   0.74444   0.00000  Uiso   1.00
C998   C     0.72296   0.01979   0.79749   0.00000  Uiso   1.00
C999   C     0.78684   0.25712   0.54678   0.00000  Uiso   1.00
C1000  C     0.72974   0.48628   0.66454   0.00000  Uiso   1.00
C1001  C     0.85832   0.11381   0.86428   0.00000  Uiso   1.00
C1002  C     0.73639   0.36103   0.65918   0.00000  Uiso   1.00
C1003  C     0.93338   0.12917   0.69480   0.00000  Uiso   1.00
C1004  C     0.80151   0.38075   0.85808   0.00000  Uiso   1.00
C1005  C     0.73860   0.31201   0.51004   0.00000  Uiso   1.00
C1006  C     0.89722   0.33677   0.99019   0.00000  Uiso   1.00
C1007  C     0.72497   0.19452   0.61451   0.00000  Uiso   1.00
C1008  C     0.94124   0.31769   0.87510   0.00000  Uiso   1.00
C1009  C     0.93907   0.30742   0.63964   0.00000  Uiso   1.00
C1010  C     0.87423   0.27162   0.95207   0.00000  Uiso   1.00
C1011  C     0.72527   0.18290   0.85043   0.00000  Uiso   1.00
C1012  C     0.92761   0.18733   0.53684   0.00000  Uiso   1.00
C1013  C     0.76994   0.16322   0.97728   0.00000  Uiso   1.00
C1014  C     0.78691   0.25066   0.59589   0.00000  Uiso   1.00
C1015  C     0.87646   0.26632   0.90329   0.00000  Uiso   1.00
C1016  C     0.87946   0.24990   0.60684   0.00000  Uiso   1.00
C1017  C     0.79028   0.23371   0.89341   0.00000  Uiso   1.00
C1018  C     0.87933   0.24319   0.55800   0.00000  Uiso   1.00
H1019  H     0.99267   0.22959   0.70021   0.00000  Uiso   1.00
H1020  H     0.70977   0.49154   0.62822   0.00000  Uiso   1.00
H1021  H     0.77882   0.09883   0.84741   0.00000  Uiso   1.00
H1022  H     0.86996   0.07995   0.87629   0.00000  Uiso   1.00
H1023  H     0.85219   0.13364   0.89530   0.00000  Uiso   1.00
H1024  H     0.89071   0.13025   0.84762   0.00000  Uiso   1.00
H1025  H     0.79621   0.39691   0.63229   0.00000  Uiso   1.00
H1026  H     0.70661   0.38701   0.65353   0.00000  Uiso   1.00
H1027  H     0.73087   0.34175   0.69151   0.00000  Uiso   1.00
H1028  H     0.73009   0.33811   0.62883   0.00000  Uiso   1.00
H1029  H     0.87496   0.10016   0.64671   0.00000  Uiso   1.00
H1030  H     0.67434   0.26787   0.80110   0.00000  Uiso   1.00
H1031  H     0.95757   0.09949   0.70276   0.00000  Uiso   1.00
H1032  H     0.93626   0.15008   0.72671   0.00000  Uiso   1.00
H1033  H     0.94933   0.14899   0.66672   0.00000  Uiso   1.00
H1034  H     0.87753   0.40532   0.85654   0.00000  Uiso   1.00
H1035  H     0.77068   0.36148   0.83500   0.00000  Uiso   1.00
H1036  H     0.81236   0.36106   0.89065   0.00000  Uiso   1.00
H1037  H     0.78528   0.41261   0.86750   0.00000  Uiso   1.00
H1038  H     0.76956   0.32312   0.98838   0.00000  Uiso   1.00
H1039  H     0.74250   0.33125   0.54329   0.00000  Uiso   1.00
H1040  H     0.69992   0.31937   0.98969   0.00000  Uiso   1.00
H1041  H     0.86137   0.02938   0.68363   0.00000  Uiso   1.00
H1042  H     0.86980   0.33349   0.51694   0.00000  Uiso   1.00
H1043  H     0.87832   0.35484   0.95866   0.00000  Uiso   1.00
H1044  H     0.93173   0.35738   0.50581   0.00000  Uiso   1.00
H1045  H     0.70752   0.25959   0.59642   0.00000  Uiso   1.00
H1046  H     0.75697   0.17660   0.63601   0.00000  Uiso   1.00
H1047  H     0.68855   0.18901   0.63092   0.00000  Uiso   1.00
H1048  H     0.71845   0.18060   0.57840   0.00000  Uiso   1.00
H1049  H     0.95589   0.25734   0.90797   0.00000  Uiso   1.00
H1050  H     0.94107   0.34014   0.90536   0.00000  Uiso   1.00
H1051  H     0.91484   0.32967   0.84443   0.00000  Uiso   1.00
H1052  H     0.85218   0.47363   0.81766   0.00000  Uiso   1.00
H1053  H     0.98167   0.31842   0.86526   0.00000  Uiso   1.00
H1054  H     0.95916   0.24401   0.62490   0.00000  Uiso   1.00
H1055  H     0.97415   0.31316   0.66617   0.00000  Uiso   1.00
H1056  H     0.90558   0.32417   0.65185   0.00000  Uiso   1.00
H1057  H     0.94701   0.32218   0.60546   0.00000  Uiso   1.00
H1058  H     0.71090   0.24250   0.87984   0.00000  Uiso   1.00
H1059  H     0.73078   0.15910   0.88030   0.00000  Uiso   1.00
H1060  H     0.74785   0.17336   0.82230   0.00000  Uiso   1.00
H1061  H     0.68304   0.18140   0.83531   0.00000  Uiso   1.00
H1062  H     0.92678   0.17007   0.57131   0.00000  Uiso   1.00
H1063  H     0.71595   0.49742   0.76660   0.00000  Uiso   1.00
H1064  H     0.96510   0.17960   0.52397   0.00000  Uiso   1.00
H1065  H     0.89499   0.17438   0.51045   0.00000  Uiso   1.00
H1066  H     0.79567   0.16666   0.51149   0.00000  Uiso   1.00
H1067  H     0.79081   0.14578   0.95168   0.00000  Uiso   1.00
H1068  H     0.73536   0.14189   0.98351   0.00000  Uiso   1.00
H1069  H     0.70577   0.05271   0.78844   0.00000  Uiso   1.00
H1070  H     0.70200   0.00465   0.82547   0.00000  Uiso   1.00
H1071  H     0.73074   0.01846   0.68307   0.00000  Uiso   1.00
H1072  H     0.70546   0.46118   0.68171   0.00000  Uiso   1.00
N1073  N     0.83333   0.24999   0.62623   0.00000  Uiso   1.00
N1074  N     0.74053   0.22765   0.86537   0.00000  Uiso   1.00
N1075  N     0.83333   0.25001   0.87376   0.00000  Uiso   1.00
N1076  N     0.81011   0.11132   0.83161   0.00000  Uiso   1.00
N1077  N     0.78893   0.38090   0.66287   0.00000  Uiso   1.00
N1078  N     0.87921   0.11572   0.67892   0.00000  Uiso   1.00
N1079  N     0.84764   0.38915   0.83480   0.00000  Uiso   1.00
N1080  N     0.73825   0.24155   0.61277   0.00000  Uiso   1.00
N1081  N     0.92603   0.27269   0.88673   0.00000  Uiso   1.00
N1082  N     0.92788   0.26021   0.63477   0.00000  Uiso   1.00
O1083  O     0.83334   0.18454   0.78974   0.00000  Uiso   1.00
O1084  O     0.78129   0.47251   0.66194   0.00000  Uiso   1.00
O1085  O     0.73996   0.26598   0.51899   0.00000  Uiso   1.00
O1086  O     0.91502   0.29510   0.97854   0.00000  Uiso   1.00
O1087  O     0.92588   0.23369   0.54157   0.00000  Uiso   1.00
O1088  O     0.75187   0.20475   0.96004   0.00000  Uiso   1.00
O1089  O     0.83333   0.31547   0.71026   0.00000  Uiso   1.00
O1090  O     0.83334   0.18453   0.71026   0.00000  Uiso   1.00
O1091  O     0.83333   0.31547   0.78974   0.00000  Uiso   1.00
O1092  O     0.75725   0.25000   0.78044   0.00000  Uiso   1.00
O1093  O     0.90942   0.25000   0.71955   0.00000  Uiso   1.00
O1094  O     0.75725   0.25000   0.70096   0.00000  Uiso   1.00
O1095  O     0.90942   0.25001   0.79903   0.00000  Uiso   1.00
O1096  O     0.77701   0.02393   0.81473   0.00000  Uiso   1.00
Zn1097 Zn    0.83333   0.25001   0.80307   0.00000  Uiso   1.00
Zn1098 Zn    0.83333   0.25000   0.69693   0.00000  Uiso   1.00
C1099  C     0.16839   0.66395   0.75057   0.00000  Uiso   1.00
C1100  C     0.12588   0.72840   0.94281   0.00000  Uiso   1.00
C1101  C     0.16644   0.75016   0.52647   0.00000  Uiso   1.00
C1102  C     0.16663   0.75008   0.97334   0.00000  Uiso   1.00
C1103  C     0.06726   0.74873   0.73798   0.00000  Uiso   1.00
C1104  C     0.26611   0.75072   0.76214   0.00000  Uiso   1.00
C1105  C     0.01244   0.74381   0.73252   0.00000  Uiso   1.00
C1106  C     0.32108   0.75456   0.76817   0.00000  Uiso   1.00
C1107  C     0.13572   0.54661   0.78149   0.00000  Uiso   1.00
C1108  C     0.13397   0.95168   0.70374   0.00000  Uiso   1.00
C1109  C     0.14896   0.59141   0.78785   0.00000  Uiso   1.00
C1110  C     0.16423   0.83604   0.74945   0.00000  Uiso   1.00
C1111  C     0.13812   0.90551   0.70488   0.00000  Uiso   1.00
C1112  C     0.16934   0.61561   0.75134   0.00000  Uiso   1.00
C1113  C     0.15709   0.88398   0.74797   0.00000  Uiso   1.00
C1114  C     0.18642   0.59298   0.71354   0.00000  Uiso   1.00
C1115  C     0.16978   0.90910   0.78950   0.00000  Uiso   1.00
C1116  C     0.17918   0.54719   0.71103   0.00000  Uiso   1.00
C1117  C     0.17101   0.95470   0.78639   0.00000  Uiso   1.00
C1118  C     0.15369   0.52418   0.74442   0.00000  Uiso   1.00
C1119  C     0.15240   0.97607   0.74444   0.00000  Uiso   1.00
C1120  C     0.05629   0.51979   0.79749   0.00000  Uiso   1.00
C1121  C     0.12017   0.75712   0.54678   0.00000  Uiso   1.00
C1122  C     0.06307   0.98628   0.66454   0.00000  Uiso   1.00
C1123  C     0.19165   0.61381   0.86428   0.00000  Uiso   1.00
C1124  C     0.06972   0.86103   0.65918   0.00000  Uiso   1.00
C1125  C     0.26671   0.62917   0.69480   0.00000  Uiso   1.00
C1126  C     0.13485   0.88075   0.85808   0.00000  Uiso   1.00
C1127  C     0.07193   0.81201   0.51004   0.00000  Uiso   1.00
C1128  C     0.23055   0.83677   0.99019   0.00000  Uiso   1.00
C1129  C     0.05830   0.69452   0.61451   0.00000  Uiso   1.00
C1130  C     0.27457   0.81769   0.87510   0.00000  Uiso   1.00
C1131  C     0.27240   0.80742   0.63964   0.00000  Uiso   1.00
C1132  C     0.20756   0.77162   0.95207   0.00000  Uiso   1.00
C1133  C     0.05860   0.68290   0.85043   0.00000  Uiso   1.00
C1134  C     0.26095   0.68733   0.53684   0.00000  Uiso   1.00
C1135  C     0.10327   0.66322   0.97728   0.00000  Uiso   1.00
C1136  C     0.12025   0.75066   0.59589   0.00000  Uiso   1.00
C1137  C     0.20979   0.76632   0.90329   0.00000  Uiso   1.00
C1138  C     0.21279   0.74990   0.60684   0.00000  Uiso   1.00
C1139  C     0.12361   0.73371   0.89341   0.00000  Uiso   1.00
C1140  C     0.21266   0.74319   0.55800   0.00000  Uiso   1.00
H1141  H     0.32600   0.72959   0.70021   0.00000  Uiso   1.00
H1142  H     0.04311   0.99154   0.62822   0.00000  Uiso   1.00
H1143  H     0.11215   0.59883   0.84741   0.00000  Uiso   1.00
H1144  H     0.20329   0.57995   0.87629   0.00000  Uiso   1.00
H1145  H     0.18553   0.63364   0.89530   0.00000  Uiso   1.00
H1146  H     0.22404   0.63025   0.84762   0.00000  Uiso   1.00
H1147  H     0.12954   0.89691   0.63229   0.00000  Uiso   1.00
H1148  H     0.03994   0.88701   0.65353   0.00000  Uiso   1.00
H1149  H     0.06421   0.84175   0.69151   0.00000  Uiso   1.00
H1150  H     0.06342   0.83811   0.62883   0.00000  Uiso   1.00
H1151  H     0.20830   0.60016   0.64671   0.00000  Uiso   1.00
H1152  H     0.00767   0.76787   0.80110   0.00000  Uiso   1.00
H1153  H     0.29090   0.59949   0.70276   0.00000  Uiso   1.00
H1154  H     0.26959   0.65008   0.72671   0.00000  Uiso   1.00
H1155  H     0.28266   0.64899   0.66672   0.00000  Uiso   1.00
H1156  H     0.21086   0.90532   0.85654   0.00000  Uiso   1.00
H1157  H     0.10402   0.86148   0.83500   0.00000  Uiso   1.00
H1158  H     0.14569   0.86106   0.89065   0.00000  Uiso   1.00
H1159  H     0.11861   0.91261   0.86750   0.00000  Uiso   1.00
H1160  H     0.10289   0.82312   0.98838   0.00000  Uiso   1.00
H1161  H     0.07584   0.83125   0.54329   0.00000  Uiso   1.00
H1162  H     0.03325   0.81937   0.98969   0.00000  Uiso   1.00
H1163  H     0.19470   0.52938   0.68363   0.00000  Uiso   1.00
H1164  H     0.20313   0.83349   0.51694   0.00000  Uiso   1.00
H1165  H     0.21166   0.85484   0.95866   0.00000  Uiso   1.00
H1166  H     0.26506   0.85738   0.50581   0.00000  Uiso   1.00
H1167  H     0.04085   0.75959   0.59642   0.00000  Uiso   1.00
H1168  H     0.09031   0.67660   0.63601   0.00000  Uiso   1.00
H1169  H     0.02189   0.68901   0.63092   0.00000  Uiso   1.00
H1170  H     0.05179   0.68060   0.57840   0.00000  Uiso   1.00
H1171  H     0.28922   0.75734   0.90797   0.00000  Uiso   1.00
H1172  H     0.27441   0.84014   0.90536   0.00000  Uiso   1.00
H1173  H     0.24818   0.82967   0.84443   0.00000  Uiso   1.00
H1174  H     0.18551   0.97363   0.81766   0.00000  Uiso   1.00
H1175  H     0.31501   0.81842   0.86526   0.00000  Uiso   1.00
H1176  H     0.29250   0.74401   0.62490   0.00000  Uiso   1.00
H1177  H     0.30748   0.81316   0.66617   0.00000  Uiso   1.00
H1178  H     0.23891   0.82417   0.65185   0.00000  Uiso   1.00
H1179  H     0.28035   0.82218   0.60546   0.00000  Uiso   1.00
H1180  H     0.04424   0.74250   0.87984   0.00000  Uiso   1.00
H1181  H     0.06411   0.65910   0.88030   0.00000  Uiso   1.00
H1182  H     0.08118   0.67336   0.82230   0.00000  Uiso   1.00
H1183  H     0.01637   0.68140   0.83531   0.00000  Uiso   1.00
H1184  H     0.26011   0.67007   0.57131   0.00000  Uiso   1.00
H1185  H     0.04928   0.99742   0.76660   0.00000  Uiso   1.00
H1186  H     0.29843   0.67960   0.52397   0.00000  Uiso   1.00
H1187  H     0.22833   0.67438   0.51045   0.00000  Uiso   1.00
H1188  H     0.12900   0.66666   0.51149   0.00000  Uiso   1.00
H1189  H     0.12414   0.64578   0.95168   0.00000  Uiso   1.00
H1190  H     0.06869   0.64189   0.98351   0.00000  Uiso   1.00
H1191  H     0.03911   0.55271   0.78844   0.00000  Uiso   1.00
H1192  H     0.03534   0.50465   0.82547   0.00000  Uiso   1.00
H1193  H     0.06407   0.51846   0.68307   0.00000  Uiso   1.00
H1194  H     0.03879   0.96118   0.68171   0.00000  Uiso   1.00
N1195  N     0.16667   0.74999   0.62623   0.00000  Uiso   1.00
N1196  N     0.07386   0.72765   0.86537   0.00000  Uiso   1.00
N1197  N     0.16667   0.75001   0.87376   0.00000  Uiso   1.00
N1198  N     0.14344   0.61132   0.83161   0.00000  Uiso   1.00
N1199  N     0.12226   0.88090   0.66287   0.00000  Uiso   1.00
N1200  N     0.21254   0.61572   0.67892   0.00000  Uiso   1.00
N1201  N     0.18097   0.88915   0.83480   0.00000  Uiso   1.00
N1202  N     0.07158   0.74155   0.61277   0.00000  Uiso   1.00
N1203  N     0.25936   0.77269   0.88673   0.00000  Uiso   1.00
N1204  N     0.26121   0.76021   0.63477   0.00000  Uiso   1.00
O1205  O     0.16667   0.68454   0.78974   0.00000  Uiso   1.00
O1206  O     0.11462   0.97251   0.66194   0.00000  Uiso   1.00
O1207  O     0.07330   0.76598   0.51899   0.00000  Uiso   1.00
O1208  O     0.24835   0.79510   0.97854   0.00000  Uiso   1.00
O1209  O     0.25921   0.73369   0.54157   0.00000  Uiso   1.00
O1210  O     0.08520   0.70475   0.96004   0.00000  Uiso   1.00
O1211  O     0.16666   0.81547   0.71026   0.00000  Uiso   1.00
O1212  O     0.16667   0.68453   0.71026   0.00000  Uiso   1.00
O1213  O     0.16666   0.81547   0.78974   0.00000  Uiso   1.00
O1214  O     0.09058   0.75000   0.78044   0.00000  Uiso   1.00
O1215  O     0.24275   0.75000   0.71955   0.00000  Uiso   1.00
O1216  O     0.09058   0.75000   0.70096   0.00000  Uiso   1.00
O1217  O     0.24275   0.75001   0.79903   0.00000  Uiso   1.00
O1218  O     0.11035   0.52393   0.81473   0.00000  Uiso   1.00
Zn1219 Zn    0.16667   0.75001   0.80307   0.00000  Uiso   1.00
Zn1220 Zn    0.16667   0.75000   0.69693   0.00000  Uiso   1.00
C1221  C     0.50172   0.66395   0.75057   0.00000  Uiso   1.00
C1222  C     0.45922   0.72840   0.94281   0.00000  Uiso   1.00
C1223  C     0.49978   0.75016   0.52647   0.00000  Uiso   1.00
C1224  C     0.49996   0.75008   0.97334   0.00000  Uiso   1.00
C1225  C     0.40060   0.74873   0.73798   0.00000  Uiso   1.00
C1226  C     0.59945   0.75072   0.76214   0.00000  Uiso   1.00
C1227  C     0.34577   0.74381   0.73252   0.00000  Uiso   1.00
C1228  C     0.65441   0.75456   0.76817   0.00000  Uiso   1.00
C1229  C     0.46905   0.54661   0.78149   0.00000  Uiso   1.00
C1230  C     0.46731   0.95168   0.70374   0.00000  Uiso   1.00
C1231  C     0.48230   0.59141   0.78785   0.00000  Uiso   1.00
C1232  C     0.49756   0.83604   0.74945   0.00000  Uiso   1.00
C1233  C     0.47145   0.90551   0.70488   0.00000  Uiso   1.00
C1234  C     0.50267   0.61561   0.75134   0.00000  Uiso   1.00
C1235  C     0.49042   0.88398   0.74797   0.00000  Uiso   1.00
C1236  C     0.51975   0.59298   0.71354   0.00000  Uiso   1.00
C1237  C     0.50311   0.90910   0.78950   0.00000  Uiso   1.00
C1238  C     0.51251   0.54719   0.71103   0.00000  Uiso   1.00
C1239  C     0.50435   0.95470   0.78639   0.00000  Uiso   1.00
C1240  C     0.48702   0.52418   0.74442   0.00000  Uiso   1.00
C1241  C     0.48573   0.97607   0.74444   0.00000  Uiso   1.00
C1242  C     0.38962   0.51979   0.79749   0.00000  Uiso   1.00
C1243  C     0.45350   0.75712   0.54678   0.00000  Uiso   1.00
C1244  C     0.39641   0.98628   0.66454   0.00000  Uiso   1.00
C1245  C     0.52499   0.61381   0.86428   0.00000  Uiso   1.00
C1246  C     0.40305   0.86103   0.65918   0.00000  Uiso   1.00
C1247  C     0.60004   0.62917   0.69480   0.00000  Uiso   1.00
C1248  C     0.46818   0.88075   0.85808   0.00000  Uiso   1.00
C1249  C     0.40526   0.81201   0.51004   0.00000  Uiso   1.00
C1250  C     0.56389   0.83677   0.99019   0.00000  Uiso   1.00
C1251  C     0.39163   0.69452   0.61451   0.00000  Uiso   1.00
C1252  C     0.60791   0.81769   0.87510   0.00000  Uiso   1.00
C1253  C     0.60574   0.80742   0.63964   0.00000  Uiso   1.00
C1254  C     0.54090   0.77162   0.95207   0.00000  Uiso   1.00
C1255  C     0.39194   0.68290   0.85043   0.00000  Uiso   1.00
C1256  C     0.59428   0.68733   0.53684   0.00000  Uiso   1.00
C1257  C     0.43660   0.66322   0.97728   0.00000  Uiso   1.00
C1258  C     0.45358   0.75066   0.59589   0.00000  Uiso   1.00
C1259  C     0.54313   0.76632   0.90329   0.00000  Uiso   1.00
C1260  C     0.54613   0.74990   0.60684   0.00000  Uiso   1.00
C1261  C     0.45695   0.73371   0.89341   0.00000  Uiso   1.00
C1262  C     0.54600   0.74319   0.55800   0.00000  Uiso   1.00
H1263  H     0.65934   0.72959   0.70021   0.00000  Uiso   1.00
H1264  H     0.37644   0.99154   0.62822   0.00000  Uiso   1.00
H1265  H     0.44549   0.59883   0.84741   0.00000  Uiso   1.00
H1266  H     0.53663   0.57995   0.87629   0.00000  Uiso   1.00
H1267  H     0.51886   0.63364   0.89530   0.00000  Uiso   1.00
H1268  H     0.55737   0.63025   0.84762   0.00000  Uiso   1.00
H1269  H     0.46288   0.89691   0.63229   0.00000  Uiso   1.00
H1270  H     0.37327   0.88701   0.65353   0.00000  Uiso   1.00
H1271  H     0.39754   0.84175   0.69151   0.00000  Uiso   1.00
H1272  H     0.39676   0.83811   0.62883   0.00000  Uiso   1.00
H1273  H     0.54163   0.60016   0.64671   0.00000  Uiso   1.00
H1274  H     0.34101   0.76787   0.80110   0.00000  Uiso   1.00
H1275  H     0.62423   0.59949   0.70276   0.00000  Uiso   1.00
H1276  H     0.60293   0.65008   0.72671   0.00000  Uiso   1.00
H1277  H     0.61599   0.64899   0.66672   0.00000  Uiso   1.00
H1278  H     0.54420   0.90532   0.85654   0.00000  Uiso   1.00
H1279  H     0.43735   0.86148   0.83500   0.00000  Uiso   1.00
H1280  H     0.47902   0.86106   0.89065   0.00000  Uiso   1.00
H1281  H     0.45194   0.91261   0.86750   0.00000  Uiso   1.00
H1282  H     0.43622   0.82312   0.98838   0.00000  Uiso   1.00
H1283  H     0.40917   0.83125   0.54329   0.00000  Uiso   1.00
H1284  H     0.36658   0.81937   0.98969   0.00000  Uiso   1.00
H1285  H     0.52803   0.52938   0.68363   0.00000  Uiso   1.00
H1286  H     0.53647   0.83349   0.51694   0.00000  Uiso   1.00
H1287  H     0.54499   0.85484   0.95866   0.00000  Uiso   1.00
H1288  H     0.59839   0.85738   0.50581   0.00000  Uiso   1.00
H1289  H     0.37418   0.75959   0.59642   0.00000  Uiso   1.00
H1290  H     0.42364   0.67660   0.63601   0.00000  Uiso   1.00
H1291  H     0.35522   0.68901   0.63092   0.00000  Uiso   1.00
H1292  H     0.38512   0.68060   0.57840   0.00000  Uiso   1.00
H1293  H     0.62256   0.75734   0.90797   0.00000  Uiso   1.00
H1294  H     0.60774   0.84014   0.90536   0.00000  Uiso   1.00
H1295  H     0.58151   0.82967   0.84443   0.00000  Uiso   1.00
H1296  H     0.51885   0.97363   0.81766   0.00000  Uiso   1.00
H1297  H     0.64834   0.81842   0.86526   0.00000  Uiso   1.00
H1298  H     0.62583   0.74401   0.62490   0.00000  Uiso   1.00
H1299  H     0.64082   0.81316   0.66617   0.00000  Uiso   1.00
H1300  H     0.57224   0.82417   0.65185   0.00000  Uiso   1.00
H1301  H     0.61368   0.82218   0.60546   0.00000  Uiso   1.00
H1302  H     0.37757   0.74250   0.87984   0.00000  Uiso   1.00
H1303  H     0.39744   0.65910   0.88030   0.00000  Uiso   1.00
H1304  H     0.41451   0.67336   0.82230   0.00000  Uiso   1.00
H1305  H     0.34970   0.68140   0.83531   0.00000  Uiso   1.00
H1306  H     0.59344   0.67007   0.57131   0.00000  Uiso   1.00
H1307  H     0.38261   0.99742   0.76660   0.00000  Uiso   1.00
H1308  H     0.63176   0.67960   0.52397   0.00000  Uiso   1.00
H1309  H     0.56166   0.67438   0.51045   0.00000  Uiso   1.00
H1310  H     0.46234   0.66666   0.51149   0.00000  Uiso   1.00
H1311  H     0.45747   0.64578   0.95168   0.00000  Uiso   1.00
H1312  H     0.40202   0.64189   0.98351   0.00000  Uiso   1.00
H1313  H     0.37244   0.55271   0.78844   0.00000  Uiso   1.00
H1314  H     0.36867   0.50465   0.82547   0.00000  Uiso   1.00
H1315  H     0.39741   0.51846   0.68307   0.00000  Uiso   1.00
H1316  H     0.37213   0.96118   0.68171   0.00000  Uiso   1.00
N1317  N     0.50000   0.74999   0.62623   0.00000  Uiso   1.00
N1318  N     0.40719   0.72765   0.86537   0.00000  Uiso   1.00
N1319  N     0.50000   0.75001   0.87376   0.00000  Uiso   1.00
N1320  N     0.47678   0.61132   0.83161   0.00000  Uiso   1.00
N1321  N     0.45559   0.88090   0.66287   0.00000  Uiso   1.00
N1322  N     0.54588   0.61572   0.67892   0.00000  Uiso   1.00
N1323  N     0.51431   0.88915   0.83480   0.00000  Uiso   1.00
N1324  N     0.40492   0.74155   0.61277   0.00000  Uiso   1.00
N1325  N     0.59270   0.77269   0.88673   0.00000  Uiso   1.00
N1326  N     0.59454   0.76021   0.63477   0.00000  Uiso   1.00
O1327  O     0.50000   0.68454   0.78974   0.00000  Uiso   1.00
O1328  O     0.44795   0.97251   0.66194   0.00000  Uiso   1.00
O1329  O     0.40663   0.76598   0.51899   0.00000  Uiso   1.00
O1330  O     0.58169   0.79510   0.97854   0.00000  Uiso   1.00
O1331  O     0.59255   0.73369   0.54157   0.00000  Uiso   1.00
O1332  O     0.41853   0.70475   0.96004   0.00000  Uiso   1.00
O1333  O     0.50000   0.81547   0.71026   0.00000  Uiso   1.00
O1334  O     0.50000   0.68453   0.71026   0.00000  Uiso   1.00
O1335  O     0.50000   0.81547   0.78974   0.00000  Uiso   1.00
O1336  O     0.42392   0.75000   0.78044   0.00000  Uiso   1.00
O1337  O     0.57608   0.75000   0.71955   0.00000  Uiso   1.00
O1338  O     0.42392   0.75000   0.70096   0.00000  Uiso   1.00
O1339  O     0.57608   0.75001   0.79903   0.00000  Uiso   1.00
O1340  O     0.44368   0.52393   0.81473   0.00000  Uiso   1.00
Zn1341 Zn    0.50000   0.75001   0.80307   0.00000  Uiso   1.00
Zn1342 Zn    0.50000   0.75000   0.69693   0.00000  Uiso   1.00
C1343  C     0.83506   0.66395   0.75057   0.00000  Uiso   1.00
C1344  C     0.79255   0.72840   0.94281   0.00000  Uiso   1.00
C1345  C     0.83311   0.75016   0.52647   0.00000  Uiso   1.00
C1346  C     0.83329   0.75008   0.97334   0.00000  Uiso   1.00
C1347  C     0.73393   0.74873   0.73798   0.00000  Uiso   1.00
C1348  C     0.93278   0.75072   0.76214   0.00000  Uiso   1.00
C1349  C     0.67911   0.74381   0.73252   0.00000  Uiso   1.00
C1350  C     0.98775   0.75456   0.76817   0.00000  Uiso   1.00
C1351  C     0.80239   0.54661   0.78149   0.00000  Uiso   1.00
C1352  C     0.80064   0.95168   0.70374   0.00000  Uiso   1.00
C1353  C     0.81563   0.59141   0.78785   0.00000  Uiso   1.00
C1354  C     0.83090   0.83604   0.74945   0.00000  Uiso   1.00
C1355  C     0.80479   0.90551   0.70488   0.00000  Uiso   1.00
C1356  C     0.83601   0.61561   0.75134   0.00000  Uiso   1.00
C1357  C     0.82375   0.88398   0.74797   0.00000  Uiso   1.00
C1358  C     0.85309   0.59298   0.71354   0.00000  Uiso   1.00
C1359  C     0.83645   0.90910   0.78950   0.00000  Uiso   1.00
C1360  C     0.84585   0.54719   0.71103   0.00000  Uiso   1.00
C1361  C     0.83768   0.95470   0.78639   0.00000  Uiso   1.00
C1362  C     0.82035   0.52418   0.74442   0.00000  Uiso   1.00
C1363  C     0.81906   0.97607   0.74444   0.00000  Uiso   1.00
C1364  C     0.72296   0.51979   0.79749   0.00000  Uiso   1.00
C1365  C     0.78684   0.75712   0.54678   0.00000  Uiso   1.00
C1366  C     0.72974   0.98628   0.66454   0.00000  Uiso   1.00
C1367  C     0.85832   0.61381   0.86428   0.00000  Uiso   1.00
C1368  C     0.73639   0.86103   0.65918   0.00000  Uiso   1.00
C1369  C     0.93338   0.62917   0.69480   0.00000  Uiso   1.00
C1370  C     0.80151   0.88075   0.85808   0.00000  Uiso   1.00
C1371  C     0.73860   0.81201   0.51004   0.00000  Uiso   1.00
C1372  C     0.89722   0.83677   0.99019   0.00000  Uiso   1.00
C1373  C     0.72497   0.69452   0.61451   0.00000  Uiso   1.00
C1374  C     0.94124   0.81769   0.87510   0.00000  Uiso   1.00
C1375  C     0.93907   0.80742   0.63964   0.00000  Uiso   1.00
C1376  C     0.87423   0.77162   0.95207   0.00000  Uiso   1.00
C1377  C     0.72527   0.68290   0.85043   0.00000  Uiso   1.00
C1378  C     0.92761   0.68733   0.53684   0.00000  Uiso   1.00
C1379  C     0.76994   0.66322   0.97728   0.00000  Uiso   1.00
C1380  C     0.78691   0.75066   0.59589   0.00000  Uiso   1.00
C1381  C     0.87646   0.76632   0.90329   0.00000  Uiso   1.00
C1382  C     0.87946   0.74990   0.60684   0.00000  Uiso   1.00
C1383  C     0.79028   0.73371   0.89341   0.00000  Uiso   1.00
C1384  C     0.87933   0.74319   0.55800   0.00000  Uiso   1.00
H1385  H     0.99267   0.72959   0.70021   0.00000  Uiso   1.00
H1386  H     0.70977   0.99154   0.62822   0.00000  Uiso   1.00
H1387  H     0.77882   0.59883   0.84741   0.00000  Uiso   1.00
H1388  H     0.86996   0.57995   0.87629   0.00000  Uiso   1.00
H1389  H     0.85219   0.63364   0.89530   0.00000  Uiso   1.00
H1390  H     0.89071   0.63025   0.84762   0.00000  Uiso   1.00
H1391  H     0.79621   0.89691   0.63229   0.00000  Uiso   1.00
H1392  H     0.70661   0.88701   0.65353   0.00000  Uiso   1.00
H1393  H     0.73087   0.84175   0.69151   0.00000  Uiso   1.00
H1394  H     0.73009   0.83811   0.62883   0.00000  Uiso   1.00
H1395  H     0.87496   0.60016   0.64671   0.00000  Uiso   1.00
H1396  H     0.67434   0.76787   0.80110   0.00000  Uiso   1.00
H1397  H     0.95757   0.59949   0.70276   0.00000  Uiso   1.00
H1398  H     0.93626   0.65008   0.72671   0.00000  Uiso   1.00
H1399  H     0.94933   0.64899   0.66672   0.00000  Uiso   1.00
H1400  H     0.87753   0.90532   0.85654   0.00000  Uiso   1.00
H1401  H     0.77068   0.86148   0.83500   0.00000  Uiso   1.00
H1402  H     0.81236   0.86106   0.89065   0.00000  Uiso   1.00
H1403  H     0.78528   0.91261   0.86750   0.00000  Uiso   1.00
H1404  H     0.76956   0.82312   0.98838   0.00000  Uiso   1.00
H1405  H     0.74250   0.83125   0.54329   0.00000  Uiso   1.00
H1406  H     0.69992   0.81937   0.98969   0.00000  Uiso   1.00
H1407  H     0.86137   0.52938   0.68363   0.00000  Uiso   1.00
H1408  H     0.86980   0.83349   0.51694   0.00000  Uiso   1.00
H1409  H     0.87832   0.85484   0.95866   0.00000  Uiso   1.00
H1410  H     0.93173   0.85738   0.50581   0.00000  Uiso   1.00
H1411  H     0.70752   0.75959   0.59642   0.00000  Uiso   1.00
H1412  H     0.75697   0.67660   0.63601   0.00000  Uiso   1.00
H1413  H     0.68855   0.68901   0.63092   0.00000  Uiso   1.00
H1414  H     0.71845   0.68060   0.57840   0.00000  Uiso   1.00
H1415  H     0.95589   0.75734   0.90797   0.00000  Uiso   1.00
H1416  H     0.94107   0.84014   0.90536   0.00000  Uiso   1.00
H1417  H     0.91484   0.82967   0.84443   0.00000  Uiso   1.00
H1418  H     0.85218   0.97363   0.81766   0.00000  Uiso   1.00
H1419  H     0.98167   0.81842   0.86526   0.00000  Uiso   1.00
H1420  H     0.95916   0.74401   0.62490   0.00000  Uiso   1.00
H1421  H     0.97415   0.81316   0.66617   0.00000  Uiso   1.00
H1422  H     0.90558   0.82417   0.65185   0.00000  Uiso   1.00
H1423  H     0.94701   0.82218   0.60546   0.00000  Uiso   1.00
H1424  H     0.71090   0.74250   0.87984   0.00000  Uiso   1.00
H1425  H     0.73078   0.65910   0.88030   0.00000  Uiso   1.00
H1426  H     0.74785   0.67336   0.82230   0.00000  Uiso   1.00
H1427  H     0.68304   0.68140   0.83531   0.00000  Uiso   1.00
H1428  H     0.92678   0.67007   0.57131   0.00000  Uiso   1.00
H1429  H     0.71595   0.99742   0.76660   0.00000  Uiso   1.00
H1430  H     0.96510   0.67960   0.52397   0.00000  Uiso   1.00
H1431  H     0.89499   0.67438   0.51045   0.00000  Uiso   1.00
H1432  H     0.79567   0.66666   0.51149   0.00000  Uiso   1.00
H1433  H     0.79081   0.64578   0.95168   0.00000  Uiso   1.00
H1434  H     0.73536   0.64189   0.98351   0.00000  Uiso   1.00
H1435  H     0.70577   0.55271   0.78844   0.00000  Uiso   1.00
H1436  H     0.70200   0.50465   0.82547   0.00000  Uiso   1.00
H1437  H     0.73074   0.51846   0.68307   0.00000  Uiso   1.00
H1438  H     0.70546   0.96118   0.68171   0.00000  Uiso   1.00
N1439  N     0.83333   0.74999   0.62623   0.00000  Uiso   1.00
N1440  N     0.74053   0.72765   0.86537   0.00000  Uiso   1.00
N1441  N     0.83333   0.75001   0.87376   0.00000  Uiso   1.00
N1442  N     0.81011   0.61132   0.83161   0.00000  Uiso   1.00
N1443  N     0.78893   0.88090   0.66287   0.00000  Uiso   1.00
N1444  N     0.87921   0.61572   0.67892   0.00000  Uiso   1.00
N1445  N     0.84764   0.88915   0.83480   0.00000  Uiso   1.00
N1446  N     0.73825   0.74155   0.61277   0.00000  Uiso   1.00
N1447  N     0.92603   0.77269   0.88673   0.00000  Uiso   1.00
N1448  N     0.92788   0.76021   0.63477   0.00000  Uiso   1.00
O1449  O     0.83334   0.68454   0.78974   0.00000  Uiso   1.00
O1450  O     0.78129   0.97251   0.66194   0.00000  Uiso   1.00
O1451  O     0.73996   0.76598   0.51899   0.00000  Uiso   1.00
O1452  O     0.91502   0.79510   0.97854   0.00000  Uiso   1.00
O1453  O     0.92588   0.73369   0.54157   0.00000  Uiso   1.00
O1454  O     0.75187   0.70475   0.96004   0.00000  Uiso   1.00
O1455  O     0.83333   0.81547   0.71026   0.00000  Uiso   1.00
O1456  O     0.83334   0.68453   0.71026   0.00000  Uiso   1.00
O1457  O     0.83333   0.81547   0.78974   0.00000  Uiso   1.00
O1458  O     0.75725   0.75000   0.78044   0.00000  Uiso   1.00
O1459  O     0.90942   0.75000   0.71955   0.00000  Uiso   1.00
O1460  O     0.75725   0.75000   0.70096   0.00000  Uiso   1.00
O1461  O     0.90942   0.75001   0.79903   0.00000  Uiso   1.00
O1462  O     0.77701   0.52393   0.81473   0.00000  Uiso   1.00
Zn1463 Zn    0.83333   0.75001   0.80307   0.00000  Uiso   1.00
Zn1464 Zn    0.83333   0.75000   0.69693   0.00000  Uiso   1.00
loop_
_geom_bond_atom_site_label_1
_geom_bond_atom_site_label_2
_geom_bond_distance
_geom_bond_site_symmetry_2
_ccdc_geom_bond_type
C1     O107    1.297   .     A
C1     O114    1.301   .     A
C1     C14     1.458   .     S
C2     O112    1.385   .     S
C2     C41     1.417   .     A
C2     C4      1.415   .     A
C3     C42     1.411   .     A
C3     C23     1.414   .     A
C3     C736    1.524   1_554 S
C4     C34     1.418   .     A
C4     C735    1.524   .     S
C5     C7      1.397   .     S
C5     O116    1.282   .     A
C5     O118    1.286   .     A
C6     O117    1.286   .     A
C6     C8      1.398   .     S
C6     O119    1.284   .     A
C7     C252    1.323   1_455 S
C7     H287    1.080   1_455 S
C8     C129    1.323   .     S
C8     H176    1.085   .     S
C9     C20     1.404   .     A
C9     C11     1.389   .     A
C9     O120    1.385   .     S
C10    O108    1.386   .     S
C10    C21     1.405   .     A
C10    C13     1.400   .     A
C11    C14     1.415   .     A
C11    N100    1.424   .     S
C12    O115    1.299   .     A
C12    C15     1.463   .     S
C12    O113    1.300   .     A
C13    C15     1.423   .     A
C13    N101    1.426   .     S
C14    C16     1.415   .     A
C15    C17     1.413   .     A
C16    N102    1.426   .     S
C16    C18     1.388   .     A
C17    N103    1.423   .     S
C17    C19     1.376   .     A
C18    H65     1.084   .     S
C18    C20     1.395   .     A
C19    H76     1.084   .     S
C19    C21     1.392   .     A
C20    C387    1.450   1_545 S
C21    C386    1.450   .     S
C22    O120    1.410   .     S
C22    H94     1.109   .     S
C22    H93     1.114   .     S
C22    H453    1.111   1_545 S
C23    O109    1.383   .     S
C23    C38     1.419   .     A
C24    H96     1.114   .     S
C24    O108    1.412   .     S
C24    H44     1.109   .     S
C24    H461    1.110   .     S
C25    N100    1.448   .     S
C25    H47     1.110   .     S
C25    H48     1.111   .     S
C25    H46     1.111   .     S
C26    N101    1.446   .     S
C26    H52     1.109   .     S
C26    H50     1.109   .     S
C26    H51     1.110   .     S
C27    H55     1.112   .     S
C27    H57     1.110   .     S
C27    H56     1.111   .     S
C27    N102    1.447   .     S
C28    H61     1.112   .     S
C28    H60     1.109   .     S
C28    H59     1.112   .     S
C28    N103    1.448   .     S
C29    H63     1.113   .     S
C29    O109    1.409   .     S
C29    H794    1.112   1_554 S
C29    H796    1.109   1_554 S
C30    O110    1.412   .     S
C30    H67     1.112   .     S
C30    H798    1.110   .     S
C30    H800    1.109   .     S
C31    H70     1.111   .     S
C31    H72     1.111   .     S
C31    N104    1.448   .     S
C31    H71     1.108   .     S
C32    H75     1.101   .     S
C32    H77     1.111   .     S
C32    N105    1.445   .     S
C32    H74     1.108   .     S
C33    H79     1.107   .     S
C33    N106    1.446   .     S
C33    H80     1.111   .     S
C33    H81     1.112   .     S
C34    C39     1.419   .     A
C34    O110    1.385   .     S
C35    N98     1.445   .     S
C35    H83     1.108   .     S
C35    H84     1.102   .     S
C35    H85     1.111   .     S
C36    H89     1.113   .     S
C36    H88     1.109   .     S
C36    H86     1.114   .     S
C36    O111    1.409   .     S
C37    O112    1.412   .     S
C37    H91     1.113   .     S
C37    H92     1.109   .     S
C37    H822    1.110   .     S
C38    N104    1.415   .     S
C38    N97     1.377   .     A
C39    N105    1.422   .     S
C39    N99     1.378   .     A
C40    N97     1.374   .     A
C40    N106    1.411   .     S
C40    C42     1.417   .     A
C41    N99     1.378   .     A
C41    N98     1.421   .     S
C42    O111    1.382   .     S
H43    C129    1.080   .     S
H45    N100    1.031   .     S
H49    N101    1.031   .     S
H53    N102    1.032   .     S
H54    C252    1.085   1_455 S
H58    N103    1.032   .     S
H62    C761    1.112   .     S
H64    C761    1.109   .     S
H66    C762    1.110   1_554 S
H68    C762    1.109   1_554 S
H69    N104    1.031   .     S
H73    N105    1.032   .     S
H78    N106    1.028   .     S
H82    N98     1.032   .     S
H87    C388    1.111   .     S
H90    C769    1.110   1_554 S
H95    C390    1.110   1_545 S
N97    Zn122   2.027   .     S
N99    Zn121   2.027   .     S
O107   Zn121   2.015   .     S
O113   Zn122   2.015   .     S
O114   Zn122   2.006   .     S
O115   Zn121   2.006   .     S
O116   Zn121   1.972   .     S
O117   Zn122   1.972   .     S
O118   Zn122   1.971   .     S
O119   Zn121   1.971   .     S
C123   O229    1.297   .     A
C123   O236    1.301   .     A
C123   C136    1.458   .     S
C124   O234    1.385   .     S
C124   C163    1.417   .     A
C124   C126    1.415   .     A
C125   C164    1.411   .     A
C125   C145    1.414   .     A
C125   C858    1.524   1_554 S
C126   C156    1.418   .     A
C126   C857    1.524   .     S
C127   C129    1.397   .     S
C127   O238    1.282   .     A
C127   O240    1.286   .     A
C128   O239    1.286   .     A
C128   C130    1.398   .     S
C128   O241    1.284   .     A
C130   C251    1.323   .     S
C130   H298    1.085   .     S
C131   C142    1.404   .     A
C131   C133    1.389   .     A
C131   O242    1.385   .     S
C132   O230    1.386   .     S
C132   C143    1.405   .     A
C132   C135    1.400   .     A
C133   C136    1.415   .     A
C133   N222    1.424   .     S
C134   O237    1.299   .     A
C134   C137    1.463   .     S
C134   O235    1.300   .     A
C135   C137    1.423   .     A
C135   N223    1.426   .     S
C136   C138    1.415   .     A
C137   C139    1.413   .     A
C138   N224    1.426   .     S
C138   C140    1.388   .     A
C139   N225    1.423   .     S
C139   C141    1.376   .     A
C140   H187    1.084   .     S
C140   C142    1.395   .     A
C141   H198    1.084   .     S
C141   C143    1.392   .     A
C142   C509    1.450   1_545 S
C143   C508    1.450   .     S
C144   O242    1.410   .     S
C144   H216    1.109   .     S
C144   H215    1.114   .     S
C144   H575    1.111   1_545 S
C145   O231    1.383   .     S
C145   C160    1.419   .     A
C146   H218    1.114   .     S
C146   O230    1.412   .     S
C146   H166    1.109   .     S
C146   H583    1.110   .     S
C147   N222    1.448   .     S
C147   H169    1.110   .     S
C147   H170    1.111   .     S
C147   H168    1.111   .     S
C148   N223    1.446   .     S
C148   H174    1.109   .     S
C148   H172    1.109   .     S
C148   H173    1.110   .     S
C149   H177    1.112   .     S
C149   H179    1.110   .     S
C149   H178    1.111   .     S
C149   N224    1.447   .     S
C150   H183    1.112   .     S
C150   H182    1.109   .     S
C150   H181    1.112   .     S
C150   N225    1.448   .     S
C151   H185    1.113   .     S
C151   O231    1.409   .     S
C151   H916    1.112   1_554 S
C151   H918    1.109   1_554 S
C152   O232    1.412   .     S
C152   H189    1.112   .     S
C152   H920    1.110   .     S
C152   H922    1.109   .     S
C153   H192    1.111   .     S
C153   H194    1.111   .     S
C153   N226    1.448   .     S
C153   H193    1.108   .     S
C154   H197    1.101   .     S
C154   H199    1.111   .     S
C154   N227    1.445   .     S
C154   H196    1.108   .     S
C155   H201    1.107   .     S
C155   N228    1.446   .     S
C155   H202    1.111   .     S
C155   H203    1.112   .     S
C156   C161    1.419   .     A
C156   O232    1.385   .     S
C157   N220    1.445   .     S
C157   H205    1.108   .     S
C157   H206    1.102   .     S
C157   H207    1.111   .     S
C158   H211    1.113   .     S
C158   H210    1.109   .     S
C158   H208    1.114   .     S
C158   O233    1.409   .     S
C159   O234    1.412   .     S
C159   H213    1.113   .     S
C159   H214    1.109   .     S
C159   H944    1.110   .     S
C160   N226    1.415   .     S
C160   N219    1.377   .     A
C161   N227    1.422   .     S
C161   N221    1.378   .     A
C162   N219    1.374   .     A
C162   N228    1.411   .     S
C162   C164    1.417   .     A
C163   N221    1.378   .     A
C163   N220    1.421   .     S
C164   O233    1.382   .     S
H165   C251    1.080   .     S
H167   N222    1.031   .     S
H171   N223    1.031   .     S
H175   N224    1.032   .     S
H180   N225    1.032   .     S
H184   C883    1.112   .     S
H186   C883    1.109   .     S
H188   C884    1.110   1_554 S
H190   C884    1.109   1_554 S
H191   N226    1.031   .     S
H195   N227    1.032   .     S
H200   N228    1.028   .     S
H204   N220    1.032   .     S
H209   C510    1.111   .     S
H212   C891    1.110   1_554 S
H217   C512    1.110   1_545 S
N219   Zn244   2.027   .     S
N221   Zn243   2.027   .     S
O229   Zn243   2.015   .     S
O235   Zn244   2.015   .     S
O236   Zn244   2.006   .     S
O237   Zn243   2.006   .     S
O238   Zn243   1.972   .     S
O239   Zn244   1.972   .     S
O240   Zn244   1.971   .     S
O241   Zn243   1.971   .     S
C245   O351    1.297   .     A
C245   O358    1.301   .     A
C245   C258    1.458   .     S
C246   O356    1.385   .     S
C246   C285    1.417   .     A
C246   C248    1.415   .     A
C247   C286    1.411   .     A
C247   C267    1.414   .     A
C247   C980    1.524   1_554 S
C248   C278    1.418   .     A
C248   C979    1.524   .     S
C249   C251    1.397   .     S
C249   O360    1.282   .     A
C249   O362    1.286   .     A
C250   O361    1.286   .     A
C250   C252    1.398   .     S
C250   O363    1.284   .     A
C252   C7      1.323   1_655 S
C252   H54     1.085   1_655 S
C253   C264    1.404   .     A
C253   C255    1.389   .     A
C253   O364    1.385   .     S
C254   O352    1.386   .     S
C254   C265    1.405   .     A
C254   C257    1.400   .     A
C255   C258    1.415   .     A
C255   N344    1.424   .     S
C256   O359    1.299   .     A
C256   C259    1.463   .     S
C256   O357    1.300   .     A
C257   C259    1.423   .     A
C257   N345    1.426   .     S
C258   C260    1.415   .     A
C259   C261    1.413   .     A
C260   N346    1.426   .     S
C260   C262    1.388   .     A
C261   N347    1.423   .     S
C261   C263    1.376   .     A
C262   H309    1.084   .     S
C262   C264    1.395   .     A
C263   H320    1.084   .     S
C263   C265    1.392   .     A
C264   C631    1.450   1_545 S
C265   C630    1.450   .     S
C266   O364    1.410   .     S
C266   H338    1.109   .     S
C266   H337    1.114   .     S
C266   H697    1.111   1_545 S
C267   O353    1.383   .     S
C267   C282    1.419   .     A
C268   H340    1.114   .     S
C268   O352    1.412   .     S
C268   H288    1.109   .     S
C268   H705    1.110   .     S
C269   N344    1.448   .     S
C269   H291    1.110   .     S
C269   H292    1.111   .     S
C269   H290    1.111   .     S
C270   N345    1.446   .     S
C270   H296    1.109   .     S
C270   H294    1.109   .     S
C270   H295    1.110   .     S
C271   H299    1.112   .     S
C271   H301    1.110   .     S
C271   H300    1.111   .     S
C271   N346    1.447   .     S
C272   H305    1.112   .     S
C272   H304    1.109   .     S
C272   H303    1.112   .     S
C272   N347    1.448   .     S
C273   H307    1.113   .     S
C273   O353    1.409   .     S
C273   H1038   1.112   1_554 S
C273   H1040   1.109   1_554 S
C274   O354    1.412   .     S
C274   H311    1.112   .     S
C274   H1042   1.110   .     S
C274   H1044   1.109   .     S
C275   H314    1.111   .     S
C275   H316    1.111   .     S
C275   N348    1.448   .     S
C275   H315    1.108   .     S
C276   H319    1.101   .     S
C276   H321    1.111   .     S
C276   N349    1.445   .     S
C276   H318    1.108   .     S
C277   H323    1.107   .     S
C277   N350    1.446   .     S
C277   H324    1.111   .     S
C277   H325    1.112   .     S
C278   C283    1.419   .     A
C278   O354    1.385   .     S
C279   N342    1.445   .     S
C279   H327    1.108   .     S
C279   H328    1.102   .     S
C279   H329    1.111   .     S
C280   H333    1.113   .     S
C280   H332    1.109   .     S
C280   H330    1.114   .     S
C280   O355    1.409   .     S
C281   O356    1.412   .     S
C281   H335    1.113   .     S
C281   H336    1.109   .     S
C281   H1066   1.110   .     S
C282   N348    1.415   .     S
C282   N341    1.377   .     A
C283   N349    1.422   .     S
C283   N343    1.378   .     A
C284   N341    1.374   .     A
C284   N350    1.411   .     S
C284   C286    1.417   .     A
C285   N343    1.378   .     A
C285   N342    1.421   .     S
C286   O355    1.382   .     S
H287   C7      1.080   1_655 S
H289   N344    1.031   .     S
H293   N345    1.031   .     S
H297   N346    1.032   .     S
H302   N347    1.032   .     S
H306   C1005   1.112   .     S
H308   C1005   1.109   .     S
H310   C1006   1.110   1_554 S
H312   C1006   1.109   1_554 S
H313   N348    1.031   .     S
H317   N349    1.032   .     S
H322   N350    1.028   .     S
H326   N342    1.032   .     S
H331   C632    1.111   .     S
H334   C1013   1.110   1_554 S
H339   C634    1.110   1_545 S
N341   Zn366   2.027   .     S
N343   Zn365   2.027   .     S
O351   Zn365   2.015   .     S
O357   Zn366   2.015   .     S
O358   Zn366   2.006   .     S
O359   Zn365   2.006   .     S
O360   Zn365   1.972   .     S
O361   Zn366   1.972   .     S
O362   Zn366   1.971   .     S
O363   Zn365   1.971   .     S
C367   O473    1.297   .     A
C367   O480    1.301   .     A
C367   C380    1.458   .     S
C368   O478    1.385   .     S
C368   C407    1.417   .     A
C368   C370    1.415   .     A
C369   C408    1.411   .     A
C369   C389    1.414   .     A
C369   C1102   1.524   1_554 S
C370   C400    1.418   .     A
C370   C1101   1.524   .     S
C371   C373    1.397   .     S
C371   O482    1.282   .     A
C371   O484    1.286   .     A
C372   O483    1.286   .     A
C372   C374    1.398   .     S
C372   O485    1.284   .     A
C373   C618    1.323   1_455 S
C373   H653    1.080   1_455 S
C374   C495    1.323   .     S
C374   H542    1.085   .     S
C375   C386    1.404   .     A
C375   C377    1.389   .     A
C375   O486    1.385   .     S
C376   O474    1.386   .     S
C376   C387    1.405   .     A
C376   C379    1.400   .     A
C377   C380    1.415   .     A
C377   N466    1.424   .     S
C378   O481    1.299   .     A
C378   C381    1.463   .     S
C378   O479    1.300   .     A
C379   C381    1.423   .     A
C379   N467    1.426   .     S
C380   C382    1.415   .     A
C381   C383    1.413   .     A
C382   N468    1.426   .     S
C382   C384    1.388   .     A
C383   N469    1.423   .     S
C383   C385    1.376   .     A
C384   H431    1.084   .     S
C384   C386    1.395   .     A
C385   H442    1.084   .     S
C385   C387    1.392   .     A
C387   C20     1.450   1_565 S
C388   O486    1.410   .     S
C388   H460    1.109   .     S
C388   H459    1.114   .     S
C389   O475    1.383   .     S
C389   C404    1.419   .     A
C390   H462    1.114   .     S
C390   O474    1.412   .     S
C390   H410    1.109   .     S
C390   H95     1.110   1_565 S
C391   N466    1.448   .     S
C391   H413    1.110   .     S
C391   H414    1.111   .     S
C391   H412    1.111   .     S
C392   N467    1.446   .     S
C392   H418    1.109   .     S
C392   H416    1.109   .     S
C392   H417    1.110   .     S
C393   H421    1.112   .     S
C393   H423    1.110   .     S
C393   H422    1.111   .     S
C393   N468    1.447   .     S
C394   H427    1.112   .     S
C394   H426    1.109   .     S
C394   H425    1.112   .     S
C394   N469    1.448   .     S
C395   H429    1.113   .     S
C395   O475    1.409   .     S
C395   H1160   1.112   1_554 S
C395   H1162   1.109   1_554 S
C396   O476    1.412   .     S
C396   H433    1.112   .     S
C396   H1164   1.110   .     S
C396   H1166   1.109   .     S
C397   H436    1.111   .     S
C397   H438    1.111   .     S
C397   N470    1.448   .     S
C397   H437    1.108   .     S
C398   H441    1.101   .     S
C398   H443    1.111   .     S
C398   N471    1.445   .     S
C398   H440    1.108   .     S
C399   H445    1.107   .     S
C399   N472    1.446   .     S
C399   H446    1.111   .     S
C399   H447    1.112   .     S
C400   C405    1.419   .     A
C400   O476    1.385   .     S
C401   N464    1.445   .     S
C401   H449    1.108   .     S
C401   H450    1.102   .     S
C401   H451    1.111   .     S
C402   H455    1.113   .     S
C402   H454    1.109   .     S
C402   H452    1.114   .     S
C402   O477    1.409   .     S
C403   O478    1.412   .     S
C403   H457    1.113   .     S
C403   H458    1.109   .     S
C403   H1188   1.110   .     S
C404   N470    1.415   .     S
C404   N463    1.377   .     A
C405   N471    1.422   .     S
C405   N465    1.378   .     A
C406   N463    1.374   .     A
C406   N472    1.411   .     S
C406   C408    1.417   .     A
C407   N465    1.378   .     A
C407   N464    1.421   .     S
C408   O477    1.382   .     S
H409   C495    1.080   .     S
H411   N466    1.031   .     S
H415   N467    1.031   .     S
H419   N468    1.032   .     S
H420   C618    1.085   1_455 S
H424   N469    1.032   .     S
H428   C1127   1.112   .     S
H430   C1127   1.109   .     S
H432   C1128   1.110   1_554 S
H434   C1128   1.109   1_554 S
H435   N470    1.031   .     S
H439   N471    1.032   .     S
H444   N472    1.028   .     S
H448   N464    1.032   .     S
H453   C22     1.111   1_565 S
H456   C1135   1.110   1_554 S
N463   Zn488   2.027   .     S
N465   Zn487   2.027   .     S
O473   Zn487   2.015   .     S
O479   Zn488   2.015   .     S
O480   Zn488   2.006   .     S
O481   Zn487   2.006   .     S
O482   Zn487   1.972   .     S
O483   Zn488   1.972   .     S
O484   Zn488   1.971   .     S
O485   Zn487   1.971   .     S
C489   O595    1.297   .     A
C489   O602    1.301   .     A
C489   C502    1.458   .     S
C490   O600    1.385   .     S
C490   C529    1.417   .     A
C490   C492    1.415   .     A
C491   C530    1.411   .     A
C491   C511    1.414   .     A
C491   C1224   1.524   1_554 S
C492   C522    1.418   .     A
C492   C1223   1.524   .     S
C493   C495    1.397   .     S
C493   O604    1.282   .     A
C493   O606    1.286   .     A
C494   O605    1.286   .     A
C494   C496    1.398   .     S
C494   O607    1.284   .     A
C496   C617    1.323   .     S
C496   H664    1.085   .     S
C497   C508    1.404   .     A
C497   C499    1.389   .     A
C497   O608    1.385   .     S
C498   O596    1.386   .     S
C498   C509    1.405   .     A
C498   C501    1.400   .     A
C499   C502    1.415   .     A
C499   N588    1.424   .     S
C500   O603    1.299   .     A
C500   C503    1.463   .     S
C500   O601    1.300   .     A
C501   C503    1.423   .     A
C501   N589    1.426   .     S
C502   C504    1.415   .     A
C503   C505    1.413   .     A
C504   N590    1.426   .     S
C504   C506    1.388   .     A
C505   N591    1.423   .     S
C505   C507    1.376   .     A
C506   H553    1.084   .     S
C506   C508    1.395   .     A
C507   H564    1.084   .     S
C507   C509    1.392   .     A
C509   C142    1.450   1_565 S
C510   O608    1.410   .     S
C510   H582    1.109   .     S
C510   H581    1.114   .     S
C511   O597    1.383   .     S
C511   C526    1.419   .     A
C512   H584    1.114   .     S
C512   O596    1.412   .     S
C512   H532    1.109   .     S
C512   H217    1.110   1_565 S
C513   N588    1.448   .     S
C513   H535    1.110   .     S
C513   H536    1.111   .     S
C513   H534    1.111   .     S
C514   N589    1.446   .     S
C514   H540    1.109   .     S
C514   H538    1.109   .     S
C514   H539    1.110   .     S
C515   H543    1.112   .     S
C515   H545    1.110   .     S
C515   H544    1.111   .     S
C515   N590    1.447   .     S
C516   H549    1.112   .     S
C516   H548    1.109   .     S
C516   H547    1.112   .     S
C516   N591    1.448   .     S
C517   H551    1.113   .     S
C517   O597    1.409   .     S
C517   H1282   1.112   1_554 S
C517   H1284   1.109   1_554 S
C518   O598    1.412   .     S
C518   H555    1.112   .     S
C518   H1286   1.110   .     S
C518   H1288   1.109   .     S
C519   H558    1.111   .     S
C519   H560    1.111   .     S
C519   N592    1.448   .     S
C519   H559    1.108   .     S
C520   H563    1.101   .     S
C520   H565    1.111   .     S
C520   N593    1.445   .     S
C520   H562    1.108   .     S
C521   H567    1.107   .     S
C521   N594    1.446   .     S
C521   H568    1.111   .     S
C521   H569    1.112   .     S
C522   C527    1.419   .     A
C522   O598    1.385   .     S
C523   N586    1.445   .     S
C523   H571    1.108   .     S
C523   H572    1.102   .     S
C523   H573    1.111   .     S
C524   H577    1.113   .     S
C524   H576    1.109   .     S
C524   H574    1.114   .     S
C524   O599    1.409   .     S
C525   O600    1.412   .     S
C525   H579    1.113   .     S
C525   H580    1.109   .     S
C525   H1310   1.110   .     S
C526   N592    1.415   .     S
C526   N585    1.377   .     A
C527   N593    1.422   .     S
C527   N587    1.378   .     A
C528   N585    1.374   .     A
C528   N594    1.411   .     S
C528   C530    1.417   .     A
C529   N587    1.378   .     A
C529   N586    1.421   .     S
C530   O599    1.382   .     S
H531   C617    1.080   .     S
H533   N588    1.031   .     S
H537   N589    1.031   .     S
H541   N590    1.032   .     S
H546   N591    1.032   .     S
H550   C1249   1.112   .     S
H552   C1249   1.109   .     S
H554   C1250   1.110   1_554 S
H556   C1250   1.109   1_554 S
H557   N592    1.031   .     S
H561   N593    1.032   .     S
H566   N594    1.028   .     S
H570   N586    1.032   .     S
H575   C144    1.111   1_565 S
H578   C1257   1.110   1_554 S
N585   Zn610   2.027   .     S
N587   Zn609   2.027   .     S
O595   Zn609   2.015   .     S
O601   Zn610   2.015   .     S
O602   Zn610   2.006   .     S
O603   Zn609   2.006   .     S
O604   Zn609   1.972   .     S
O605   Zn610   1.972   .     S
O606   Zn610   1.971   .     S
O607   Zn609   1.971   .     S
C611   O717    1.297   .     A
C611   O724    1.301   .     A
C611   C624    1.458   .     S
C612   O722    1.385   .     S
C612   C651    1.417   .     A
C612   C614    1.415   .     A
C613   C652    1.411   .     A
C613   C633    1.414   .     A
C613   C1346   1.524   1_554 S
C614   C644    1.418   .     A
C614   C1345   1.524   .     S
C615   C617    1.397   .     S
C615   O726    1.282   .     A
C615   O728    1.286   .     A
C616   O727    1.286   .     A
C616   C618    1.398   .     S
C616   O729    1.284   .     A
C618   C373    1.323   1_655 S
C618   H420    1.085   1_655 S
C619   C630    1.404   .     A
C619   C621    1.389   .     A
C619   O730    1.385   .     S
C620   O718    1.386   .     S
C620   C631    1.405   .     A
C620   C623    1.400   .     A
C621   C624    1.415   .     A
C621   N710    1.424   .     S
C622   O725    1.299   .     A
C622   C625    1.463   .     S
C622   O723    1.300   .     A
C623   C625    1.423   .     A
C623   N711    1.426   .     S
C624   C626    1.415   .     A
C625   C627    1.413   .     A
C626   N712    1.426   .     S
C626   C628    1.388   .     A
C627   N713    1.423   .     S
C627   C629    1.376   .     A
C628   H675    1.084   .     S
C628   C630    1.395   .     A
C629   H686    1.084   .     S
C629   C631    1.392   .     A
C631   C264    1.450   1_565 S
C632   O730    1.410   .     S
C632   H704    1.109   .     S
C632   H703    1.114   .     S
C633   O719    1.383   .     S
C633   C648    1.419   .     A
C634   H706    1.114   .     S
C634   O718    1.412   .     S
C634   H654    1.109   .     S
C634   H339    1.110   1_565 S
C635   N710    1.448   .     S
C635   H657    1.110   .     S
C635   H658    1.111   .     S
C635   H656    1.111   .     S
C636   N711    1.446   .     S
C636   H662    1.109   .     S
C636   H660    1.109   .     S
C636   H661    1.110   .     S
C637   H665    1.112   .     S
C637   H667    1.110   .     S
C637   H666    1.111   .     S
C637   N712    1.447   .     S
C638   H671    1.112   .     S
C638   H670    1.109   .     S
C638   H669    1.112   .     S
C638   N713    1.448   .     S
C639   H673    1.113   .     S
C639   O719    1.409   .     S
C639   H1404   1.112   1_554 S
C639   H1406   1.109   1_554 S
C640   O720    1.412   .     S
C640   H677    1.112   .     S
C640   H1408   1.110   .     S
C640   H1410   1.109   .     S
C641   H680    1.111   .     S
C641   H682    1.111   .     S
C641   N714    1.448   .     S
C641   H681    1.108   .     S
C642   H685    1.101   .     S
C642   H687    1.111   .     S
C642   N715    1.445   .     S
C642   H684    1.108   .     S
C643   H689    1.107   .     S
C643   N716    1.446   .     S
C643   H690    1.111   .     S
C643   H691    1.112   .     S
C644   C649    1.419   .     A
C644   O720    1.385   .     S
C645   N708    1.445   .     S
C645   H693    1.108   .     S
C645   H694    1.102   .     S
C645   H695    1.111   .     S
C646   H699    1.113   .     S
C646   H698    1.109   .     S
C646   H696    1.114   .     S
C646   O721    1.409   .     S
C647   O722    1.412   .     S
C647   H701    1.113   .     S
C647   H702    1.109   .     S
C647   H1432   1.110   .     S
C648   N714    1.415   .     S
C648   N707    1.377   .     A
C649   N715    1.422   .     S
C649   N709    1.378   .     A
C650   N707    1.374   .     A
C650   N716    1.411   .     S
C650   C652    1.417   .     A
C651   N709    1.378   .     A
C651   N708    1.421   .     S
C652   O721    1.382   .     S
H653   C373    1.080   1_655 S
H655   N710    1.031   .     S
H659   N711    1.031   .     S
H663   N712    1.032   .     S
H668   N713    1.032   .     S
H672   C1371   1.112   .     S
H674   C1371   1.109   .     S
H676   C1372   1.110   1_554 S
H678   C1372   1.109   1_554 S
H679   N714    1.031   .     S
H683   N715    1.032   .     S
H688   N716    1.028   .     S
H692   N708    1.032   .     S
H697   C266    1.111   1_565 S
H700   C1379   1.110   1_554 S
N707   Zn732   2.027   .     S
N709   Zn731   2.027   .     S
O717   Zn731   2.015   .     S
O723   Zn732   2.015   .     S
O724   Zn732   2.006   .     S
O725   Zn731   2.006   .     S
O726   Zn731   1.972   .     S
O727   Zn732   1.972   .     S
O728   Zn732   1.971   .     S
O729   Zn731   1.971   .     S
C733   O839    1.297   .     A
C733   O846    1.301   .     A
C733   C746    1.458   .     S
C734   O844    1.385   .     S
C734   C773    1.417   .     A
C734   C736    1.415   .     A
C735   C774    1.411   .     A
C735   C755    1.414   .     A
C736   C766    1.418   .     A
C736   C3      1.524   1_556 S
C737   C739    1.397   .     S
C737   O848    1.282   .     A
C737   O850    1.286   .     A
C738   O849    1.286   .     A
C738   C740    1.398   .     S
C738   O851    1.284   .     A
C739   C984    1.323   1_455 S
C739   H1019   1.080   1_455 S
C740   C861    1.323   .     S
C740   H908    1.085   .     S
C741   C752    1.404   .     A
C741   C743    1.389   .     A
C741   O852    1.385   .     S
C742   O840    1.386   .     S
C742   C753    1.405   .     A
C742   C745    1.400   .     A
C743   C746    1.415   .     A
C743   N832    1.424   .     S
C744   O847    1.299   .     A
C744   C747    1.463   .     S
C744   O845    1.300   .     A
C745   C747    1.423   .     A
C745   N833    1.426   .     S
C746   C748    1.415   .     A
C747   C749    1.413   .     A
C748   N834    1.426   .     S
C748   C750    1.388   .     A
C749   N835    1.423   .     S
C749   C751    1.376   .     A
C750   H797    1.084   .     S
C750   C752    1.395   .     A
C751   H808    1.084   .     S
C751   C753    1.392   .     A
C752   C1119   1.450   1_545 S
C753   C1118   1.450   .     S
C754   O852    1.410   .     S
C754   H826    1.109   .     S
C754   H825    1.114   .     S
C754   H1185   1.111   1_545 S
C755   O841    1.383   .     S
C755   C770    1.419   .     A
C756   H828    1.114   .     S
C756   O840    1.412   .     S
C756   H776    1.109   .     S
C756   H1193   1.110   .     S
C757   N832    1.448   .     S
C757   H779    1.110   .     S
C757   H780    1.111   .     S
C757   H778    1.111   .     S
C758   N833    1.446   .     S
C758   H784    1.109   .     S
C758   H782    1.109   .     S
C758   H783    1.110   .     S
C759   H787    1.112   .     S
C759   H789    1.110   .     S
C759   H788    1.111   .     S
C759   N834    1.447   .     S
C760   H793    1.112   .     S
C760   H792    1.109   .     S
C760   H791    1.112   .     S
C760   N835    1.448   .     S
C761   H795    1.113   .     S
C761   O841    1.409   .     S
C762   O842    1.412   .     S
C762   H799    1.112   .     S
C762   H66     1.110   1_556 S
C762   H68     1.109   1_556 S
C763   H802    1.111   .     S
C763   H804    1.111   .     S
C763   N836    1.448   .     S
C763   H803    1.108   .     S
C764   H807    1.101   .     S
C764   H809    1.111   .     S
C764   N837    1.445   .     S
C764   H806    1.108   .     S
C765   H811    1.107   .     S
C765   N838    1.446   .     S
C765   H812    1.111   .     S
C765   H813    1.112   .     S
C766   C771    1.419   .     A
C766   O842    1.385   .     S
C767   N830    1.445   .     S
C767   H815    1.108   .     S
C767   H816    1.102   .     S
C767   H817    1.111   .     S
C768   H821    1.113   .     S
C768   H820    1.109   .     S
C768   H818    1.114   .     S
C768   O843    1.409   .     S
C769   O844    1.412   .     S
C769   H823    1.113   .     S
C769   H824    1.109   .     S
C769   H90     1.110   1_556 S
C770   N836    1.415   .     S
C770   N829    1.377   .     A
C771   N837    1.422   .     S
C771   N831    1.378   .     A
C772   N829    1.374   .     A
C772   N838    1.411   .     S
C772   C774    1.417   .     A
C773   N831    1.378   .     A
C773   N830    1.421   .     S
C774   O843    1.382   .     S
H775   C861    1.080   .     S
H777   N832    1.031   .     S
H781   N833    1.031   .     S
H785   N834    1.032   .     S
H786   C984    1.085   1_455 S
H790   N835    1.032   .     S
H794   C29     1.112   1_556 S
H796   C29     1.109   1_556 S
H801   N836    1.031   .     S
H805   N837    1.032   .     S
H810   N838    1.028   .     S
H814   N830    1.032   .     S
H819   C1120   1.111   .     S
H827   C1122   1.110   1_545 S
N829   Zn854   2.027   .     S
N831   Zn853   2.027   .     S
O839   Zn853   2.015   .     S
O845   Zn854   2.015   .     S
O846   Zn854   2.006   .     S
O847   Zn853   2.006   .     S
O848   Zn853   1.972   .     S
O849   Zn854   1.972   .     S
O850   Zn854   1.971   .     S
O851   Zn853   1.971   .     S
C855   O961    1.297   .     A
C855   O968    1.301   .     A
C855   C868    1.458   .     S
C856   O966    1.385   .     S
C856   C895    1.417   .     A
C856   C858    1.415   .     A
C857   C896    1.411   .     A
C857   C877    1.414   .     A
C858   C888    1.418   .     A
C858   C125    1.524   1_556 S
C859   C861    1.397   .     S
C859   O970    1.282   .     A
C859   O972    1.286   .     A
C860   O971    1.286   .     A
C860   C862    1.398   .     S
C860   O973    1.284   .     A
C862   C983    1.323   .     S
C862   H1030   1.085   .     S
C863   C874    1.404   .     A
C863   C865    1.389   .     A
C863   O974    1.385   .     S
C864   O962    1.386   .     S
C864   C875    1.405   .     A
C864   C867    1.400   .     A
C865   C868    1.415   .     A
C865   N954    1.424   .     S
C866   O969    1.299   .     A
C866   C869    1.463   .     S
C866   O967    1.300   .     A
C867   C869    1.423   .     A
C867   N955    1.426   .     S
C868   C870    1.415   .     A
C869   C871    1.413   .     A
C870   N956    1.426   .     S
C870   C872    1.388   .     A
C871   N957    1.423   .     S
C871   C873    1.376   .     A
C872   H919    1.084   .     S
C872   C874    1.395   .     A
C873   H930    1.084   .     S
C873   C875    1.392   .     A
C874   C1241   1.450   1_545 S
C875   C1240   1.450   .     S
C876   O974    1.410   .     S
C876   H948    1.109   .     S
C876   H947    1.114   .     S
C876   H1307   1.111   1_545 S
C877   O963    1.383   .     S
C877   C892    1.419   .     A
C878   H950    1.114   .     S
C878   O962    1.412   .     S
C878   H898    1.109   .     S
C878   H1315   1.110   .     S
C879   N954    1.448   .     S
C879   H901    1.110   .     S
C879   H902    1.111   .     S
C879   H900    1.111   .     S
C880   N955    1.446   .     S
C880   H906    1.109   .     S
C880   H904    1.109   .     S
C880   H905    1.110   .     S
C881   H909    1.112   .     S
C881   H911    1.110   .     S
C881   H910    1.111   .     S
C881   N956    1.447   .     S
C882   H915    1.112   .     S
C882   H914    1.109   .     S
C882   H913    1.112   .     S
C882   N957    1.448   .     S
C883   H917    1.113   .     S
C883   O963    1.409   .     S
C884   O964    1.412   .     S
C884   H921    1.112   .     S
C884   H188    1.110   1_556 S
C884   H190    1.109   1_556 S
C885   H924    1.111   .     S
C885   H926    1.111   .     S
C885   N958    1.448   .     S
C885   H925    1.108   .     S
C886   H929    1.101   .     S
C886   H931    1.111   .     S
C886   N959    1.445   .     S
C886   H928    1.108   .     S
C887   H933    1.107   .     S
C887   N960    1.446   .     S
C887   H934    1.111   .     S
C887   H935    1.112   .     S
C888   C893    1.419   .     A
C888   O964    1.385   .     S
C889   N952    1.445   .     S
C889   H937    1.108   .     S
C889   H938    1.102   .     S
C889   H939    1.111   .     S
C890   H943    1.113   .     S
C890   H942    1.109   .     S
C890   H940    1.114   .     S
C890   O965    1.409   .     S
C891   O966    1.412   .     S
C891   H945    1.113   .     S
C891   H946    1.109   .     S
C891   H212    1.110   1_556 S
C892   N958    1.415   .     S
C892   N951    1.377   .     A
C893   N959    1.422   .     S
C893   N953    1.378   .     A
C894   N951    1.374   .     A
C894   N960    1.411   .     S
C894   C896    1.417   .     A
C895   N953    1.378   .     A
C895   N952    1.421   .     S
C896   O965    1.382   .     S
H897   C983    1.080   .     S
H899   N954    1.031   .     S
H903   N955    1.031   .     S
H907   N956    1.032   .     S
H912   N957    1.032   .     S
H916   C151    1.112   1_556 S
H918   C151    1.109   1_556 S
H923   N958    1.031   .     S
H927   N959    1.032   .     S
H932   N960    1.028   .     S
H936   N952    1.032   .     S
H941   C1242   1.111   .     S
H949   C1244   1.110   1_545 S
N951   Zn976   2.027   .     S
N953   Zn975   2.027   .     S
O961   Zn975   2.015   .     S
O967   Zn976   2.015   .     S
O968   Zn976   2.006   .     S
O969   Zn975   2.006   .     S
O970   Zn975   1.972   .     S
O971   Zn976   1.972   .     S
O972   Zn976   1.971   .     S
O973   Zn975   1.971   .     S
C977   O1083   1.297   .     A
C977   O1090   1.301   .     A
C977   C990    1.458   .     S
C978   O1088   1.385   .     S
C978   C1017   1.417   .     A
C978   C980    1.415   .     A
C979   C1018   1.411   .     A
C979   C999    1.414   .     A
C980   C1010   1.418   .     A
C980   C247    1.524   1_556 S
C981   C983    1.397   .     S
C981   O1092   1.282   .     A
C981   O1094   1.286   .     A
C982   O1093   1.286   .     A
C982   C984    1.398   .     S
C982   O1095   1.284   .     A
C984   C739    1.323   1_655 S
C984   H786    1.085   1_655 S
C985   C996    1.404   .     A
C985   C987    1.389   .     A
C985   O1096   1.385   .     S
C986   O1084   1.386   .     S
C986   C997    1.405   .     A
C986   C989    1.400   .     A
C987   C990    1.415   .     A
C987   N1076   1.424   .     S
C988   O1091   1.299   .     A
C988   C991    1.463   .     S
C988   O1089   1.300   .     A
C989   C991    1.423   .     A
C989   N1077   1.426   .     S
C990   C992    1.415   .     A
C991   C993    1.413   .     A
C992   N1078   1.426   .     S
C992   C994    1.388   .     A
C993   N1079   1.423   .     S
C993   C995    1.376   .     A
C994   H1041   1.084   .     S
C994   C996    1.395   .     A
C995   H1052   1.084   .     S
C995   C997    1.392   .     A
C996   C1363   1.450   1_545 S
C997   C1362   1.450   .     S
C998   O1096   1.410   .     S
C998   H1070   1.109   .     S
C998   H1069   1.114   .     S
C998   H1429   1.111   1_545 S
C999   O1085   1.383   .     S
C999   C1014   1.419   .     A
C1000  H1072   1.114   .     S
C1000  O1084   1.412   .     S
C1000  H1020   1.109   .     S
C1000  H1437   1.110   .     S
C1001  N1076   1.448   .     S
C1001  H1023   1.110   .     S
C1001  H1024   1.111   .     S
C1001  H1022   1.111   .     S
C1002  N1077   1.446   .     S
C1002  H1028   1.109   .     S
C1002  H1026   1.109   .     S
C1002  H1027   1.110   .     S
C1003  H1031   1.112   .     S
C1003  H1033   1.110   .     S
C1003  H1032   1.111   .     S
C1003  N1078   1.447   .     S
C1004  H1037   1.112   .     S
C1004  H1036   1.109   .     S
C1004  H1035   1.112   .     S
C1004  N1079   1.448   .     S
C1005  H1039   1.113   .     S
C1005  O1085   1.409   .     S
C1006  O1086   1.412   .     S
C1006  H1043   1.112   .     S
C1006  H310    1.110   1_556 S
C1006  H312    1.109   1_556 S
C1007  H1046   1.111   .     S
C1007  H1048   1.111   .     S
C1007  N1080   1.448   .     S
C1007  H1047   1.108   .     S
C1008  H1051   1.101   .     S
C1008  H1053   1.111   .     S
C1008  N1081   1.445   .     S
C1008  H1050   1.108   .     S
C1009  H1055   1.107   .     S
C1009  N1082   1.446   .     S
C1009  H1056   1.111   .     S
C1009  H1057   1.112   .     S
C1010  C1015   1.419   .     A
C1010  O1086   1.385   .     S
C1011  N1074   1.445   .     S
C1011  H1059   1.108   .     S
C1011  H1060   1.102   .     S
C1011  H1061   1.111   .     S
C1012  H1065   1.113   .     S
C1012  H1064   1.109   .     S
C1012  H1062   1.114   .     S
C1012  O1087   1.409   .     S
C1013  O1088   1.412   .     S
C1013  H1067   1.113   .     S
C1013  H1068   1.109   .     S
C1013  H334    1.110   1_556 S
C1014  N1080   1.415   .     S
C1014  N1073   1.377   .     A
C1015  N1081   1.422   .     S
C1015  N1075   1.378   .     A
C1016  N1073   1.374   .     A
C1016  N1082   1.411   .     S
C1016  C1018   1.417   .     A
C1017  N1075   1.378   .     A
C1017  N1074   1.421   .     S
C1018  O1087   1.382   .     S
H1019  C739    1.080   1_655 S
H1021  N1076   1.031   .     S
H1025  N1077   1.031   .     S
H1029  N1078   1.032   .     S
H1034  N1079   1.032   .     S
H1038  C273    1.112   1_556 S
H1040  C273    1.109   1_556 S
H1045  N1080   1.031   .     S
H1049  N1081   1.032   .     S
H1054  N1082   1.028   .     S
H1058  N1074   1.032   .     S
H1063  C1364   1.111   .     S
H1071  C1366   1.110   1_545 S
N1073  Zn1098  2.027   .     S
N1075  Zn1097  2.027   .     S
O1083  Zn1097  2.015   .     S
O1089  Zn1098  2.015   .     S
O1090  Zn1098  2.006   .     S
O1091  Zn1097  2.006   .     S
O1092  Zn1097  1.972   .     S
O1093  Zn1098  1.972   .     S
O1094  Zn1098  1.971   .     S
O1095  Zn1097  1.971   .     S
C1099  O1205   1.297   .     A
C1099  O1212   1.301   .     A
C1099  C1112   1.458   .     S
C1100  O1210   1.385   .     S
C1100  C1139   1.417   .     A
C1100  C1102   1.415   .     A
C1101  C1140   1.411   .     A
C1101  C1121   1.414   .     A
C1102  C1132   1.418   .     A
C1102  C369    1.524   1_556 S
C1103  C1105   1.397   .     S
C1103  O1214   1.282   .     A
C1103  O1216   1.286   .     A
C1104  O1215   1.286   .     A
C1104  C1106   1.398   .     S
C1104  O1217   1.284   .     A
C1105  C1350   1.323   1_455 S
C1105  H1385   1.080   1_455 S
C1106  C1227   1.323   .     S
C1106  H1274   1.085   .     S
C1107  C1118   1.404   .     A
C1107  C1109   1.389   .     A
C1107  O1218   1.385   .     S
C1108  O1206   1.386   .     S
C1108  C1119   1.405   .     A
C1108  C1111   1.400   .     A
C1109  C1112   1.415   .     A
C1109  N1198   1.424   .     S
C1110  O1213   1.299   .     A
C1110  C1113   1.463   .     S
C1110  O1211   1.300   .     A
C1111  C1113   1.423   .     A
C1111  N1199   1.426   .     S
C1112  C1114   1.415   .     A
C1113  C1115   1.413   .     A
C1114  N1200   1.426   .     S
C1114  C1116   1.388   .     A
C1115  N1201   1.423   .     S
C1115  C1117   1.376   .     A
C1116  H1163   1.084   .     S
C1116  C1118   1.395   .     A
C1117  H1174   1.084   .     S
C1117  C1119   1.392   .     A
C1119  C752    1.450   1_565 S
C1120  O1218   1.410   .     S
C1120  H1192   1.109   .     S
C1120  H1191   1.114   .     S
C1121  O1207   1.383   .     S
C1121  C1136   1.419   .     A
C1122  H1194   1.114   .     S
C1122  O1206   1.412   .     S
C1122  H1142   1.109   .     S
C1122  H827    1.110   1_565 S
C1123  N1198   1.448   .     S
C1123  H1145   1.110   .     S
C1123  H1146   1.111   .     S
C1123  H1144   1.111   .     S
C1124  N1199   1.446   .     S
C1124  H1150   1.109   .     S
C1124  H1148   1.109   .     S
C1124  H1149   1.110   .     S
C1125  H1153   1.112   .     S
C1125  H1155   1.110   .     S
C1125  H1154   1.111   .     S
C1125  N1200   1.447   .     S
C1126  H1159   1.112   .     S
C1126  H1158   1.109   .     S
C1126  H1157   1.112   .     S
C1126  N1201   1.448   .     S
C1127  H1161   1.113   .     S
C1127  O1207   1.409   .     S
C1128  O1208   1.412   .     S
C1128  H1165   1.112   .     S
C1128  H432    1.110   1_556 S
C1128  H434    1.109   1_556 S
C1129  H1168   1.111   .     S
C1129  H1170   1.111   .     S
C1129  N1202   1.448   .     S
C1129  H1169   1.108   .     S
C1130  H1173   1.101   .     S
C1130  H1175   1.111   .     S
C1130  N1203   1.445   .     S
C1130  H1172   1.108   .     S
C1131  H1177   1.107   .     S
C1131  N1204   1.446   .     S
C1131  H1178   1.111   .     S
C1131  H1179   1.112   .     S
C1132  C1137   1.419   .     A
C1132  O1208   1.385   .     S
C1133  N1196   1.445   .     S
C1133  H1181   1.108   .     S
C1133  H1182   1.102   .     S
C1133  H1183   1.111   .     S
C1134  H1187   1.113   .     S
C1134  H1186   1.109   .     S
C1134  H1184   1.114   .     S
C1134  O1209   1.409   .     S
C1135  O1210   1.412   .     S
C1135  H1189   1.113   .     S
C1135  H1190   1.109   .     S
C1135  H456    1.110   1_556 S
C1136  N1202   1.415   .     S
C1136  N1195   1.377   .     A
C1137  N1203   1.422   .     S
C1137  N1197   1.378   .     A
C1138  N1195   1.374   .     A
C1138  N1204   1.411   .     S
C1138  C1140   1.417   .     A
C1139  N1197   1.378   .     A
C1139  N1196   1.421   .     S
C1140  O1209   1.382   .     S
H1141  C1227   1.080   .     S
H1143  N1198   1.031   .     S
H1147  N1199   1.031   .     S
H1151  N1200   1.032   .     S
H1152  C1350   1.085   1_455 S
H1156  N1201   1.032   .     S
H1160  C395    1.112   1_556 S
H1162  C395    1.109   1_556 S
H1167  N1202   1.031   .     S
H1171  N1203   1.032   .     S
H1176  N1204   1.028   .     S
H1180  N1196   1.032   .     S
H1185  C754    1.111   1_565 S
N1195  Zn1220  2.027   .     S
N1197  Zn1219  2.027   .     S
O1205  Zn1219  2.015   .     S
O1211  Zn1220  2.015   .     S
O1212  Zn1220  2.006   .     S
O1213  Zn1219  2.006   .     S
O1214  Zn1219  1.972   .     S
O1215  Zn1220  1.972   .     S
O1216  Zn1220  1.971   .     S
O1217  Zn1219  1.971   .     S
C1221  O1327   1.297   .     A
C1221  O1334   1.301   .     A
C1221  C1234   1.458   .     S
C1222  O1332   1.385   .     S
C1222  C1261   1.417   .     A
C1222  C1224   1.415   .     A
C1223  C1262   1.411   .     A
C1223  C1243   1.414   .     A
C1224  C1254   1.418   .     A
C1224  C491    1.524   1_556 S
C1225  C1227   1.397   .     S
C1225  O1336   1.282   .     A
C1225  O1338   1.286   .     A
C1226  O1337   1.286   .     A
C1226  C1228   1.398   .     S
C1226  O1339   1.284   .     A
C1228  C1349   1.323   .     S
C1228  H1396   1.085   .     S
C1229  C1240   1.404   .     A
C1229  C1231   1.389   .     A
C1229  O1340   1.385   .     S
C1230  O1328   1.386   .     S
C1230  C1241   1.405   .     A
C1230  C1233   1.400   .     A
C1231  C1234   1.415   .     A
C1231  N1320   1.424   .     S
C1232  O1335   1.299   .     A
C1232  C1235   1.463   .     S
C1232  O1333   1.300   .     A
C1233  C1235   1.423   .     A
C1233  N1321   1.426   .     S
C1234  C1236   1.415   .     A
C1235  C1237   1.413   .     A
C1236  N1322   1.426   .     S
C1236  C1238   1.388   .     A
C1237  N1323   1.423   .     S
C1237  C1239   1.376   .     A
C1238  H1285   1.084   .     S
C1238  C1240   1.395   .     A
C1239  H1296   1.084   .     S
C1239  C1241   1.392   .     A
C1241  C874    1.450   1_565 S
C1242  O1340   1.410   .     S
C1242  H1314   1.109   .     S
C1242  H1313   1.114   .     S
C1243  O1329   1.383   .     S
C1243  C1258   1.419   .     A
C1244  H1316   1.114   .     S
C1244  O1328   1.412   .     S
C1244  H1264   1.109   .     S
C1244  H949    1.110   1_565 S
C1245  N1320   1.448   .     S
C1245  H1267   1.110   .     S
C1245  H1268   1.111   .     S
C1245  H1266   1.111   .     S
C1246  N1321   1.446   .     S
C1246  H1272   1.109   .     S
C1246  H1270   1.109   .     S
C1246  H1271   1.110   .     S
C1247  H1275   1.112   .     S
C1247  H1277   1.110   .     S
C1247  H1276   1.111   .     S
C1247  N1322   1.447   .     S
C1248  H1281   1.112   .     S
C1248  H1280   1.109   .     S
C1248  H1279   1.112   .     S
C1248  N1323   1.448   .     S
C1249  H1283   1.113   .     S
C1249  O1329   1.409   .     S
C1250  O1330   1.412   .     S
C1250  H1287   1.112   .     S
C1250  H554    1.110   1_556 S
C1250  H556    1.109   1_556 S
C1251  H1290   1.111   .     S
C1251  H1292   1.111   .     S
C1251  N1324   1.448   .     S
C1251  H1291   1.108   .     S
C1252  H1295   1.101   .     S
C1252  H1297   1.111   .     S
C1252  N1325   1.445   .     S
C1252  H1294   1.108   .     S
C1253  H1299   1.107   .     S
C1253  N1326   1.446   .     S
C1253  H1300   1.111   .     S
C1253  H1301   1.112   .     S
C1254  C1259   1.419   .     A
C1254  O1330   1.385   .     S
C1255  N1318   1.445   .     S
C1255  H1303   1.108   .     S
C1255  H1304   1.102   .     S
C1255  H1305   1.111   .     S
C1256  H1309   1.113   .     S
C1256  H1308   1.109   .     S
C1256  H1306   1.114   .     S
C1256  O1331   1.409   .     S
C1257  O1332   1.412   .     S
C1257  H1311   1.113   .     S
C1257  H1312   1.109   .     S
C1257  H578    1.110   1_556 S
C1258  N1324   1.415   .     S
C1258  N1317   1.377   .     A
C1259  N1325   1.422   .     S
C1259  N1319   1.378   .     A
C1260  N1317   1.374   .     A
C1260  N1326   1.411   .     S
C1260  C1262   1.417   .     A
C1261  N1319   1.378   .     A
C1261  N1318   1.421   .     S
C1262  O1331   1.382   .     S
H1263  C1349   1.080   .     S
H1265  N1320   1.031   .     S
H1269  N1321   1.031   .     S
H1273  N1322   1.032   .     S
H1278  N1323   1.032   .     S
H1282  C517    1.112   1_556 S
H1284  C517    1.109   1_556 S
H1289  N1324   1.031   .     S
H1293  N1325   1.032   .     S
H1298  N1326   1.028   .     S
H1302  N1318   1.032   .     S
H1307  C876    1.111   1_565 S
N1317  Zn1342  2.027   .     S
N1319  Zn1341  2.027   .     S
O1327  Zn1341  2.015   .     S
O1333  Zn1342  2.015   .     S
O1334  Zn1342  2.006   .     S
O1335  Zn1341  2.006   .     S
O1336  Zn1341  1.972   .     S
O1337  Zn1342  1.972   .     S
O1338  Zn1342  1.971   .     S
O1339  Zn1341  1.971   .     S
C1343  O1449   1.297   .     A
C1343  O1456   1.301   .     A
C1343  C1356   1.458   .     S
C1344  O1454   1.385   .     S
C1344  C1383   1.417   .     A
C1344  C1346   1.415   .     A
C1345  C1384   1.411   .     A
C1345  C1365   1.414   .     A
C1346  C1376   1.418   .     A
C1346  C613    1.524   1_556 S
C1347  C1349   1.397   .     S
C1347  O1458   1.282   .     A
C1347  O1460   1.286   .     A
C1348  O1459   1.286   .     A
C1348  C1350   1.398   .     S
C1348  O1461   1.284   .     A
C1350  C1105   1.323   1_655 S
C1350  H1152   1.085   1_655 S
C1351  C1362   1.404   .     A
C1351  C1353   1.389   .     A
C1351  O1462   1.385   .     S
C1352  O1450   1.386   .     S
C1352  C1363   1.405   .     A
C1352  C1355   1.400   .     A
C1353  C1356   1.415   .     A
C1353  N1442   1.424   .     S
C1354  O1457   1.299   .     A
C1354  C1357   1.463   .     S
C1354  O1455   1.300   .     A
C1355  C1357   1.423   .     A
C1355  N1443   1.426   .     S
C1356  C1358   1.415   .     A
C1357  C1359   1.413   .     A
C1358  N1444   1.426   .     S
C1358  C1360   1.388   .     A
C1359  N1445   1.423   .     S
C1359  C1361   1.376   .     A
C1360  H1407   1.084   .     S
C1360  C1362   1.395   .     A
C1361  H1418   1.084   .     S
C1361  C1363   1.392   .     A
C1363  C996    1.450   1_565 S
C1364  O1462   1.410   .     S
C1364  H1436   1.109   .     S
C1364  H1435   1.114   .     S
C1365  O1451   1.383   .     S
C1365  C1380   1.419   .     A
C1366  H1438   1.114   .     S
C1366  O1450   1.412   .     S
C1366  H1386   1.109   .     S
C1366  H1071   1.110   1_565 S
C1367  N1442   1.448   .     S
C1367  H1389   1.110   .     S
C1367  H1390   1.111   .     S
C1367  H1388   1.111   .     S
C1368  N1443   1.446   .     S
C1368  H1394   1.109   .     S
C1368  H1392   1.109   .     S
C1368  H1393   1.110   .     S
C1369  H1397   1.112   .     S
C1369  H1399   1.110   .     S
C1369  H1398   1.111   .     S
C1369  N1444   1.447   .     S
C1370  H1403   1.112   .     S
C1370  H1402   1.109   .     S
C1370  H1401   1.112   .     S
C1370  N1445   1.448   .     S
C1371  H1405   1.113   .     S
C1371  O1451   1.409   .     S
C1372  O1452   1.412   .     S
C1372  H1409   1.112   .     S
C1372  H676    1.110   1_556 S
C1372  H678    1.109   1_556 S
C1373  H1412   1.111   .     S
C1373  H1414   1.111   .     S
C1373  N1446   1.448   .     S
C1373  H1413   1.108   .     S
C1374  H1417   1.101   .     S
C1374  H1419   1.111   .     S
C1374  N1447   1.445   .     S
C1374  H1416   1.108   .     S
C1375  H1421   1.107   .     S
C1375  N1448   1.446   .     S
C1375  H1422   1.111   .     S
C1375  H1423   1.112   .     S
C1376  C1381   1.419   .     A
C1376  O1452   1.385   .     S
C1377  N1440   1.445   .     S
C1377  H1425   1.108   .     S
C1377  H1426   1.102   .     S
C1377  H1427   1.111   .     S
C1378  H1431   1.113   .     S
C1378  H1430   1.109   .     S
C1378  H1428   1.114   .     S
C1378  O1453   1.409   .     S
C1379  O1454   1.412   .     S
C1379  H1433   1.113   .     S
C1379  H1434   1.109   .     S
C1379  H700    1.110   1_556 S
C1380  N1446   1.415   .     S
C1380  N1439   1.377   .     A
C1381  N1447   1.422   .     S
C1381  N1441   1.378   .     A
C1382  N1439   1.374   .     A
C1382  N1448   1.411   .     S
C1382  C1384   1.417   .     A
C1383  N1441   1.378   .     A
C1383  N1440   1.421   .     S
C1384  O1453   1.382   .     S
H1385  C1105   1.080   1_655 S
H1387  N1442   1.031   .     S
H1391  N1443   1.031   .     S
H1395  N1444   1.032   .     S
H1400  N1445   1.032   .     S
H1404  C639    1.112   1_556 S
H1406  C639    1.109   1_556 S
H1411  N1446   1.031   .     S
H1415  N1447   1.032   .     S
H1420  N1448   1.028   .     S
H1424  N1440   1.032   .     S
H1429  C998    1.111   1_565 S
N1439  Zn1464  2.027   .     S
N1441  Zn1463  2.027   .     S
O1449  Zn1463  2.015   .     S
O1455  Zn1464  2.015   .     S
O1456  Zn1464  2.006   .     S
O1457  Zn1463  2.006   .     S
O1458  Zn1463  1.972   .     S
O1459  Zn1464  1.972   .     S
O1460  Zn1464  1.971   .     S
O1461  Zn1463  1.971   .     S
