data_str_m3_o1_o10_pcu_sym.113
_audit_creation_date              2020-01-03
_audit_creation_method            'Materials Studio'
_symmetry_space_group_name_H-M    'P1'
_symmetry_Int_Tables_number       1
_symmetry_cell_setting            triclinic
loop_
_symmetry_equiv_pos_as_xyz
  x,y,z
_cell_length_a                    26.4354
_cell_length_b                    31.9284
_cell_length_c                    29.7941
_cell_angle_alpha                 91.1156
_cell_angle_beta                  99.6280
_cell_angle_gamma                 92.0391
loop_
_atom_site_label
_atom_site_type_symbol
_atom_site_fract_x
_atom_site_fract_y
_atom_site_fract_z
_atom_site_U_iso_or_equiv
_atom_site_adp_type
_atom_site_occupancy
C1     C     0.16829   0.08691   0.16662   0.00000  Uiso   1.00
C2     C     0.16504   0.24643   0.16672   0.00000  Uiso   1.00
C3     C     0.06733   0.16680   0.15473   0.00000  Uiso   1.00
C4     C     0.26600   0.16654   0.17860   0.00000  Uiso   1.00
C5     C     0.01267   0.16723   0.14831   0.00000  Uiso   1.00
C6     C     0.32066   0.16610   0.18502   0.00000  Uiso   1.00
C7     C     0.20484   0.02091   0.14617   0.00000  Uiso   1.00
C8     C     0.12850   0.31242   0.18717   0.00000  Uiso   1.00
C9     C     0.20147   0.31111   0.14600   0.00000  Uiso   1.00
C10    C     0.13187   0.02223   0.18733   0.00000  Uiso   1.00
C11    C     0.16430   0.29061   0.16669   0.00000  Uiso   1.00
C12    C     0.16903   0.04272   0.16664   0.00000  Uiso   1.00
C13    C     0.19872   0.19300   0.03014   0.00000  Uiso   1.00
C14    C     0.13461   0.14034   0.30320   0.00000  Uiso   1.00
C15    C     0.19993   0.19317   0.31613   0.00000  Uiso   1.00
C16    C     0.13341   0.14017   0.01721   0.00000  Uiso   1.00
H17    H     0.22910   0.29322   0.13128   0.00000  Uiso   1.00
H18    H     0.10424   0.04012   0.20206   0.00000  Uiso   1.00
H19    H     0.22472   0.21315   0.05369   0.00000  Uiso   1.00
H20    H     0.10861   0.12019   0.27964   0.00000  Uiso   1.00
N21    N     0.16665   0.16666   0.28573   0.00000  Uiso   1.00
N22    N     0.16668   0.16668   0.04760   0.00000  Uiso   1.00
O23    O     0.16666   0.10558   0.20487   0.00000  Uiso   1.00
O24    O     0.16667   0.22775   0.12846   0.00000  Uiso   1.00
O25    O     0.16666   0.10559   0.12843   0.00000  Uiso   1.00
O26    O     0.16667   0.22774   0.20490   0.00000  Uiso   1.00
O27    O     0.09058   0.16666   0.19595   0.00000  Uiso   1.00
O28    O     0.24275   0.16667   0.13739   0.00000  Uiso   1.00
O29    O     0.09058   0.16667   0.11950   0.00000  Uiso   1.00
O30    O     0.24275   0.16666   0.21383   0.00000  Uiso   1.00
Zn31   Zn    0.16667   0.16666   0.21771   0.00000  Uiso   1.00
Zn32   Zn    0.16667   0.16667   0.11563   0.00000  Uiso   1.00
C33    C     0.32120   0.16819   0.09975   0.00000  Uiso   1.00
O34    O     0.32521   0.20000   0.07824   0.00000  Uiso   1.00
O35    O     0.29469   0.13240   0.07876   0.00000  Uiso   1.00
H36    H     0.27884   0.13684   0.04592   0.00000  Uiso   1.00
C37    C     0.01213   0.16514   0.23359   0.00000  Uiso   1.00
O38    O     0.00812   0.13334   0.25510   0.00000  Uiso   1.00
O39    O     0.03864   0.20094   0.25457   0.00000  Uiso   1.00
H40    H     0.05449   0.19649   0.28742   0.00000  Uiso   1.00
C41    C     0.24757   0.04158   0.12726   0.00000  Uiso   1.00
O42    O     0.26839   0.07404   0.14477   0.00000  Uiso   1.00
O43    O     0.26548   0.02280   0.09043   0.00000  Uiso   1.00
H44    H     0.29505   0.03951   0.08087   0.00000  Uiso   1.00
C45    C     0.08577   0.29176   0.20607   0.00000  Uiso   1.00
O46    O     0.06494   0.25930   0.18856   0.00000  Uiso   1.00
O47    O     0.06786   0.31053   0.24290   0.00000  Uiso   1.00
H48    H     0.03829   0.29383   0.25246   0.00000  Uiso   1.00
S49    S     0.25341   0.22349   0.30332   0.00000  Uiso   1.00
O50    O     0.26273   0.26083   0.00229   0.00000  Uiso   1.00
O51    O     0.29877   0.19633   0.31325   0.00000  Uiso   1.00
O52    O     0.25096   0.24181   0.25086   0.00000  Uiso   1.00
H53    H     0.28523   0.25530   0.25063   0.00000  Uiso   1.00
S54    S     0.07992   0.10984   0.03001   0.00000  Uiso   1.00
O55    O     0.03456   0.13700   0.02009   0.00000  Uiso   1.00
O56    O     0.07060   0.07251   0.33104   0.00000  Uiso   1.00
O57    O     0.08237   0.09152   0.08248   0.00000  Uiso   1.00
H58    H     0.04810   0.07803   0.08270   0.00000  Uiso   1.00
C59    C     0.50163   0.08691   0.16662   0.00000  Uiso   1.00
C60    C     0.49837   0.24643   0.16672   0.00000  Uiso   1.00
C61    C     0.40066   0.16680   0.15473   0.00000  Uiso   1.00
C62    C     0.59934   0.16654   0.17860   0.00000  Uiso   1.00
C63    C     0.34600   0.16723   0.14831   0.00000  Uiso   1.00
C64    C     0.65400   0.16610   0.18502   0.00000  Uiso   1.00
C65    C     0.53817   0.02091   0.14617   0.00000  Uiso   1.00
C66    C     0.46183   0.31242   0.18717   0.00000  Uiso   1.00
C67    C     0.53480   0.31111   0.14600   0.00000  Uiso   1.00
C68    C     0.46520   0.02223   0.18733   0.00000  Uiso   1.00
C69    C     0.49763   0.29061   0.16669   0.00000  Uiso   1.00
C70    C     0.50237   0.04272   0.16664   0.00000  Uiso   1.00
C71    C     0.53206   0.19300   0.03014   0.00000  Uiso   1.00
C72    C     0.46794   0.14034   0.30320   0.00000  Uiso   1.00
C73    C     0.53326   0.19317   0.31613   0.00000  Uiso   1.00
C74    C     0.46674   0.14017   0.01721   0.00000  Uiso   1.00
H75    H     0.56243   0.29322   0.13128   0.00000  Uiso   1.00
H76    H     0.43757   0.04012   0.20206   0.00000  Uiso   1.00
H77    H     0.55806   0.21315   0.05369   0.00000  Uiso   1.00
H78    H     0.44194   0.12019   0.27964   0.00000  Uiso   1.00
N79    N     0.49999   0.16666   0.28573   0.00000  Uiso   1.00
N80    N     0.50001   0.16668   0.04760   0.00000  Uiso   1.00
O81    O     0.50000   0.10558   0.20487   0.00000  Uiso   1.00
O82    O     0.50000   0.22775   0.12846   0.00000  Uiso   1.00
O83    O     0.50000   0.10559   0.12843   0.00000  Uiso   1.00
O84    O     0.50000   0.22774   0.20490   0.00000  Uiso   1.00
O85    O     0.42392   0.16666   0.19595   0.00000  Uiso   1.00
O86    O     0.57608   0.16667   0.13739   0.00000  Uiso   1.00
O87    O     0.42392   0.16667   0.11950   0.00000  Uiso   1.00
O88    O     0.57608   0.16666   0.21383   0.00000  Uiso   1.00
Zn89   Zn    0.50000   0.16666   0.21771   0.00000  Uiso   1.00
Zn90   Zn    0.50000   0.16667   0.11563   0.00000  Uiso   1.00
C91    C     0.65454   0.16819   0.09975   0.00000  Uiso   1.00
O92    O     0.65854   0.20000   0.07824   0.00000  Uiso   1.00
O93    O     0.62802   0.13240   0.07876   0.00000  Uiso   1.00
H94    H     0.61217   0.13684   0.04592   0.00000  Uiso   1.00
C95    C     0.34546   0.16514   0.23359   0.00000  Uiso   1.00
O96    O     0.34146   0.13334   0.25510   0.00000  Uiso   1.00
O97    O     0.37198   0.20094   0.25457   0.00000  Uiso   1.00
H98    H     0.38783   0.19649   0.28742   0.00000  Uiso   1.00
C99    C     0.58090   0.04158   0.12726   0.00000  Uiso   1.00
O100   O     0.60172   0.07404   0.14477   0.00000  Uiso   1.00
O101   O     0.59881   0.02280   0.09043   0.00000  Uiso   1.00
H102   H     0.62838   0.03951   0.08087   0.00000  Uiso   1.00
C103   C     0.41910   0.29176   0.20607   0.00000  Uiso   1.00
O104   O     0.39828   0.25930   0.18856   0.00000  Uiso   1.00
O105   O     0.40119   0.31053   0.24290   0.00000  Uiso   1.00
H106   H     0.37162   0.29383   0.25246   0.00000  Uiso   1.00
S107   S     0.58674   0.22349   0.30332   0.00000  Uiso   1.00
O108   O     0.59606   0.26083   0.00229   0.00000  Uiso   1.00
O109   O     0.63211   0.19633   0.31325   0.00000  Uiso   1.00
O110   O     0.58430   0.24181   0.25086   0.00000  Uiso   1.00
H111   H     0.61856   0.25530   0.25063   0.00000  Uiso   1.00
S112   S     0.41326   0.10984   0.03001   0.00000  Uiso   1.00
O113   O     0.36789   0.13700   0.02009   0.00000  Uiso   1.00
O114   O     0.40394   0.07251   0.33104   0.00000  Uiso   1.00
O115   O     0.41570   0.09152   0.08248   0.00000  Uiso   1.00
H116   H     0.38144   0.07803   0.08270   0.00000  Uiso   1.00
C117   C     0.83496   0.08691   0.16662   0.00000  Uiso   1.00
C118   C     0.83171   0.24643   0.16672   0.00000  Uiso   1.00
C119   C     0.73400   0.16680   0.15473   0.00000  Uiso   1.00
C120   C     0.93267   0.16654   0.17860   0.00000  Uiso   1.00
C121   C     0.67934   0.16723   0.14831   0.00000  Uiso   1.00
C122   C     0.98733   0.16610   0.18502   0.00000  Uiso   1.00
C123   C     0.87150   0.02091   0.14617   0.00000  Uiso   1.00
C124   C     0.79516   0.31242   0.18717   0.00000  Uiso   1.00
C125   C     0.86813   0.31111   0.14600   0.00000  Uiso   1.00
C126   C     0.79853   0.02223   0.18733   0.00000  Uiso   1.00
C127   C     0.83097   0.29061   0.16669   0.00000  Uiso   1.00
C128   C     0.83570   0.04272   0.16664   0.00000  Uiso   1.00
C129   C     0.86539   0.19300   0.03014   0.00000  Uiso   1.00
C130   C     0.80128   0.14034   0.30320   0.00000  Uiso   1.00
C131   C     0.86659   0.19317   0.31613   0.00000  Uiso   1.00
C132   C     0.80007   0.14017   0.01721   0.00000  Uiso   1.00
H133   H     0.89576   0.29322   0.13128   0.00000  Uiso   1.00
H134   H     0.77090   0.04012   0.20206   0.00000  Uiso   1.00
H135   H     0.89139   0.21315   0.05369   0.00000  Uiso   1.00
H136   H     0.77528   0.12019   0.27964   0.00000  Uiso   1.00
N137   N     0.83332   0.16666   0.28573   0.00000  Uiso   1.00
N138   N     0.83335   0.16668   0.04760   0.00000  Uiso   1.00
O139   O     0.83333   0.10558   0.20487   0.00000  Uiso   1.00
O140   O     0.83334   0.22775   0.12846   0.00000  Uiso   1.00
O141   O     0.83333   0.10559   0.12843   0.00000  Uiso   1.00
O142   O     0.83334   0.22774   0.20490   0.00000  Uiso   1.00
O143   O     0.75725   0.16666   0.19595   0.00000  Uiso   1.00
O144   O     0.90942   0.16667   0.13739   0.00000  Uiso   1.00
O145   O     0.75725   0.16667   0.11950   0.00000  Uiso   1.00
O146   O     0.90942   0.16666   0.21383   0.00000  Uiso   1.00
Zn147  Zn    0.83333   0.16666   0.21771   0.00000  Uiso   1.00
Zn148  Zn    0.83333   0.16667   0.11563   0.00000  Uiso   1.00
C149   C     0.98787   0.16819   0.09975   0.00000  Uiso   1.00
O150   O     0.99188   0.20000   0.07824   0.00000  Uiso   1.00
O151   O     0.96136   0.13240   0.07876   0.00000  Uiso   1.00
H152   H     0.94551   0.13684   0.04592   0.00000  Uiso   1.00
C153   C     0.67880   0.16514   0.23359   0.00000  Uiso   1.00
O154   O     0.67479   0.13334   0.25510   0.00000  Uiso   1.00
O155   O     0.70531   0.20094   0.25457   0.00000  Uiso   1.00
H156   H     0.72116   0.19649   0.28742   0.00000  Uiso   1.00
C157   C     0.91423   0.04158   0.12726   0.00000  Uiso   1.00
O158   O     0.93506   0.07404   0.14477   0.00000  Uiso   1.00
O159   O     0.93214   0.02280   0.09043   0.00000  Uiso   1.00
H160   H     0.96171   0.03951   0.08087   0.00000  Uiso   1.00
C161   C     0.75243   0.29176   0.20607   0.00000  Uiso   1.00
O162   O     0.73161   0.25930   0.18856   0.00000  Uiso   1.00
O163   O     0.73452   0.31053   0.24290   0.00000  Uiso   1.00
H164   H     0.70495   0.29383   0.25246   0.00000  Uiso   1.00
S165   S     0.92008   0.22349   0.30332   0.00000  Uiso   1.00
O166   O     0.92940   0.26083   0.00229   0.00000  Uiso   1.00
O167   O     0.96544   0.19633   0.31325   0.00000  Uiso   1.00
O168   O     0.91763   0.24181   0.25086   0.00000  Uiso   1.00
H169   H     0.95190   0.25530   0.25063   0.00000  Uiso   1.00
S170   S     0.74659   0.10984   0.03001   0.00000  Uiso   1.00
O171   O     0.70123   0.13700   0.02009   0.00000  Uiso   1.00
O172   O     0.73727   0.07251   0.33104   0.00000  Uiso   1.00
O173   O     0.74904   0.09152   0.08248   0.00000  Uiso   1.00
H174   H     0.71477   0.07803   0.08270   0.00000  Uiso   1.00
C175   C     0.16829   0.42024   0.16662   0.00000  Uiso   1.00
C176   C     0.16504   0.57976   0.16672   0.00000  Uiso   1.00
C177   C     0.06733   0.50013   0.15473   0.00000  Uiso   1.00
C178   C     0.26600   0.49987   0.17860   0.00000  Uiso   1.00
C179   C     0.01267   0.50057   0.14831   0.00000  Uiso   1.00
C180   C     0.32066   0.49943   0.18502   0.00000  Uiso   1.00
C181   C     0.20484   0.35425   0.14617   0.00000  Uiso   1.00
C182   C     0.12850   0.64575   0.18717   0.00000  Uiso   1.00
C183   C     0.20147   0.64444   0.14600   0.00000  Uiso   1.00
C184   C     0.13187   0.35556   0.18733   0.00000  Uiso   1.00
C185   C     0.16430   0.62394   0.16669   0.00000  Uiso   1.00
C186   C     0.16903   0.37606   0.16664   0.00000  Uiso   1.00
C187   C     0.19872   0.52633   0.03014   0.00000  Uiso   1.00
C188   C     0.13461   0.47367   0.30320   0.00000  Uiso   1.00
C189   C     0.19993   0.52650   0.31613   0.00000  Uiso   1.00
C190   C     0.13341   0.47350   0.01721   0.00000  Uiso   1.00
H191   H     0.22910   0.62655   0.13128   0.00000  Uiso   1.00
H192   H     0.10424   0.37345   0.20206   0.00000  Uiso   1.00
H193   H     0.22472   0.54648   0.05369   0.00000  Uiso   1.00
H194   H     0.10861   0.45352   0.27964   0.00000  Uiso   1.00
N195   N     0.16665   0.49999   0.28573   0.00000  Uiso   1.00
N196   N     0.16668   0.50001   0.04760   0.00000  Uiso   1.00
O197   O     0.16666   0.43892   0.20487   0.00000  Uiso   1.00
O198   O     0.16667   0.56108   0.12846   0.00000  Uiso   1.00
O199   O     0.16666   0.43893   0.12843   0.00000  Uiso   1.00
O200   O     0.16667   0.56107   0.20490   0.00000  Uiso   1.00
O201   O     0.09058   0.50000   0.19595   0.00000  Uiso   1.00
O202   O     0.24275   0.50000   0.13739   0.00000  Uiso   1.00
O203   O     0.09058   0.50000   0.11950   0.00000  Uiso   1.00
O204   O     0.24275   0.50000   0.21383   0.00000  Uiso   1.00
Zn205  Zn    0.16667   0.49999   0.21771   0.00000  Uiso   1.00
Zn206  Zn    0.16667   0.50001   0.11563   0.00000  Uiso   1.00
C207   C     0.32120   0.50153   0.09975   0.00000  Uiso   1.00
O208   O     0.32521   0.53333   0.07824   0.00000  Uiso   1.00
O209   O     0.29469   0.46573   0.07876   0.00000  Uiso   1.00
H210   H     0.27884   0.47018   0.04592   0.00000  Uiso   1.00
C211   C     0.01213   0.49847   0.23359   0.00000  Uiso   1.00
O212   O     0.00812   0.46667   0.25510   0.00000  Uiso   1.00
O213   O     0.03864   0.53427   0.25457   0.00000  Uiso   1.00
H214   H     0.05449   0.52982   0.28742   0.00000  Uiso   1.00
C215   C     0.24757   0.37491   0.12726   0.00000  Uiso   1.00
O216   O     0.26839   0.40737   0.14477   0.00000  Uiso   1.00
O217   O     0.26548   0.35613   0.09043   0.00000  Uiso   1.00
H218   H     0.29505   0.37284   0.08087   0.00000  Uiso   1.00
C219   C     0.08577   0.62509   0.20607   0.00000  Uiso   1.00
O220   O     0.06494   0.59263   0.18856   0.00000  Uiso   1.00
O221   O     0.06786   0.64387   0.24290   0.00000  Uiso   1.00
H222   H     0.03829   0.62716   0.25246   0.00000  Uiso   1.00
S223   S     0.25341   0.55682   0.30332   0.00000  Uiso   1.00
O224   O     0.26273   0.59416   0.00229   0.00000  Uiso   1.00
O225   O     0.29877   0.52967   0.31325   0.00000  Uiso   1.00
O226   O     0.25096   0.57514   0.25086   0.00000  Uiso   1.00
H227   H     0.28523   0.58864   0.25063   0.00000  Uiso   1.00
S228   S     0.07992   0.44318   0.03001   0.00000  Uiso   1.00
O229   O     0.03456   0.47033   0.02009   0.00000  Uiso   1.00
O230   O     0.07060   0.40584   0.33104   0.00000  Uiso   1.00
O231   O     0.08237   0.42486   0.08248   0.00000  Uiso   1.00
H232   H     0.04810   0.41136   0.08270   0.00000  Uiso   1.00
C233   C     0.50163   0.42024   0.16662   0.00000  Uiso   1.00
C234   C     0.49837   0.57976   0.16672   0.00000  Uiso   1.00
C235   C     0.40066   0.50013   0.15473   0.00000  Uiso   1.00
C236   C     0.59934   0.49987   0.17860   0.00000  Uiso   1.00
C237   C     0.34600   0.50057   0.14831   0.00000  Uiso   1.00
C238   C     0.65400   0.49943   0.18502   0.00000  Uiso   1.00
C239   C     0.53817   0.35425   0.14617   0.00000  Uiso   1.00
C240   C     0.46183   0.64575   0.18717   0.00000  Uiso   1.00
C241   C     0.53480   0.64444   0.14600   0.00000  Uiso   1.00
C242   C     0.46520   0.35556   0.18733   0.00000  Uiso   1.00
C243   C     0.49763   0.62394   0.16669   0.00000  Uiso   1.00
C244   C     0.50237   0.37606   0.16664   0.00000  Uiso   1.00
C245   C     0.53206   0.52633   0.03014   0.00000  Uiso   1.00
C246   C     0.46794   0.47367   0.30320   0.00000  Uiso   1.00
C247   C     0.53326   0.52650   0.31613   0.00000  Uiso   1.00
C248   C     0.46674   0.47350   0.01721   0.00000  Uiso   1.00
H249   H     0.56243   0.62655   0.13128   0.00000  Uiso   1.00
H250   H     0.43757   0.37345   0.20206   0.00000  Uiso   1.00
H251   H     0.55806   0.54648   0.05369   0.00000  Uiso   1.00
H252   H     0.44194   0.45352   0.27964   0.00000  Uiso   1.00
N253   N     0.49999   0.49999   0.28573   0.00000  Uiso   1.00
N254   N     0.50001   0.50001   0.04760   0.00000  Uiso   1.00
O255   O     0.50000   0.43892   0.20487   0.00000  Uiso   1.00
O256   O     0.50000   0.56108   0.12846   0.00000  Uiso   1.00
O257   O     0.50000   0.43893   0.12843   0.00000  Uiso   1.00
O258   O     0.50000   0.56107   0.20490   0.00000  Uiso   1.00
O259   O     0.42392   0.50000   0.19595   0.00000  Uiso   1.00
O260   O     0.57608   0.50000   0.13739   0.00000  Uiso   1.00
O261   O     0.42392   0.50000   0.11950   0.00000  Uiso   1.00
O262   O     0.57608   0.50000   0.21383   0.00000  Uiso   1.00
Zn263  Zn    0.50000   0.49999   0.21771   0.00000  Uiso   1.00
Zn264  Zn    0.50000   0.50001   0.11563   0.00000  Uiso   1.00
C265   C     0.65454   0.50153   0.09975   0.00000  Uiso   1.00
O266   O     0.65854   0.53333   0.07824   0.00000  Uiso   1.00
O267   O     0.62802   0.46573   0.07876   0.00000  Uiso   1.00
H268   H     0.61217   0.47018   0.04592   0.00000  Uiso   1.00
C269   C     0.34546   0.49847   0.23359   0.00000  Uiso   1.00
O270   O     0.34146   0.46667   0.25510   0.00000  Uiso   1.00
O271   O     0.37198   0.53427   0.25457   0.00000  Uiso   1.00
H272   H     0.38783   0.52982   0.28742   0.00000  Uiso   1.00
C273   C     0.58090   0.37491   0.12726   0.00000  Uiso   1.00
O274   O     0.60172   0.40737   0.14477   0.00000  Uiso   1.00
O275   O     0.59881   0.35613   0.09043   0.00000  Uiso   1.00
H276   H     0.62838   0.37284   0.08087   0.00000  Uiso   1.00
C277   C     0.41910   0.62509   0.20607   0.00000  Uiso   1.00
O278   O     0.39828   0.59263   0.18856   0.00000  Uiso   1.00
O279   O     0.40119   0.64387   0.24290   0.00000  Uiso   1.00
H280   H     0.37162   0.62716   0.25246   0.00000  Uiso   1.00
S281   S     0.58674   0.55682   0.30332   0.00000  Uiso   1.00
O282   O     0.59606   0.59416   0.00229   0.00000  Uiso   1.00
O283   O     0.63211   0.52967   0.31325   0.00000  Uiso   1.00
O284   O     0.58430   0.57514   0.25086   0.00000  Uiso   1.00
H285   H     0.61856   0.58864   0.25063   0.00000  Uiso   1.00
S286   S     0.41326   0.44318   0.03001   0.00000  Uiso   1.00
O287   O     0.36789   0.47033   0.02009   0.00000  Uiso   1.00
O288   O     0.40394   0.40584   0.33104   0.00000  Uiso   1.00
O289   O     0.41570   0.42486   0.08248   0.00000  Uiso   1.00
H290   H     0.38144   0.41136   0.08270   0.00000  Uiso   1.00
C291   C     0.83496   0.42024   0.16662   0.00000  Uiso   1.00
C292   C     0.83171   0.57976   0.16672   0.00000  Uiso   1.00
C293   C     0.73400   0.50013   0.15473   0.00000  Uiso   1.00
C294   C     0.93267   0.49987   0.17860   0.00000  Uiso   1.00
C295   C     0.67934   0.50057   0.14831   0.00000  Uiso   1.00
C296   C     0.98733   0.49943   0.18502   0.00000  Uiso   1.00
C297   C     0.87150   0.35425   0.14617   0.00000  Uiso   1.00
C298   C     0.79516   0.64575   0.18717   0.00000  Uiso   1.00
C299   C     0.86813   0.64444   0.14600   0.00000  Uiso   1.00
C300   C     0.79853   0.35556   0.18733   0.00000  Uiso   1.00
C301   C     0.83097   0.62394   0.16669   0.00000  Uiso   1.00
C302   C     0.83570   0.37606   0.16664   0.00000  Uiso   1.00
C303   C     0.86539   0.52633   0.03014   0.00000  Uiso   1.00
C304   C     0.80128   0.47367   0.30320   0.00000  Uiso   1.00
C305   C     0.86659   0.52650   0.31613   0.00000  Uiso   1.00
C306   C     0.80007   0.47350   0.01721   0.00000  Uiso   1.00
H307   H     0.89576   0.62655   0.13128   0.00000  Uiso   1.00
H308   H     0.77090   0.37345   0.20206   0.00000  Uiso   1.00
H309   H     0.89139   0.54648   0.05369   0.00000  Uiso   1.00
H310   H     0.77528   0.45352   0.27964   0.00000  Uiso   1.00
N311   N     0.83332   0.49999   0.28573   0.00000  Uiso   1.00
N312   N     0.83335   0.50001   0.04760   0.00000  Uiso   1.00
O313   O     0.83333   0.43892   0.20487   0.00000  Uiso   1.00
O314   O     0.83334   0.56108   0.12846   0.00000  Uiso   1.00
O315   O     0.83333   0.43893   0.12843   0.00000  Uiso   1.00
O316   O     0.83334   0.56107   0.20490   0.00000  Uiso   1.00
O317   O     0.75725   0.50000   0.19595   0.00000  Uiso   1.00
O318   O     0.90942   0.50000   0.13739   0.00000  Uiso   1.00
O319   O     0.75725   0.50000   0.11950   0.00000  Uiso   1.00
O320   O     0.90942   0.50000   0.21383   0.00000  Uiso   1.00
Zn321  Zn    0.83333   0.49999   0.21771   0.00000  Uiso   1.00
Zn322  Zn    0.83333   0.50001   0.11563   0.00000  Uiso   1.00
C323   C     0.98787   0.50153   0.09975   0.00000  Uiso   1.00
O324   O     0.99188   0.53333   0.07824   0.00000  Uiso   1.00
O325   O     0.96136   0.46573   0.07876   0.00000  Uiso   1.00
H326   H     0.94551   0.47018   0.04592   0.00000  Uiso   1.00
C327   C     0.67880   0.49847   0.23359   0.00000  Uiso   1.00
O328   O     0.67479   0.46667   0.25510   0.00000  Uiso   1.00
O329   O     0.70531   0.53427   0.25457   0.00000  Uiso   1.00
H330   H     0.72116   0.52982   0.28742   0.00000  Uiso   1.00
C331   C     0.91423   0.37491   0.12726   0.00000  Uiso   1.00
O332   O     0.93506   0.40737   0.14477   0.00000  Uiso   1.00
O333   O     0.93214   0.35613   0.09043   0.00000  Uiso   1.00
H334   H     0.96171   0.37284   0.08087   0.00000  Uiso   1.00
C335   C     0.75243   0.62509   0.20607   0.00000  Uiso   1.00
O336   O     0.73161   0.59263   0.18856   0.00000  Uiso   1.00
O337   O     0.73452   0.64387   0.24290   0.00000  Uiso   1.00
H338   H     0.70495   0.62716   0.25246   0.00000  Uiso   1.00
S339   S     0.92008   0.55682   0.30332   0.00000  Uiso   1.00
O340   O     0.92940   0.59416   0.00229   0.00000  Uiso   1.00
O341   O     0.96544   0.52967   0.31325   0.00000  Uiso   1.00
O342   O     0.91763   0.57514   0.25086   0.00000  Uiso   1.00
H343   H     0.95190   0.58864   0.25063   0.00000  Uiso   1.00
S344   S     0.74659   0.44318   0.03001   0.00000  Uiso   1.00
O345   O     0.70123   0.47033   0.02009   0.00000  Uiso   1.00
O346   O     0.73727   0.40584   0.33104   0.00000  Uiso   1.00
O347   O     0.74904   0.42486   0.08248   0.00000  Uiso   1.00
H348   H     0.71477   0.41136   0.08270   0.00000  Uiso   1.00
C349   C     0.16829   0.75357   0.16662   0.00000  Uiso   1.00
C350   C     0.16504   0.91309   0.16672   0.00000  Uiso   1.00
C351   C     0.06733   0.83346   0.15473   0.00000  Uiso   1.00
C352   C     0.26600   0.83320   0.17860   0.00000  Uiso   1.00
C353   C     0.01267   0.83390   0.14831   0.00000  Uiso   1.00
C354   C     0.32066   0.83277   0.18502   0.00000  Uiso   1.00
C355   C     0.20484   0.68758   0.14617   0.00000  Uiso   1.00
C356   C     0.12850   0.97909   0.18717   0.00000  Uiso   1.00
C357   C     0.20147   0.97777   0.14600   0.00000  Uiso   1.00
C358   C     0.13187   0.68889   0.18733   0.00000  Uiso   1.00
C359   C     0.16430   0.95728   0.16669   0.00000  Uiso   1.00
C360   C     0.16903   0.70939   0.16664   0.00000  Uiso   1.00
C361   C     0.19872   0.85967   0.03014   0.00000  Uiso   1.00
C362   C     0.13461   0.80700   0.30320   0.00000  Uiso   1.00
C363   C     0.19993   0.85983   0.31613   0.00000  Uiso   1.00
C364   C     0.13341   0.80683   0.01721   0.00000  Uiso   1.00
H365   H     0.22910   0.95988   0.13128   0.00000  Uiso   1.00
H366   H     0.10424   0.70679   0.20206   0.00000  Uiso   1.00
H367   H     0.22472   0.87981   0.05369   0.00000  Uiso   1.00
H368   H     0.10861   0.78685   0.27964   0.00000  Uiso   1.00
N369   N     0.16665   0.83332   0.28573   0.00000  Uiso   1.00
N370   N     0.16668   0.83334   0.04760   0.00000  Uiso   1.00
O371   O     0.16666   0.77225   0.20487   0.00000  Uiso   1.00
O372   O     0.16667   0.89442   0.12846   0.00000  Uiso   1.00
O373   O     0.16666   0.77226   0.12843   0.00000  Uiso   1.00
O374   O     0.16667   0.89441   0.20490   0.00000  Uiso   1.00
O375   O     0.09058   0.83333   0.19595   0.00000  Uiso   1.00
O376   O     0.24275   0.83334   0.13739   0.00000  Uiso   1.00
O377   O     0.09058   0.83334   0.11950   0.00000  Uiso   1.00
O378   O     0.24275   0.83333   0.21383   0.00000  Uiso   1.00
Zn379  Zn    0.16667   0.83333   0.21771   0.00000  Uiso   1.00
Zn380  Zn    0.16667   0.83334   0.11563   0.00000  Uiso   1.00
C381   C     0.32120   0.83486   0.09975   0.00000  Uiso   1.00
O382   O     0.32521   0.86667   0.07824   0.00000  Uiso   1.00
O383   O     0.29469   0.79906   0.07876   0.00000  Uiso   1.00
H384   H     0.27884   0.80351   0.04592   0.00000  Uiso   1.00
C385   C     0.01213   0.83181   0.23359   0.00000  Uiso   1.00
O386   O     0.00812   0.80000   0.25510   0.00000  Uiso   1.00
O387   O     0.03864   0.86761   0.25457   0.00000  Uiso   1.00
H388   H     0.05449   0.86316   0.28742   0.00000  Uiso   1.00
C389   C     0.24757   0.70824   0.12726   0.00000  Uiso   1.00
O390   O     0.26839   0.74070   0.14477   0.00000  Uiso   1.00
O391   O     0.26548   0.68947   0.09043   0.00000  Uiso   1.00
H392   H     0.29505   0.70617   0.08087   0.00000  Uiso   1.00
C393   C     0.08577   0.95842   0.20607   0.00000  Uiso   1.00
O394   O     0.06494   0.92596   0.18856   0.00000  Uiso   1.00
O395   O     0.06786   0.97720   0.24290   0.00000  Uiso   1.00
H396   H     0.03829   0.96049   0.25246   0.00000  Uiso   1.00
S397   S     0.25341   0.89016   0.30332   0.00000  Uiso   1.00
O398   O     0.26273   0.92749   0.00229   0.00000  Uiso   1.00
O399   O     0.29877   0.86300   0.31325   0.00000  Uiso   1.00
O400   O     0.25096   0.90848   0.25086   0.00000  Uiso   1.00
H401   H     0.28523   0.92197   0.25063   0.00000  Uiso   1.00
S402   S     0.07992   0.77651   0.03001   0.00000  Uiso   1.00
O403   O     0.03456   0.80367   0.02009   0.00000  Uiso   1.00
O404   O     0.07060   0.73917   0.33104   0.00000  Uiso   1.00
O405   O     0.08237   0.75819   0.08248   0.00000  Uiso   1.00
H406   H     0.04810   0.74470   0.08270   0.00000  Uiso   1.00
C407   C     0.50163   0.75357   0.16662   0.00000  Uiso   1.00
C408   C     0.49837   0.91309   0.16672   0.00000  Uiso   1.00
C409   C     0.40066   0.83346   0.15473   0.00000  Uiso   1.00
C410   C     0.59934   0.83320   0.17860   0.00000  Uiso   1.00
C411   C     0.34600   0.83390   0.14831   0.00000  Uiso   1.00
C412   C     0.65400   0.83277   0.18502   0.00000  Uiso   1.00
C413   C     0.53817   0.68758   0.14617   0.00000  Uiso   1.00
C414   C     0.46183   0.97909   0.18717   0.00000  Uiso   1.00
C415   C     0.53480   0.97777   0.14600   0.00000  Uiso   1.00
C416   C     0.46520   0.68889   0.18733   0.00000  Uiso   1.00
C417   C     0.49763   0.95728   0.16669   0.00000  Uiso   1.00
C418   C     0.50237   0.70939   0.16664   0.00000  Uiso   1.00
C419   C     0.53206   0.85967   0.03014   0.00000  Uiso   1.00
C420   C     0.46794   0.80700   0.30320   0.00000  Uiso   1.00
C421   C     0.53326   0.85983   0.31613   0.00000  Uiso   1.00
C422   C     0.46674   0.80683   0.01721   0.00000  Uiso   1.00
H423   H     0.56243   0.95988   0.13128   0.00000  Uiso   1.00
H424   H     0.43757   0.70679   0.20206   0.00000  Uiso   1.00
H425   H     0.55806   0.87981   0.05369   0.00000  Uiso   1.00
H426   H     0.44194   0.78685   0.27964   0.00000  Uiso   1.00
N427   N     0.49999   0.83332   0.28573   0.00000  Uiso   1.00
N428   N     0.50001   0.83334   0.04760   0.00000  Uiso   1.00
O429   O     0.50000   0.77225   0.20487   0.00000  Uiso   1.00
O430   O     0.50000   0.89442   0.12846   0.00000  Uiso   1.00
O431   O     0.50000   0.77226   0.12843   0.00000  Uiso   1.00
O432   O     0.50000   0.89441   0.20490   0.00000  Uiso   1.00
O433   O     0.42392   0.83333   0.19595   0.00000  Uiso   1.00
O434   O     0.57608   0.83334   0.13739   0.00000  Uiso   1.00
O435   O     0.42392   0.83334   0.11950   0.00000  Uiso   1.00
O436   O     0.57608   0.83333   0.21383   0.00000  Uiso   1.00
Zn437  Zn    0.50000   0.83333   0.21771   0.00000  Uiso   1.00
Zn438  Zn    0.50000   0.83334   0.11563   0.00000  Uiso   1.00
C439   C     0.65454   0.83486   0.09975   0.00000  Uiso   1.00
O440   O     0.65854   0.86667   0.07824   0.00000  Uiso   1.00
O441   O     0.62802   0.79906   0.07876   0.00000  Uiso   1.00
H442   H     0.61217   0.80351   0.04592   0.00000  Uiso   1.00
C443   C     0.34546   0.83181   0.23359   0.00000  Uiso   1.00
O444   O     0.34146   0.80000   0.25510   0.00000  Uiso   1.00
O445   O     0.37198   0.86761   0.25457   0.00000  Uiso   1.00
H446   H     0.38783   0.86316   0.28742   0.00000  Uiso   1.00
C447   C     0.58090   0.70824   0.12726   0.00000  Uiso   1.00
O448   O     0.60172   0.74070   0.14477   0.00000  Uiso   1.00
O449   O     0.59881   0.68947   0.09043   0.00000  Uiso   1.00
H450   H     0.62838   0.70617   0.08087   0.00000  Uiso   1.00
C451   C     0.41910   0.95842   0.20607   0.00000  Uiso   1.00
O452   O     0.39828   0.92596   0.18856   0.00000  Uiso   1.00
O453   O     0.40119   0.97720   0.24290   0.00000  Uiso   1.00
H454   H     0.37162   0.96049   0.25246   0.00000  Uiso   1.00
S455   S     0.58674   0.89016   0.30332   0.00000  Uiso   1.00
O456   O     0.59606   0.92749   0.00229   0.00000  Uiso   1.00
O457   O     0.63211   0.86300   0.31325   0.00000  Uiso   1.00
O458   O     0.58430   0.90848   0.25086   0.00000  Uiso   1.00
H459   H     0.61856   0.92197   0.25063   0.00000  Uiso   1.00
S460   S     0.41326   0.77651   0.03001   0.00000  Uiso   1.00
O461   O     0.36789   0.80367   0.02009   0.00000  Uiso   1.00
O462   O     0.40394   0.73917   0.33104   0.00000  Uiso   1.00
O463   O     0.41570   0.75819   0.08248   0.00000  Uiso   1.00
H464   H     0.38144   0.74470   0.08270   0.00000  Uiso   1.00
C465   C     0.83496   0.75357   0.16662   0.00000  Uiso   1.00
C466   C     0.83171   0.91309   0.16672   0.00000  Uiso   1.00
C467   C     0.73400   0.83346   0.15473   0.00000  Uiso   1.00
C468   C     0.93267   0.83320   0.17860   0.00000  Uiso   1.00
C469   C     0.67934   0.83390   0.14831   0.00000  Uiso   1.00
C470   C     0.98733   0.83277   0.18502   0.00000  Uiso   1.00
C471   C     0.87150   0.68758   0.14617   0.00000  Uiso   1.00
C472   C     0.79516   0.97909   0.18717   0.00000  Uiso   1.00
C473   C     0.86813   0.97777   0.14600   0.00000  Uiso   1.00
C474   C     0.79853   0.68889   0.18733   0.00000  Uiso   1.00
C475   C     0.83097   0.95728   0.16669   0.00000  Uiso   1.00
C476   C     0.83570   0.70939   0.16664   0.00000  Uiso   1.00
C477   C     0.86539   0.85967   0.03014   0.00000  Uiso   1.00
C478   C     0.80128   0.80700   0.30320   0.00000  Uiso   1.00
C479   C     0.86659   0.85983   0.31613   0.00000  Uiso   1.00
C480   C     0.80007   0.80683   0.01721   0.00000  Uiso   1.00
H481   H     0.89576   0.95988   0.13128   0.00000  Uiso   1.00
H482   H     0.77090   0.70679   0.20206   0.00000  Uiso   1.00
H483   H     0.89139   0.87981   0.05369   0.00000  Uiso   1.00
H484   H     0.77528   0.78685   0.27964   0.00000  Uiso   1.00
N485   N     0.83332   0.83332   0.28573   0.00000  Uiso   1.00
N486   N     0.83335   0.83334   0.04760   0.00000  Uiso   1.00
O487   O     0.83333   0.77225   0.20487   0.00000  Uiso   1.00
O488   O     0.83334   0.89442   0.12846   0.00000  Uiso   1.00
O489   O     0.83333   0.77226   0.12843   0.00000  Uiso   1.00
O490   O     0.83334   0.89441   0.20490   0.00000  Uiso   1.00
O491   O     0.75725   0.83333   0.19595   0.00000  Uiso   1.00
O492   O     0.90942   0.83334   0.13739   0.00000  Uiso   1.00
O493   O     0.75725   0.83334   0.11950   0.00000  Uiso   1.00
O494   O     0.90942   0.83333   0.21383   0.00000  Uiso   1.00
Zn495  Zn    0.83333   0.83333   0.21771   0.00000  Uiso   1.00
Zn496  Zn    0.83333   0.83334   0.11563   0.00000  Uiso   1.00
C497   C     0.98787   0.83486   0.09975   0.00000  Uiso   1.00
O498   O     0.99188   0.86667   0.07824   0.00000  Uiso   1.00
O499   O     0.96136   0.79906   0.07876   0.00000  Uiso   1.00
H500   H     0.94551   0.80351   0.04592   0.00000  Uiso   1.00
C501   C     0.67880   0.83181   0.23359   0.00000  Uiso   1.00
O502   O     0.67479   0.80000   0.25510   0.00000  Uiso   1.00
O503   O     0.70531   0.86761   0.25457   0.00000  Uiso   1.00
H504   H     0.72116   0.86316   0.28742   0.00000  Uiso   1.00
C505   C     0.91423   0.70824   0.12726   0.00000  Uiso   1.00
O506   O     0.93506   0.74070   0.14477   0.00000  Uiso   1.00
O507   O     0.93214   0.68947   0.09043   0.00000  Uiso   1.00
H508   H     0.96171   0.70617   0.08087   0.00000  Uiso   1.00
C509   C     0.75243   0.95842   0.20607   0.00000  Uiso   1.00
O510   O     0.73161   0.92596   0.18856   0.00000  Uiso   1.00
O511   O     0.73452   0.97720   0.24290   0.00000  Uiso   1.00
H512   H     0.70495   0.96049   0.25246   0.00000  Uiso   1.00
S513   S     0.92008   0.89016   0.30332   0.00000  Uiso   1.00
O514   O     0.92940   0.92749   0.00229   0.00000  Uiso   1.00
O515   O     0.96544   0.86300   0.31325   0.00000  Uiso   1.00
O516   O     0.91763   0.90848   0.25086   0.00000  Uiso   1.00
H517   H     0.95190   0.92197   0.25063   0.00000  Uiso   1.00
S518   S     0.74659   0.77651   0.03001   0.00000  Uiso   1.00
O519   O     0.70123   0.80367   0.02009   0.00000  Uiso   1.00
O520   O     0.73727   0.73917   0.33104   0.00000  Uiso   1.00
O521   O     0.74904   0.75819   0.08248   0.00000  Uiso   1.00
H522   H     0.71477   0.74470   0.08270   0.00000  Uiso   1.00
C523   C     0.16829   0.08691   0.49995   0.00000  Uiso   1.00
C524   C     0.16504   0.24643   0.50005   0.00000  Uiso   1.00
C525   C     0.06733   0.16680   0.48807   0.00000  Uiso   1.00
C526   C     0.26600   0.16654   0.51193   0.00000  Uiso   1.00
C527   C     0.01267   0.16723   0.48165   0.00000  Uiso   1.00
C528   C     0.32066   0.16610   0.51835   0.00000  Uiso   1.00
C529   C     0.20484   0.02091   0.47950   0.00000  Uiso   1.00
C530   C     0.12850   0.31242   0.52050   0.00000  Uiso   1.00
C531   C     0.20147   0.31111   0.47934   0.00000  Uiso   1.00
C532   C     0.13187   0.02223   0.52066   0.00000  Uiso   1.00
C533   C     0.16430   0.29061   0.50003   0.00000  Uiso   1.00
C534   C     0.16903   0.04272   0.49997   0.00000  Uiso   1.00
C535   C     0.19872   0.19300   0.36347   0.00000  Uiso   1.00
C536   C     0.13461   0.14034   0.63653   0.00000  Uiso   1.00
C537   C     0.19993   0.19317   0.64946   0.00000  Uiso   1.00
C538   C     0.13341   0.14017   0.35054   0.00000  Uiso   1.00
H539   H     0.22910   0.29322   0.46461   0.00000  Uiso   1.00
H540   H     0.10424   0.04012   0.53539   0.00000  Uiso   1.00
H541   H     0.22472   0.21315   0.38703   0.00000  Uiso   1.00
H542   H     0.10861   0.12019   0.61297   0.00000  Uiso   1.00
N543   N     0.16665   0.16666   0.61907   0.00000  Uiso   1.00
N544   N     0.16668   0.16668   0.38093   0.00000  Uiso   1.00
O545   O     0.16666   0.10558   0.53821   0.00000  Uiso   1.00
O546   O     0.16667   0.22775   0.46179   0.00000  Uiso   1.00
O547   O     0.16666   0.10559   0.46176   0.00000  Uiso   1.00
O548   O     0.16667   0.22774   0.53824   0.00000  Uiso   1.00
O549   O     0.09058   0.16666   0.52928   0.00000  Uiso   1.00
O550   O     0.24275   0.16667   0.47072   0.00000  Uiso   1.00
O551   O     0.09058   0.16667   0.45284   0.00000  Uiso   1.00
O552   O     0.24275   0.16666   0.54716   0.00000  Uiso   1.00
Zn553  Zn    0.16667   0.16666   0.55104   0.00000  Uiso   1.00
Zn554  Zn    0.16667   0.16667   0.44896   0.00000  Uiso   1.00
C555   C     0.32120   0.16819   0.43308   0.00000  Uiso   1.00
O556   O     0.32521   0.20000   0.41157   0.00000  Uiso   1.00
O557   O     0.29469   0.13240   0.41209   0.00000  Uiso   1.00
H558   H     0.27884   0.13684   0.37925   0.00000  Uiso   1.00
C559   C     0.01213   0.16514   0.56692   0.00000  Uiso   1.00
O560   O     0.00812   0.13334   0.58843   0.00000  Uiso   1.00
O561   O     0.03864   0.20094   0.58791   0.00000  Uiso   1.00
H562   H     0.05449   0.19649   0.62075   0.00000  Uiso   1.00
C563   C     0.24757   0.04158   0.46059   0.00000  Uiso   1.00
O564   O     0.26839   0.07404   0.47811   0.00000  Uiso   1.00
O565   O     0.26548   0.02280   0.42376   0.00000  Uiso   1.00
H566   H     0.29505   0.03951   0.41420   0.00000  Uiso   1.00
C567   C     0.08577   0.29176   0.53941   0.00000  Uiso   1.00
O568   O     0.06494   0.25930   0.52189   0.00000  Uiso   1.00
O569   O     0.06786   0.31053   0.57624   0.00000  Uiso   1.00
H570   H     0.03829   0.29383   0.58580   0.00000  Uiso   1.00
S571   S     0.25341   0.22349   0.63666   0.00000  Uiso   1.00
O572   O     0.26273   0.26083   0.33562   0.00000  Uiso   1.00
O573   O     0.29877   0.19633   0.64658   0.00000  Uiso   1.00
O574   O     0.25096   0.24181   0.58419   0.00000  Uiso   1.00
H575   H     0.28523   0.25530   0.58396   0.00000  Uiso   1.00
S576   S     0.07992   0.10984   0.36334   0.00000  Uiso   1.00
O577   O     0.03456   0.13700   0.35342   0.00000  Uiso   1.00
O578   O     0.07060   0.07251   0.66438   0.00000  Uiso   1.00
O579   O     0.08237   0.09152   0.41581   0.00000  Uiso   1.00
H580   H     0.04810   0.07803   0.41604   0.00000  Uiso   1.00
C581   C     0.50163   0.08691   0.49995   0.00000  Uiso   1.00
C582   C     0.49837   0.24643   0.50005   0.00000  Uiso   1.00
C583   C     0.40066   0.16680   0.48807   0.00000  Uiso   1.00
C584   C     0.59934   0.16654   0.51193   0.00000  Uiso   1.00
C585   C     0.34600   0.16723   0.48165   0.00000  Uiso   1.00
C586   C     0.65400   0.16610   0.51835   0.00000  Uiso   1.00
C587   C     0.53817   0.02091   0.47950   0.00000  Uiso   1.00
C588   C     0.46183   0.31242   0.52050   0.00000  Uiso   1.00
C589   C     0.53480   0.31111   0.47934   0.00000  Uiso   1.00
C590   C     0.46520   0.02223   0.52066   0.00000  Uiso   1.00
C591   C     0.49763   0.29061   0.50003   0.00000  Uiso   1.00
C592   C     0.50237   0.04272   0.49997   0.00000  Uiso   1.00
C593   C     0.53206   0.19300   0.36347   0.00000  Uiso   1.00
C594   C     0.46794   0.14034   0.63653   0.00000  Uiso   1.00
C595   C     0.53326   0.19317   0.64946   0.00000  Uiso   1.00
C596   C     0.46674   0.14017   0.35054   0.00000  Uiso   1.00
H597   H     0.56243   0.29322   0.46461   0.00000  Uiso   1.00
H598   H     0.43757   0.04012   0.53539   0.00000  Uiso   1.00
H599   H     0.55806   0.21315   0.38703   0.00000  Uiso   1.00
H600   H     0.44194   0.12019   0.61297   0.00000  Uiso   1.00
N601   N     0.49999   0.16666   0.61907   0.00000  Uiso   1.00
N602   N     0.50001   0.16668   0.38093   0.00000  Uiso   1.00
O603   O     0.50000   0.10558   0.53821   0.00000  Uiso   1.00
O604   O     0.50000   0.22775   0.46179   0.00000  Uiso   1.00
O605   O     0.50000   0.10559   0.46176   0.00000  Uiso   1.00
O606   O     0.50000   0.22774   0.53824   0.00000  Uiso   1.00
O607   O     0.42392   0.16666   0.52928   0.00000  Uiso   1.00
O608   O     0.57608   0.16667   0.47072   0.00000  Uiso   1.00
O609   O     0.42392   0.16667   0.45284   0.00000  Uiso   1.00
O610   O     0.57608   0.16666   0.54716   0.00000  Uiso   1.00
Zn611  Zn    0.50000   0.16666   0.55104   0.00000  Uiso   1.00
Zn612  Zn    0.50000   0.16667   0.44896   0.00000  Uiso   1.00
C613   C     0.65454   0.16819   0.43308   0.00000  Uiso   1.00
O614   O     0.65854   0.20000   0.41157   0.00000  Uiso   1.00
O615   O     0.62802   0.13240   0.41209   0.00000  Uiso   1.00
H616   H     0.61217   0.13684   0.37925   0.00000  Uiso   1.00
C617   C     0.34546   0.16514   0.56692   0.00000  Uiso   1.00
O618   O     0.34146   0.13334   0.58843   0.00000  Uiso   1.00
O619   O     0.37198   0.20094   0.58791   0.00000  Uiso   1.00
H620   H     0.38783   0.19649   0.62075   0.00000  Uiso   1.00
C621   C     0.58090   0.04158   0.46059   0.00000  Uiso   1.00
O622   O     0.60172   0.07404   0.47811   0.00000  Uiso   1.00
O623   O     0.59881   0.02280   0.42376   0.00000  Uiso   1.00
H624   H     0.62838   0.03951   0.41420   0.00000  Uiso   1.00
C625   C     0.41910   0.29176   0.53941   0.00000  Uiso   1.00
O626   O     0.39828   0.25930   0.52189   0.00000  Uiso   1.00
O627   O     0.40119   0.31053   0.57624   0.00000  Uiso   1.00
H628   H     0.37162   0.29383   0.58580   0.00000  Uiso   1.00
S629   S     0.58674   0.22349   0.63666   0.00000  Uiso   1.00
O630   O     0.59606   0.26083   0.33562   0.00000  Uiso   1.00
O631   O     0.63211   0.19633   0.64658   0.00000  Uiso   1.00
O632   O     0.58430   0.24181   0.58419   0.00000  Uiso   1.00
H633   H     0.61856   0.25530   0.58396   0.00000  Uiso   1.00
S634   S     0.41326   0.10984   0.36334   0.00000  Uiso   1.00
O635   O     0.36789   0.13700   0.35342   0.00000  Uiso   1.00
O636   O     0.40394   0.07251   0.66438   0.00000  Uiso   1.00
O637   O     0.41570   0.09152   0.41581   0.00000  Uiso   1.00
H638   H     0.38144   0.07803   0.41604   0.00000  Uiso   1.00
C639   C     0.83496   0.08691   0.49995   0.00000  Uiso   1.00
C640   C     0.83171   0.24643   0.50005   0.00000  Uiso   1.00
C641   C     0.73400   0.16680   0.48807   0.00000  Uiso   1.00
C642   C     0.93267   0.16654   0.51193   0.00000  Uiso   1.00
C643   C     0.67934   0.16723   0.48165   0.00000  Uiso   1.00
C644   C     0.98733   0.16610   0.51835   0.00000  Uiso   1.00
C645   C     0.87150   0.02091   0.47950   0.00000  Uiso   1.00
C646   C     0.79516   0.31242   0.52050   0.00000  Uiso   1.00
C647   C     0.86813   0.31111   0.47934   0.00000  Uiso   1.00
C648   C     0.79853   0.02223   0.52066   0.00000  Uiso   1.00
C649   C     0.83097   0.29061   0.50003   0.00000  Uiso   1.00
C650   C     0.83570   0.04272   0.49997   0.00000  Uiso   1.00
C651   C     0.86539   0.19300   0.36347   0.00000  Uiso   1.00
C652   C     0.80128   0.14034   0.63653   0.00000  Uiso   1.00
C653   C     0.86659   0.19317   0.64946   0.00000  Uiso   1.00
C654   C     0.80007   0.14017   0.35054   0.00000  Uiso   1.00
H655   H     0.89576   0.29322   0.46461   0.00000  Uiso   1.00
H656   H     0.77090   0.04012   0.53539   0.00000  Uiso   1.00
H657   H     0.89139   0.21315   0.38703   0.00000  Uiso   1.00
H658   H     0.77528   0.12019   0.61297   0.00000  Uiso   1.00
N659   N     0.83332   0.16666   0.61907   0.00000  Uiso   1.00
N660   N     0.83335   0.16668   0.38093   0.00000  Uiso   1.00
O661   O     0.83333   0.10558   0.53821   0.00000  Uiso   1.00
O662   O     0.83334   0.22775   0.46179   0.00000  Uiso   1.00
O663   O     0.83333   0.10559   0.46176   0.00000  Uiso   1.00
O664   O     0.83334   0.22774   0.53824   0.00000  Uiso   1.00
O665   O     0.75725   0.16666   0.52928   0.00000  Uiso   1.00
O666   O     0.90942   0.16667   0.47072   0.00000  Uiso   1.00
O667   O     0.75725   0.16667   0.45284   0.00000  Uiso   1.00
O668   O     0.90942   0.16666   0.54716   0.00000  Uiso   1.00
Zn669  Zn    0.83333   0.16666   0.55104   0.00000  Uiso   1.00
Zn670  Zn    0.83333   0.16667   0.44896   0.00000  Uiso   1.00
C671   C     0.98787   0.16819   0.43308   0.00000  Uiso   1.00
O672   O     0.99188   0.20000   0.41157   0.00000  Uiso   1.00
O673   O     0.96136   0.13240   0.41209   0.00000  Uiso   1.00
H674   H     0.94551   0.13684   0.37925   0.00000  Uiso   1.00
C675   C     0.67880   0.16514   0.56692   0.00000  Uiso   1.00
O676   O     0.67479   0.13334   0.58843   0.00000  Uiso   1.00
O677   O     0.70531   0.20094   0.58791   0.00000  Uiso   1.00
H678   H     0.72116   0.19649   0.62075   0.00000  Uiso   1.00
C679   C     0.91423   0.04158   0.46059   0.00000  Uiso   1.00
O680   O     0.93506   0.07404   0.47811   0.00000  Uiso   1.00
O681   O     0.93214   0.02280   0.42376   0.00000  Uiso   1.00
H682   H     0.96171   0.03951   0.41420   0.00000  Uiso   1.00
C683   C     0.75243   0.29176   0.53941   0.00000  Uiso   1.00
O684   O     0.73161   0.25930   0.52189   0.00000  Uiso   1.00
O685   O     0.73452   0.31053   0.57624   0.00000  Uiso   1.00
H686   H     0.70495   0.29383   0.58580   0.00000  Uiso   1.00
S687   S     0.92008   0.22349   0.63666   0.00000  Uiso   1.00
O688   O     0.92940   0.26083   0.33562   0.00000  Uiso   1.00
O689   O     0.96544   0.19633   0.64658   0.00000  Uiso   1.00
O690   O     0.91763   0.24181   0.58419   0.00000  Uiso   1.00
H691   H     0.95190   0.25530   0.58396   0.00000  Uiso   1.00
S692   S     0.74659   0.10984   0.36334   0.00000  Uiso   1.00
O693   O     0.70123   0.13700   0.35342   0.00000  Uiso   1.00
O694   O     0.73727   0.07251   0.66438   0.00000  Uiso   1.00
O695   O     0.74904   0.09152   0.41581   0.00000  Uiso   1.00
H696   H     0.71477   0.07803   0.41604   0.00000  Uiso   1.00
C697   C     0.16829   0.42024   0.49995   0.00000  Uiso   1.00
C698   C     0.16504   0.57976   0.50005   0.00000  Uiso   1.00
C699   C     0.06733   0.50013   0.48807   0.00000  Uiso   1.00
C700   C     0.26600   0.49987   0.51193   0.00000  Uiso   1.00
C701   C     0.01267   0.50057   0.48165   0.00000  Uiso   1.00
C702   C     0.32066   0.49943   0.51835   0.00000  Uiso   1.00
C703   C     0.20484   0.35425   0.47950   0.00000  Uiso   1.00
C704   C     0.12850   0.64575   0.52050   0.00000  Uiso   1.00
C705   C     0.20147   0.64444   0.47934   0.00000  Uiso   1.00
C706   C     0.13187   0.35556   0.52066   0.00000  Uiso   1.00
C707   C     0.16430   0.62394   0.50003   0.00000  Uiso   1.00
C708   C     0.16903   0.37606   0.49997   0.00000  Uiso   1.00
C709   C     0.19872   0.52633   0.36347   0.00000  Uiso   1.00
C710   C     0.13461   0.47367   0.63653   0.00000  Uiso   1.00
C711   C     0.19993   0.52650   0.64946   0.00000  Uiso   1.00
C712   C     0.13341   0.47350   0.35054   0.00000  Uiso   1.00
H713   H     0.22910   0.62655   0.46461   0.00000  Uiso   1.00
H714   H     0.10424   0.37345   0.53539   0.00000  Uiso   1.00
H715   H     0.22472   0.54648   0.38703   0.00000  Uiso   1.00
H716   H     0.10861   0.45352   0.61297   0.00000  Uiso   1.00
N717   N     0.16665   0.49999   0.61907   0.00000  Uiso   1.00
N718   N     0.16668   0.50001   0.38093   0.00000  Uiso   1.00
O719   O     0.16666   0.43892   0.53821   0.00000  Uiso   1.00
O720   O     0.16667   0.56108   0.46179   0.00000  Uiso   1.00
O721   O     0.16666   0.43893   0.46176   0.00000  Uiso   1.00
O722   O     0.16667   0.56107   0.53824   0.00000  Uiso   1.00
O723   O     0.09058   0.50000   0.52928   0.00000  Uiso   1.00
O724   O     0.24275   0.50000   0.47072   0.00000  Uiso   1.00
O725   O     0.09058   0.50000   0.45284   0.00000  Uiso   1.00
O726   O     0.24275   0.50000   0.54716   0.00000  Uiso   1.00
Zn727  Zn    0.16667   0.49999   0.55104   0.00000  Uiso   1.00
Zn728  Zn    0.16667   0.50001   0.44896   0.00000  Uiso   1.00
C729   C     0.32120   0.50153   0.43308   0.00000  Uiso   1.00
O730   O     0.32521   0.53333   0.41157   0.00000  Uiso   1.00
O731   O     0.29469   0.46573   0.41209   0.00000  Uiso   1.00
H732   H     0.27884   0.47018   0.37925   0.00000  Uiso   1.00
C733   C     0.01213   0.49847   0.56692   0.00000  Uiso   1.00
O734   O     0.00812   0.46667   0.58843   0.00000  Uiso   1.00
O735   O     0.03864   0.53427   0.58791   0.00000  Uiso   1.00
H736   H     0.05449   0.52982   0.62075   0.00000  Uiso   1.00
C737   C     0.24757   0.37491   0.46059   0.00000  Uiso   1.00
O738   O     0.26839   0.40737   0.47811   0.00000  Uiso   1.00
O739   O     0.26548   0.35613   0.42376   0.00000  Uiso   1.00
H740   H     0.29505   0.37284   0.41420   0.00000  Uiso   1.00
C741   C     0.08577   0.62509   0.53941   0.00000  Uiso   1.00
O742   O     0.06494   0.59263   0.52189   0.00000  Uiso   1.00
O743   O     0.06786   0.64387   0.57624   0.00000  Uiso   1.00
H744   H     0.03829   0.62716   0.58580   0.00000  Uiso   1.00
S745   S     0.25341   0.55682   0.63666   0.00000  Uiso   1.00
O746   O     0.26273   0.59416   0.33562   0.00000  Uiso   1.00
O747   O     0.29877   0.52967   0.64658   0.00000  Uiso   1.00
O748   O     0.25096   0.57514   0.58419   0.00000  Uiso   1.00
H749   H     0.28523   0.58864   0.58396   0.00000  Uiso   1.00
S750   S     0.07992   0.44318   0.36334   0.00000  Uiso   1.00
O751   O     0.03456   0.47033   0.35342   0.00000  Uiso   1.00
O752   O     0.07060   0.40584   0.66438   0.00000  Uiso   1.00
O753   O     0.08237   0.42486   0.41581   0.00000  Uiso   1.00
H754   H     0.04810   0.41136   0.41604   0.00000  Uiso   1.00
C755   C     0.50163   0.42024   0.49995   0.00000  Uiso   1.00
C756   C     0.49837   0.57976   0.50005   0.00000  Uiso   1.00
C757   C     0.40066   0.50013   0.48807   0.00000  Uiso   1.00
C758   C     0.59934   0.49987   0.51193   0.00000  Uiso   1.00
C759   C     0.34600   0.50057   0.48165   0.00000  Uiso   1.00
C760   C     0.65400   0.49943   0.51835   0.00000  Uiso   1.00
C761   C     0.53817   0.35425   0.47950   0.00000  Uiso   1.00
C762   C     0.46183   0.64575   0.52050   0.00000  Uiso   1.00
C763   C     0.53480   0.64444   0.47934   0.00000  Uiso   1.00
C764   C     0.46520   0.35556   0.52066   0.00000  Uiso   1.00
C765   C     0.49763   0.62394   0.50003   0.00000  Uiso   1.00
C766   C     0.50237   0.37606   0.49997   0.00000  Uiso   1.00
C767   C     0.53206   0.52633   0.36347   0.00000  Uiso   1.00
C768   C     0.46794   0.47367   0.63653   0.00000  Uiso   1.00
C769   C     0.53326   0.52650   0.64946   0.00000  Uiso   1.00
C770   C     0.46674   0.47350   0.35054   0.00000  Uiso   1.00
H771   H     0.56243   0.62655   0.46461   0.00000  Uiso   1.00
H772   H     0.43757   0.37345   0.53539   0.00000  Uiso   1.00
H773   H     0.55806   0.54648   0.38703   0.00000  Uiso   1.00
H774   H     0.44194   0.45352   0.61297   0.00000  Uiso   1.00
N775   N     0.49999   0.49999   0.61907   0.00000  Uiso   1.00
N776   N     0.50001   0.50001   0.38093   0.00000  Uiso   1.00
O777   O     0.50000   0.43892   0.53821   0.00000  Uiso   1.00
O778   O     0.50000   0.56108   0.46179   0.00000  Uiso   1.00
O779   O     0.50000   0.43893   0.46176   0.00000  Uiso   1.00
O780   O     0.50000   0.56107   0.53824   0.00000  Uiso   1.00
O781   O     0.42392   0.50000   0.52928   0.00000  Uiso   1.00
O782   O     0.57608   0.50000   0.47072   0.00000  Uiso   1.00
O783   O     0.42392   0.50000   0.45284   0.00000  Uiso   1.00
O784   O     0.57608   0.50000   0.54716   0.00000  Uiso   1.00
Zn785  Zn    0.50000   0.49999   0.55104   0.00000  Uiso   1.00
Zn786  Zn    0.50000   0.50001   0.44896   0.00000  Uiso   1.00
C787   C     0.65454   0.50153   0.43308   0.00000  Uiso   1.00
O788   O     0.65854   0.53333   0.41157   0.00000  Uiso   1.00
O789   O     0.62802   0.46573   0.41209   0.00000  Uiso   1.00
H790   H     0.61217   0.47018   0.37925   0.00000  Uiso   1.00
C791   C     0.34546   0.49847   0.56692   0.00000  Uiso   1.00
O792   O     0.34146   0.46667   0.58843   0.00000  Uiso   1.00
O793   O     0.37198   0.53427   0.58791   0.00000  Uiso   1.00
H794   H     0.38783   0.52982   0.62075   0.00000  Uiso   1.00
C795   C     0.58090   0.37491   0.46059   0.00000  Uiso   1.00
O796   O     0.60172   0.40737   0.47811   0.00000  Uiso   1.00
O797   O     0.59881   0.35613   0.42376   0.00000  Uiso   1.00
H798   H     0.62838   0.37284   0.41420   0.00000  Uiso   1.00
C799   C     0.41910   0.62509   0.53941   0.00000  Uiso   1.00
O800   O     0.39828   0.59263   0.52189   0.00000  Uiso   1.00
O801   O     0.40119   0.64387   0.57624   0.00000  Uiso   1.00
H802   H     0.37162   0.62716   0.58580   0.00000  Uiso   1.00
S803   S     0.58674   0.55682   0.63666   0.00000  Uiso   1.00
O804   O     0.59606   0.59416   0.33562   0.00000  Uiso   1.00
O805   O     0.63211   0.52967   0.64658   0.00000  Uiso   1.00
O806   O     0.58430   0.57514   0.58419   0.00000  Uiso   1.00
H807   H     0.61856   0.58864   0.58396   0.00000  Uiso   1.00
S808   S     0.41326   0.44318   0.36334   0.00000  Uiso   1.00
O809   O     0.36789   0.47033   0.35342   0.00000  Uiso   1.00
O810   O     0.40394   0.40584   0.66438   0.00000  Uiso   1.00
O811   O     0.41570   0.42486   0.41581   0.00000  Uiso   1.00
H812   H     0.38144   0.41136   0.41604   0.00000  Uiso   1.00
C813   C     0.83496   0.42024   0.49995   0.00000  Uiso   1.00
C814   C     0.83171   0.57976   0.50005   0.00000  Uiso   1.00
C815   C     0.73400   0.50013   0.48807   0.00000  Uiso   1.00
C816   C     0.93267   0.49987   0.51193   0.00000  Uiso   1.00
C817   C     0.67934   0.50057   0.48165   0.00000  Uiso   1.00
C818   C     0.98733   0.49943   0.51835   0.00000  Uiso   1.00
C819   C     0.87150   0.35425   0.47950   0.00000  Uiso   1.00
C820   C     0.79516   0.64575   0.52050   0.00000  Uiso   1.00
C821   C     0.86813   0.64444   0.47934   0.00000  Uiso   1.00
C822   C     0.79853   0.35556   0.52066   0.00000  Uiso   1.00
C823   C     0.83097   0.62394   0.50003   0.00000  Uiso   1.00
C824   C     0.83570   0.37606   0.49997   0.00000  Uiso   1.00
C825   C     0.86539   0.52633   0.36347   0.00000  Uiso   1.00
C826   C     0.80128   0.47367   0.63653   0.00000  Uiso   1.00
C827   C     0.86659   0.52650   0.64946   0.00000  Uiso   1.00
C828   C     0.80007   0.47350   0.35054   0.00000  Uiso   1.00
H829   H     0.89576   0.62655   0.46461   0.00000  Uiso   1.00
H830   H     0.77090   0.37345   0.53539   0.00000  Uiso   1.00
H831   H     0.89139   0.54648   0.38703   0.00000  Uiso   1.00
H832   H     0.77528   0.45352   0.61297   0.00000  Uiso   1.00
N833   N     0.83332   0.49999   0.61907   0.00000  Uiso   1.00
N834   N     0.83335   0.50001   0.38093   0.00000  Uiso   1.00
O835   O     0.83333   0.43892   0.53821   0.00000  Uiso   1.00
O836   O     0.83334   0.56108   0.46179   0.00000  Uiso   1.00
O837   O     0.83333   0.43893   0.46176   0.00000  Uiso   1.00
O838   O     0.83334   0.56107   0.53824   0.00000  Uiso   1.00
O839   O     0.75725   0.50000   0.52928   0.00000  Uiso   1.00
O840   O     0.90942   0.50000   0.47072   0.00000  Uiso   1.00
O841   O     0.75725   0.50000   0.45284   0.00000  Uiso   1.00
O842   O     0.90942   0.50000   0.54716   0.00000  Uiso   1.00
Zn843  Zn    0.83333   0.49999   0.55104   0.00000  Uiso   1.00
Zn844  Zn    0.83333   0.50001   0.44896   0.00000  Uiso   1.00
C845   C     0.98787   0.50153   0.43308   0.00000  Uiso   1.00
O846   O     0.99188   0.53333   0.41157   0.00000  Uiso   1.00
O847   O     0.96136   0.46573   0.41209   0.00000  Uiso   1.00
H848   H     0.94551   0.47018   0.37925   0.00000  Uiso   1.00
C849   C     0.67880   0.49847   0.56692   0.00000  Uiso   1.00
O850   O     0.67479   0.46667   0.58843   0.00000  Uiso   1.00
O851   O     0.70531   0.53427   0.58791   0.00000  Uiso   1.00
H852   H     0.72116   0.52982   0.62075   0.00000  Uiso   1.00
C853   C     0.91423   0.37491   0.46059   0.00000  Uiso   1.00
O854   O     0.93506   0.40737   0.47811   0.00000  Uiso   1.00
O855   O     0.93214   0.35613   0.42376   0.00000  Uiso   1.00
H856   H     0.96171   0.37284   0.41420   0.00000  Uiso   1.00
C857   C     0.75243   0.62509   0.53941   0.00000  Uiso   1.00
O858   O     0.73161   0.59263   0.52189   0.00000  Uiso   1.00
O859   O     0.73452   0.64387   0.57624   0.00000  Uiso   1.00
H860   H     0.70495   0.62716   0.58580   0.00000  Uiso   1.00
S861   S     0.92008   0.55682   0.63666   0.00000  Uiso   1.00
O862   O     0.92940   0.59416   0.33562   0.00000  Uiso   1.00
O863   O     0.96544   0.52967   0.64658   0.00000  Uiso   1.00
O864   O     0.91763   0.57514   0.58419   0.00000  Uiso   1.00
H865   H     0.95190   0.58864   0.58396   0.00000  Uiso   1.00
S866   S     0.74659   0.44318   0.36334   0.00000  Uiso   1.00
O867   O     0.70123   0.47033   0.35342   0.00000  Uiso   1.00
O868   O     0.73727   0.40584   0.66438   0.00000  Uiso   1.00
O869   O     0.74904   0.42486   0.41581   0.00000  Uiso   1.00
H870   H     0.71477   0.41136   0.41604   0.00000  Uiso   1.00
C871   C     0.16829   0.75357   0.49995   0.00000  Uiso   1.00
C872   C     0.16504   0.91309   0.50005   0.00000  Uiso   1.00
C873   C     0.06733   0.83346   0.48807   0.00000  Uiso   1.00
C874   C     0.26600   0.83320   0.51193   0.00000  Uiso   1.00
C875   C     0.01267   0.83390   0.48165   0.00000  Uiso   1.00
C876   C     0.32066   0.83277   0.51835   0.00000  Uiso   1.00
C877   C     0.20484   0.68758   0.47950   0.00000  Uiso   1.00
C878   C     0.12850   0.97909   0.52050   0.00000  Uiso   1.00
C879   C     0.20147   0.97777   0.47934   0.00000  Uiso   1.00
C880   C     0.13187   0.68889   0.52066   0.00000  Uiso   1.00
C881   C     0.16430   0.95728   0.50003   0.00000  Uiso   1.00
C882   C     0.16903   0.70939   0.49997   0.00000  Uiso   1.00
C883   C     0.19872   0.85967   0.36347   0.00000  Uiso   1.00
C884   C     0.13461   0.80700   0.63653   0.00000  Uiso   1.00
C885   C     0.19993   0.85983   0.64946   0.00000  Uiso   1.00
C886   C     0.13341   0.80683   0.35054   0.00000  Uiso   1.00
H887   H     0.22910   0.95988   0.46461   0.00000  Uiso   1.00
H888   H     0.10424   0.70679   0.53539   0.00000  Uiso   1.00
H889   H     0.22472   0.87981   0.38703   0.00000  Uiso   1.00
H890   H     0.10861   0.78685   0.61297   0.00000  Uiso   1.00
N891   N     0.16665   0.83332   0.61907   0.00000  Uiso   1.00
N892   N     0.16668   0.83334   0.38093   0.00000  Uiso   1.00
O893   O     0.16666   0.77225   0.53821   0.00000  Uiso   1.00
O894   O     0.16667   0.89442   0.46179   0.00000  Uiso   1.00
O895   O     0.16666   0.77226   0.46176   0.00000  Uiso   1.00
O896   O     0.16667   0.89441   0.53824   0.00000  Uiso   1.00
O897   O     0.09058   0.83333   0.52928   0.00000  Uiso   1.00
O898   O     0.24275   0.83334   0.47072   0.00000  Uiso   1.00
O899   O     0.09058   0.83334   0.45284   0.00000  Uiso   1.00
O900   O     0.24275   0.83333   0.54716   0.00000  Uiso   1.00
Zn901  Zn    0.16667   0.83333   0.55104   0.00000  Uiso   1.00
Zn902  Zn    0.16667   0.83334   0.44896   0.00000  Uiso   1.00
C903   C     0.32120   0.83486   0.43308   0.00000  Uiso   1.00
O904   O     0.32521   0.86667   0.41157   0.00000  Uiso   1.00
O905   O     0.29469   0.79906   0.41209   0.00000  Uiso   1.00
H906   H     0.27884   0.80351   0.37925   0.00000  Uiso   1.00
C907   C     0.01213   0.83181   0.56692   0.00000  Uiso   1.00
O908   O     0.00812   0.80000   0.58843   0.00000  Uiso   1.00
O909   O     0.03864   0.86761   0.58791   0.00000  Uiso   1.00
H910   H     0.05449   0.86316   0.62075   0.00000  Uiso   1.00
C911   C     0.24757   0.70824   0.46059   0.00000  Uiso   1.00
O912   O     0.26839   0.74070   0.47811   0.00000  Uiso   1.00
O913   O     0.26548   0.68947   0.42376   0.00000  Uiso   1.00
H914   H     0.29505   0.70617   0.41420   0.00000  Uiso   1.00
C915   C     0.08577   0.95842   0.53941   0.00000  Uiso   1.00
O916   O     0.06494   0.92596   0.52189   0.00000  Uiso   1.00
O917   O     0.06786   0.97720   0.57624   0.00000  Uiso   1.00
H918   H     0.03829   0.96049   0.58580   0.00000  Uiso   1.00
S919   S     0.25341   0.89016   0.63666   0.00000  Uiso   1.00
O920   O     0.26273   0.92749   0.33562   0.00000  Uiso   1.00
O921   O     0.29877   0.86300   0.64658   0.00000  Uiso   1.00
O922   O     0.25096   0.90848   0.58419   0.00000  Uiso   1.00
H923   H     0.28523   0.92197   0.58396   0.00000  Uiso   1.00
S924   S     0.07992   0.77651   0.36334   0.00000  Uiso   1.00
O925   O     0.03456   0.80367   0.35342   0.00000  Uiso   1.00
O926   O     0.07060   0.73917   0.66438   0.00000  Uiso   1.00
O927   O     0.08237   0.75819   0.41581   0.00000  Uiso   1.00
H928   H     0.04810   0.74470   0.41604   0.00000  Uiso   1.00
C929   C     0.50163   0.75357   0.49995   0.00000  Uiso   1.00
C930   C     0.49837   0.91309   0.50005   0.00000  Uiso   1.00
C931   C     0.40066   0.83346   0.48807   0.00000  Uiso   1.00
C932   C     0.59934   0.83320   0.51193   0.00000  Uiso   1.00
C933   C     0.34600   0.83390   0.48165   0.00000  Uiso   1.00
C934   C     0.65400   0.83277   0.51835   0.00000  Uiso   1.00
C935   C     0.53817   0.68758   0.47950   0.00000  Uiso   1.00
C936   C     0.46183   0.97909   0.52050   0.00000  Uiso   1.00
C937   C     0.53480   0.97777   0.47934   0.00000  Uiso   1.00
C938   C     0.46520   0.68889   0.52066   0.00000  Uiso   1.00
C939   C     0.49763   0.95728   0.50003   0.00000  Uiso   1.00
C940   C     0.50237   0.70939   0.49997   0.00000  Uiso   1.00
C941   C     0.53206   0.85967   0.36347   0.00000  Uiso   1.00
C942   C     0.46794   0.80700   0.63653   0.00000  Uiso   1.00
C943   C     0.53326   0.85983   0.64946   0.00000  Uiso   1.00
C944   C     0.46674   0.80683   0.35054   0.00000  Uiso   1.00
H945   H     0.56243   0.95988   0.46461   0.00000  Uiso   1.00
H946   H     0.43757   0.70679   0.53539   0.00000  Uiso   1.00
H947   H     0.55806   0.87981   0.38703   0.00000  Uiso   1.00
H948   H     0.44194   0.78685   0.61297   0.00000  Uiso   1.00
N949   N     0.49999   0.83332   0.61907   0.00000  Uiso   1.00
N950   N     0.50001   0.83334   0.38093   0.00000  Uiso   1.00
O951   O     0.50000   0.77225   0.53821   0.00000  Uiso   1.00
O952   O     0.50000   0.89442   0.46179   0.00000  Uiso   1.00
O953   O     0.50000   0.77226   0.46176   0.00000  Uiso   1.00
O954   O     0.50000   0.89441   0.53824   0.00000  Uiso   1.00
O955   O     0.42392   0.83333   0.52928   0.00000  Uiso   1.00
O956   O     0.57608   0.83334   0.47072   0.00000  Uiso   1.00
O957   O     0.42392   0.83334   0.45284   0.00000  Uiso   1.00
O958   O     0.57608   0.83333   0.54716   0.00000  Uiso   1.00
Zn959  Zn    0.50000   0.83333   0.55104   0.00000  Uiso   1.00
Zn960  Zn    0.50000   0.83334   0.44896   0.00000  Uiso   1.00
C961   C     0.65454   0.83486   0.43308   0.00000  Uiso   1.00
O962   O     0.65854   0.86667   0.41157   0.00000  Uiso   1.00
O963   O     0.62802   0.79906   0.41209   0.00000  Uiso   1.00
H964   H     0.61217   0.80351   0.37925   0.00000  Uiso   1.00
C965   C     0.34546   0.83181   0.56692   0.00000  Uiso   1.00
O966   O     0.34146   0.80000   0.58843   0.00000  Uiso   1.00
O967   O     0.37198   0.86761   0.58791   0.00000  Uiso   1.00
H968   H     0.38783   0.86316   0.62075   0.00000  Uiso   1.00
C969   C     0.58090   0.70824   0.46059   0.00000  Uiso   1.00
O970   O     0.60172   0.74070   0.47811   0.00000  Uiso   1.00
O971   O     0.59881   0.68947   0.42376   0.00000  Uiso   1.00
H972   H     0.62838   0.70617   0.41420   0.00000  Uiso   1.00
C973   C     0.41910   0.95842   0.53941   0.00000  Uiso   1.00
O974   O     0.39828   0.92596   0.52189   0.00000  Uiso   1.00
O975   O     0.40119   0.97720   0.57624   0.00000  Uiso   1.00
H976   H     0.37162   0.96049   0.58580   0.00000  Uiso   1.00
S977   S     0.58674   0.89016   0.63666   0.00000  Uiso   1.00
O978   O     0.59606   0.92749   0.33562   0.00000  Uiso   1.00
O979   O     0.63211   0.86300   0.64658   0.00000  Uiso   1.00
O980   O     0.58430   0.90848   0.58419   0.00000  Uiso   1.00
H981   H     0.61856   0.92197   0.58396   0.00000  Uiso   1.00
S982   S     0.41326   0.77651   0.36334   0.00000  Uiso   1.00
O983   O     0.36789   0.80367   0.35342   0.00000  Uiso   1.00
O984   O     0.40394   0.73917   0.66438   0.00000  Uiso   1.00
O985   O     0.41570   0.75819   0.41581   0.00000  Uiso   1.00
H986   H     0.38144   0.74470   0.41604   0.00000  Uiso   1.00
C987   C     0.83496   0.75357   0.49995   0.00000  Uiso   1.00
C988   C     0.83171   0.91309   0.50005   0.00000  Uiso   1.00
C989   C     0.73400   0.83346   0.48807   0.00000  Uiso   1.00
C990   C     0.93267   0.83320   0.51193   0.00000  Uiso   1.00
C991   C     0.67934   0.83390   0.48165   0.00000  Uiso   1.00
C992   C     0.98733   0.83277   0.51835   0.00000  Uiso   1.00
C993   C     0.87150   0.68758   0.47950   0.00000  Uiso   1.00
C994   C     0.79516   0.97909   0.52050   0.00000  Uiso   1.00
C995   C     0.86813   0.97777   0.47934   0.00000  Uiso   1.00
C996   C     0.79853   0.68889   0.52066   0.00000  Uiso   1.00
C997   C     0.83097   0.95728   0.50003   0.00000  Uiso   1.00
C998   C     0.83570   0.70939   0.49997   0.00000  Uiso   1.00
C999   C     0.86539   0.85967   0.36347   0.00000  Uiso   1.00
C1000  C     0.80128   0.80700   0.63653   0.00000  Uiso   1.00
C1001  C     0.86659   0.85983   0.64946   0.00000  Uiso   1.00
C1002  C     0.80007   0.80683   0.35054   0.00000  Uiso   1.00
H1003  H     0.89576   0.95988   0.46461   0.00000  Uiso   1.00
H1004  H     0.77090   0.70679   0.53539   0.00000  Uiso   1.00
H1005  H     0.89139   0.87981   0.38703   0.00000  Uiso   1.00
H1006  H     0.77528   0.78685   0.61297   0.00000  Uiso   1.00
N1007  N     0.83332   0.83332   0.61907   0.00000  Uiso   1.00
N1008  N     0.83335   0.83334   0.38093   0.00000  Uiso   1.00
O1009  O     0.83333   0.77225   0.53821   0.00000  Uiso   1.00
O1010  O     0.83334   0.89442   0.46179   0.00000  Uiso   1.00
O1011  O     0.83333   0.77226   0.46176   0.00000  Uiso   1.00
O1012  O     0.83334   0.89441   0.53824   0.00000  Uiso   1.00
O1013  O     0.75725   0.83333   0.52928   0.00000  Uiso   1.00
O1014  O     0.90942   0.83334   0.47072   0.00000  Uiso   1.00
O1015  O     0.75725   0.83334   0.45284   0.00000  Uiso   1.00
O1016  O     0.90942   0.83333   0.54716   0.00000  Uiso   1.00
Zn1017 Zn    0.83333   0.83333   0.55104   0.00000  Uiso   1.00
Zn1018 Zn    0.83333   0.83334   0.44896   0.00000  Uiso   1.00
C1019  C     0.98787   0.83486   0.43308   0.00000  Uiso   1.00
O1020  O     0.99188   0.86667   0.41157   0.00000  Uiso   1.00
O1021  O     0.96136   0.79906   0.41209   0.00000  Uiso   1.00
H1022  H     0.94551   0.80351   0.37925   0.00000  Uiso   1.00
C1023  C     0.67880   0.83181   0.56692   0.00000  Uiso   1.00
O1024  O     0.67479   0.80000   0.58843   0.00000  Uiso   1.00
O1025  O     0.70531   0.86761   0.58791   0.00000  Uiso   1.00
H1026  H     0.72116   0.86316   0.62075   0.00000  Uiso   1.00
C1027  C     0.91423   0.70824   0.46059   0.00000  Uiso   1.00
O1028  O     0.93506   0.74070   0.47811   0.00000  Uiso   1.00
O1029  O     0.93214   0.68947   0.42376   0.00000  Uiso   1.00
H1030  H     0.96171   0.70617   0.41420   0.00000  Uiso   1.00
C1031  C     0.75243   0.95842   0.53941   0.00000  Uiso   1.00
O1032  O     0.73161   0.92596   0.52189   0.00000  Uiso   1.00
O1033  O     0.73452   0.97720   0.57624   0.00000  Uiso   1.00
H1034  H     0.70495   0.96049   0.58580   0.00000  Uiso   1.00
S1035  S     0.92008   0.89016   0.63666   0.00000  Uiso   1.00
O1036  O     0.92940   0.92749   0.33562   0.00000  Uiso   1.00
O1037  O     0.96544   0.86300   0.64658   0.00000  Uiso   1.00
O1038  O     0.91763   0.90848   0.58419   0.00000  Uiso   1.00
H1039  H     0.95190   0.92197   0.58396   0.00000  Uiso   1.00
S1040  S     0.74659   0.77651   0.36334   0.00000  Uiso   1.00
O1041  O     0.70123   0.80367   0.35342   0.00000  Uiso   1.00
O1042  O     0.73727   0.73917   0.66438   0.00000  Uiso   1.00
O1043  O     0.74904   0.75819   0.41581   0.00000  Uiso   1.00
H1044  H     0.71477   0.74470   0.41604   0.00000  Uiso   1.00
C1045  C     0.16829   0.08691   0.83328   0.00000  Uiso   1.00
C1046  C     0.16504   0.24643   0.83338   0.00000  Uiso   1.00
C1047  C     0.06733   0.16680   0.82140   0.00000  Uiso   1.00
C1048  C     0.26600   0.16654   0.84527   0.00000  Uiso   1.00
C1049  C     0.01267   0.16723   0.81498   0.00000  Uiso   1.00
C1050  C     0.32066   0.16610   0.85168   0.00000  Uiso   1.00
C1051  C     0.20484   0.02091   0.81283   0.00000  Uiso   1.00
C1052  C     0.12850   0.31242   0.85383   0.00000  Uiso   1.00
C1053  C     0.20147   0.31111   0.81267   0.00000  Uiso   1.00
C1054  C     0.13187   0.02223   0.85400   0.00000  Uiso   1.00
C1055  C     0.16430   0.29061   0.83336   0.00000  Uiso   1.00
C1056  C     0.16903   0.04272   0.83331   0.00000  Uiso   1.00
C1057  C     0.19872   0.19300   0.69680   0.00000  Uiso   1.00
C1058  C     0.13461   0.14034   0.96986   0.00000  Uiso   1.00
C1059  C     0.19993   0.19317   0.98279   0.00000  Uiso   1.00
C1060  C     0.13341   0.14017   0.68387   0.00000  Uiso   1.00
H1061  H     0.22910   0.29322   0.79794   0.00000  Uiso   1.00
H1062  H     0.10424   0.04012   0.86872   0.00000  Uiso   1.00
H1063  H     0.22472   0.21315   0.72036   0.00000  Uiso   1.00
H1064  H     0.10861   0.12019   0.94631   0.00000  Uiso   1.00
N1065  N     0.16665   0.16666   0.95240   0.00000  Uiso   1.00
N1066  N     0.16668   0.16668   0.71427   0.00000  Uiso   1.00
O1067  O     0.16666   0.10558   0.87154   0.00000  Uiso   1.00
O1068  O     0.16667   0.22775   0.79513   0.00000  Uiso   1.00
O1069  O     0.16666   0.10559   0.79510   0.00000  Uiso   1.00
O1070  O     0.16667   0.22774   0.87157   0.00000  Uiso   1.00
O1071  O     0.09058   0.16666   0.86261   0.00000  Uiso   1.00
O1072  O     0.24275   0.16667   0.80405   0.00000  Uiso   1.00
O1073  O     0.09058   0.16667   0.78617   0.00000  Uiso   1.00
O1074  O     0.24275   0.16666   0.88050   0.00000  Uiso   1.00
Zn1075 Zn    0.16667   0.16666   0.88437   0.00000  Uiso   1.00
Zn1076 Zn    0.16667   0.16667   0.78229   0.00000  Uiso   1.00
C1077  C     0.32120   0.16819   0.76641   0.00000  Uiso   1.00
O1078  O     0.32521   0.20000   0.74490   0.00000  Uiso   1.00
O1079  O     0.29469   0.13240   0.74543   0.00000  Uiso   1.00
H1080  H     0.27884   0.13684   0.71258   0.00000  Uiso   1.00
C1081  C     0.01213   0.16514   0.90025   0.00000  Uiso   1.00
O1082  O     0.00812   0.13334   0.92176   0.00000  Uiso   1.00
O1083  O     0.03864   0.20094   0.92124   0.00000  Uiso   1.00
H1084  H     0.05449   0.19649   0.95408   0.00000  Uiso   1.00
C1085  C     0.24757   0.04158   0.79393   0.00000  Uiso   1.00
O1086  O     0.26839   0.07404   0.81144   0.00000  Uiso   1.00
O1087  O     0.26548   0.02280   0.75710   0.00000  Uiso   1.00
H1088  H     0.29505   0.03951   0.74753   0.00000  Uiso   1.00
C1089  C     0.08577   0.29176   0.87274   0.00000  Uiso   1.00
O1090  O     0.06494   0.25930   0.85522   0.00000  Uiso   1.00
O1091  O     0.06786   0.31053   0.90957   0.00000  Uiso   1.00
H1092  H     0.03829   0.29383   0.91913   0.00000  Uiso   1.00
S1093  S     0.25341   0.22349   0.96999   0.00000  Uiso   1.00
O1094  O     0.26273   0.26083   0.66896   0.00000  Uiso   1.00
O1095  O     0.29877   0.19633   0.97991   0.00000  Uiso   1.00
O1096  O     0.25096   0.24181   0.91752   0.00000  Uiso   1.00
H1097  H     0.28523   0.25530   0.91730   0.00000  Uiso   1.00
S1098  S     0.07992   0.10984   0.69668   0.00000  Uiso   1.00
O1099  O     0.03456   0.13700   0.68675   0.00000  Uiso   1.00
O1100  O     0.07060   0.07251   0.99771   0.00000  Uiso   1.00
O1101  O     0.08237   0.09152   0.74914   0.00000  Uiso   1.00
H1102  H     0.04810   0.07803   0.74937   0.00000  Uiso   1.00
C1103  C     0.50163   0.08691   0.83328   0.00000  Uiso   1.00
C1104  C     0.49837   0.24643   0.83338   0.00000  Uiso   1.00
C1105  C     0.40066   0.16680   0.82140   0.00000  Uiso   1.00
C1106  C     0.59934   0.16654   0.84527   0.00000  Uiso   1.00
C1107  C     0.34600   0.16723   0.81498   0.00000  Uiso   1.00
C1108  C     0.65400   0.16610   0.85168   0.00000  Uiso   1.00
C1109  C     0.53817   0.02091   0.81283   0.00000  Uiso   1.00
C1110  C     0.46183   0.31242   0.85383   0.00000  Uiso   1.00
C1111  C     0.53480   0.31111   0.81267   0.00000  Uiso   1.00
C1112  C     0.46520   0.02223   0.85400   0.00000  Uiso   1.00
C1113  C     0.49763   0.29061   0.83336   0.00000  Uiso   1.00
C1114  C     0.50237   0.04272   0.83331   0.00000  Uiso   1.00
C1115  C     0.53206   0.19300   0.69680   0.00000  Uiso   1.00
C1116  C     0.46794   0.14034   0.96986   0.00000  Uiso   1.00
C1117  C     0.53326   0.19317   0.98279   0.00000  Uiso   1.00
C1118  C     0.46674   0.14017   0.68387   0.00000  Uiso   1.00
H1119  H     0.56243   0.29322   0.79794   0.00000  Uiso   1.00
H1120  H     0.43757   0.04012   0.86872   0.00000  Uiso   1.00
H1121  H     0.55806   0.21315   0.72036   0.00000  Uiso   1.00
H1122  H     0.44194   0.12019   0.94631   0.00000  Uiso   1.00
N1123  N     0.49999   0.16666   0.95240   0.00000  Uiso   1.00
N1124  N     0.50001   0.16668   0.71427   0.00000  Uiso   1.00
O1125  O     0.50000   0.10558   0.87154   0.00000  Uiso   1.00
O1126  O     0.50000   0.22775   0.79513   0.00000  Uiso   1.00
O1127  O     0.50000   0.10559   0.79510   0.00000  Uiso   1.00
O1128  O     0.50000   0.22774   0.87157   0.00000  Uiso   1.00
O1129  O     0.42392   0.16666   0.86261   0.00000  Uiso   1.00
O1130  O     0.57608   0.16667   0.80405   0.00000  Uiso   1.00
O1131  O     0.42392   0.16667   0.78617   0.00000  Uiso   1.00
O1132  O     0.57608   0.16666   0.88050   0.00000  Uiso   1.00
Zn1133 Zn    0.50000   0.16666   0.88437   0.00000  Uiso   1.00
Zn1134 Zn    0.50000   0.16667   0.78229   0.00000  Uiso   1.00
C1135  C     0.65454   0.16819   0.76641   0.00000  Uiso   1.00
O1136  O     0.65854   0.20000   0.74490   0.00000  Uiso   1.00
O1137  O     0.62802   0.13240   0.74543   0.00000  Uiso   1.00
H1138  H     0.61217   0.13684   0.71258   0.00000  Uiso   1.00
C1139  C     0.34546   0.16514   0.90025   0.00000  Uiso   1.00
O1140  O     0.34146   0.13334   0.92176   0.00000  Uiso   1.00
O1141  O     0.37198   0.20094   0.92124   0.00000  Uiso   1.00
H1142  H     0.38783   0.19649   0.95408   0.00000  Uiso   1.00
C1143  C     0.58090   0.04158   0.79393   0.00000  Uiso   1.00
O1144  O     0.60172   0.07404   0.81144   0.00000  Uiso   1.00
O1145  O     0.59881   0.02280   0.75710   0.00000  Uiso   1.00
H1146  H     0.62838   0.03951   0.74753   0.00000  Uiso   1.00
C1147  C     0.41910   0.29176   0.87274   0.00000  Uiso   1.00
O1148  O     0.39828   0.25930   0.85522   0.00000  Uiso   1.00
O1149  O     0.40119   0.31053   0.90957   0.00000  Uiso   1.00
H1150  H     0.37162   0.29383   0.91913   0.00000  Uiso   1.00
S1151  S     0.58674   0.22349   0.96999   0.00000  Uiso   1.00
O1152  O     0.59606   0.26083   0.66896   0.00000  Uiso   1.00
O1153  O     0.63211   0.19633   0.97991   0.00000  Uiso   1.00
O1154  O     0.58430   0.24181   0.91752   0.00000  Uiso   1.00
H1155  H     0.61856   0.25530   0.91730   0.00000  Uiso   1.00
S1156  S     0.41326   0.10984   0.69668   0.00000  Uiso   1.00
O1157  O     0.36789   0.13700   0.68675   0.00000  Uiso   1.00
O1158  O     0.40394   0.07251   0.99771   0.00000  Uiso   1.00
O1159  O     0.41570   0.09152   0.74914   0.00000  Uiso   1.00
H1160  H     0.38144   0.07803   0.74937   0.00000  Uiso   1.00
C1161  C     0.83496   0.08691   0.83328   0.00000  Uiso   1.00
C1162  C     0.83171   0.24643   0.83338   0.00000  Uiso   1.00
C1163  C     0.73400   0.16680   0.82140   0.00000  Uiso   1.00
C1164  C     0.93267   0.16654   0.84527   0.00000  Uiso   1.00
C1165  C     0.67934   0.16723   0.81498   0.00000  Uiso   1.00
C1166  C     0.98733   0.16610   0.85168   0.00000  Uiso   1.00
C1167  C     0.87150   0.02091   0.81283   0.00000  Uiso   1.00
C1168  C     0.79516   0.31242   0.85383   0.00000  Uiso   1.00
C1169  C     0.86813   0.31111   0.81267   0.00000  Uiso   1.00
C1170  C     0.79853   0.02223   0.85400   0.00000  Uiso   1.00
C1171  C     0.83097   0.29061   0.83336   0.00000  Uiso   1.00
C1172  C     0.83570   0.04272   0.83331   0.00000  Uiso   1.00
C1173  C     0.86539   0.19300   0.69680   0.00000  Uiso   1.00
C1174  C     0.80128   0.14034   0.96986   0.00000  Uiso   1.00
C1175  C     0.86659   0.19317   0.98279   0.00000  Uiso   1.00
C1176  C     0.80007   0.14017   0.68387   0.00000  Uiso   1.00
H1177  H     0.89576   0.29322   0.79794   0.00000  Uiso   1.00
H1178  H     0.77090   0.04012   0.86872   0.00000  Uiso   1.00
H1179  H     0.89139   0.21315   0.72036   0.00000  Uiso   1.00
H1180  H     0.77528   0.12019   0.94631   0.00000  Uiso   1.00
N1181  N     0.83332   0.16666   0.95240   0.00000  Uiso   1.00
N1182  N     0.83335   0.16668   0.71427   0.00000  Uiso   1.00
O1183  O     0.83333   0.10558   0.87154   0.00000  Uiso   1.00
O1184  O     0.83334   0.22775   0.79513   0.00000  Uiso   1.00
O1185  O     0.83333   0.10559   0.79510   0.00000  Uiso   1.00
O1186  O     0.83334   0.22774   0.87157   0.00000  Uiso   1.00
O1187  O     0.75725   0.16666   0.86261   0.00000  Uiso   1.00
O1188  O     0.90942   0.16667   0.80405   0.00000  Uiso   1.00
O1189  O     0.75725   0.16667   0.78617   0.00000  Uiso   1.00
O1190  O     0.90942   0.16666   0.88050   0.00000  Uiso   1.00
Zn1191 Zn    0.83333   0.16666   0.88437   0.00000  Uiso   1.00
Zn1192 Zn    0.83333   0.16667   0.78229   0.00000  Uiso   1.00
C1193  C     0.98787   0.16819   0.76641   0.00000  Uiso   1.00
O1194  O     0.99188   0.20000   0.74490   0.00000  Uiso   1.00
O1195  O     0.96136   0.13240   0.74543   0.00000  Uiso   1.00
H1196  H     0.94551   0.13684   0.71258   0.00000  Uiso   1.00
C1197  C     0.67880   0.16514   0.90025   0.00000  Uiso   1.00
O1198  O     0.67479   0.13334   0.92176   0.00000  Uiso   1.00
O1199  O     0.70531   0.20094   0.92124   0.00000  Uiso   1.00
H1200  H     0.72116   0.19649   0.95408   0.00000  Uiso   1.00
C1201  C     0.91423   0.04158   0.79393   0.00000  Uiso   1.00
O1202  O     0.93506   0.07404   0.81144   0.00000  Uiso   1.00
O1203  O     0.93214   0.02280   0.75710   0.00000  Uiso   1.00
H1204  H     0.96171   0.03951   0.74753   0.00000  Uiso   1.00
C1205  C     0.75243   0.29176   0.87274   0.00000  Uiso   1.00
O1206  O     0.73161   0.25930   0.85522   0.00000  Uiso   1.00
O1207  O     0.73452   0.31053   0.90957   0.00000  Uiso   1.00
H1208  H     0.70495   0.29383   0.91913   0.00000  Uiso   1.00
S1209  S     0.92008   0.22349   0.96999   0.00000  Uiso   1.00
O1210  O     0.92940   0.26083   0.66896   0.00000  Uiso   1.00
O1211  O     0.96544   0.19633   0.97991   0.00000  Uiso   1.00
O1212  O     0.91763   0.24181   0.91752   0.00000  Uiso   1.00
H1213  H     0.95190   0.25530   0.91730   0.00000  Uiso   1.00
S1214  S     0.74659   0.10984   0.69668   0.00000  Uiso   1.00
O1215  O     0.70123   0.13700   0.68675   0.00000  Uiso   1.00
O1216  O     0.73727   0.07251   0.99771   0.00000  Uiso   1.00
O1217  O     0.74904   0.09152   0.74914   0.00000  Uiso   1.00
H1218  H     0.71477   0.07803   0.74937   0.00000  Uiso   1.00
C1219  C     0.16829   0.42024   0.83328   0.00000  Uiso   1.00
C1220  C     0.16504   0.57976   0.83338   0.00000  Uiso   1.00
C1221  C     0.06733   0.50013   0.82140   0.00000  Uiso   1.00
C1222  C     0.26600   0.49987   0.84527   0.00000  Uiso   1.00
C1223  C     0.01267   0.50057   0.81498   0.00000  Uiso   1.00
C1224  C     0.32066   0.49943   0.85168   0.00000  Uiso   1.00
C1225  C     0.20484   0.35425   0.81283   0.00000  Uiso   1.00
C1226  C     0.12850   0.64575   0.85383   0.00000  Uiso   1.00
C1227  C     0.20147   0.64444   0.81267   0.00000  Uiso   1.00
C1228  C     0.13187   0.35556   0.85400   0.00000  Uiso   1.00
C1229  C     0.16430   0.62394   0.83336   0.00000  Uiso   1.00
C1230  C     0.16903   0.37606   0.83331   0.00000  Uiso   1.00
C1231  C     0.19872   0.52633   0.69680   0.00000  Uiso   1.00
C1232  C     0.13461   0.47367   0.96986   0.00000  Uiso   1.00
C1233  C     0.19993   0.52650   0.98279   0.00000  Uiso   1.00
C1234  C     0.13341   0.47350   0.68387   0.00000  Uiso   1.00
H1235  H     0.22910   0.62655   0.79794   0.00000  Uiso   1.00
H1236  H     0.10424   0.37345   0.86872   0.00000  Uiso   1.00
H1237  H     0.22472   0.54648   0.72036   0.00000  Uiso   1.00
H1238  H     0.10861   0.45352   0.94631   0.00000  Uiso   1.00
N1239  N     0.16665   0.49999   0.95240   0.00000  Uiso   1.00
N1240  N     0.16668   0.50001   0.71427   0.00000  Uiso   1.00
O1241  O     0.16666   0.43892   0.87154   0.00000  Uiso   1.00
O1242  O     0.16667   0.56108   0.79513   0.00000  Uiso   1.00
O1243  O     0.16666   0.43893   0.79510   0.00000  Uiso   1.00
O1244  O     0.16667   0.56107   0.87157   0.00000  Uiso   1.00
O1245  O     0.09058   0.50000   0.86261   0.00000  Uiso   1.00
O1246  O     0.24275   0.50000   0.80405   0.00000  Uiso   1.00
O1247  O     0.09058   0.50000   0.78617   0.00000  Uiso   1.00
O1248  O     0.24275   0.50000   0.88050   0.00000  Uiso   1.00
Zn1249 Zn    0.16667   0.49999   0.88437   0.00000  Uiso   1.00
Zn1250 Zn    0.16667   0.50001   0.78229   0.00000  Uiso   1.00
C1251  C     0.32120   0.50153   0.76641   0.00000  Uiso   1.00
O1252  O     0.32521   0.53333   0.74490   0.00000  Uiso   1.00
O1253  O     0.29469   0.46573   0.74543   0.00000  Uiso   1.00
H1254  H     0.27884   0.47018   0.71258   0.00000  Uiso   1.00
C1255  C     0.01213   0.49847   0.90025   0.00000  Uiso   1.00
O1256  O     0.00812   0.46667   0.92176   0.00000  Uiso   1.00
O1257  O     0.03864   0.53427   0.92124   0.00000  Uiso   1.00
H1258  H     0.05449   0.52982   0.95408   0.00000  Uiso   1.00
C1259  C     0.24757   0.37491   0.79393   0.00000  Uiso   1.00
O1260  O     0.26839   0.40737   0.81144   0.00000  Uiso   1.00
O1261  O     0.26548   0.35613   0.75710   0.00000  Uiso   1.00
H1262  H     0.29505   0.37284   0.74753   0.00000  Uiso   1.00
C1263  C     0.08577   0.62509   0.87274   0.00000  Uiso   1.00
O1264  O     0.06494   0.59263   0.85522   0.00000  Uiso   1.00
O1265  O     0.06786   0.64387   0.90957   0.00000  Uiso   1.00
H1266  H     0.03829   0.62716   0.91913   0.00000  Uiso   1.00
S1267  S     0.25341   0.55682   0.96999   0.00000  Uiso   1.00
O1268  O     0.26273   0.59416   0.66896   0.00000  Uiso   1.00
O1269  O     0.29877   0.52967   0.97991   0.00000  Uiso   1.00
O1270  O     0.25096   0.57514   0.91752   0.00000  Uiso   1.00
H1271  H     0.28523   0.58864   0.91730   0.00000  Uiso   1.00
S1272  S     0.07992   0.44318   0.69668   0.00000  Uiso   1.00
O1273  O     0.03456   0.47033   0.68675   0.00000  Uiso   1.00
O1274  O     0.07060   0.40584   0.99771   0.00000  Uiso   1.00
O1275  O     0.08237   0.42486   0.74914   0.00000  Uiso   1.00
H1276  H     0.04810   0.41136   0.74937   0.00000  Uiso   1.00
C1277  C     0.50163   0.42024   0.83328   0.00000  Uiso   1.00
C1278  C     0.49837   0.57976   0.83338   0.00000  Uiso   1.00
C1279  C     0.40066   0.50013   0.82140   0.00000  Uiso   1.00
C1280  C     0.59934   0.49987   0.84527   0.00000  Uiso   1.00
C1281  C     0.34600   0.50057   0.81498   0.00000  Uiso   1.00
C1282  C     0.65400   0.49943   0.85168   0.00000  Uiso   1.00
C1283  C     0.53817   0.35425   0.81283   0.00000  Uiso   1.00
C1284  C     0.46183   0.64575   0.85383   0.00000  Uiso   1.00
C1285  C     0.53480   0.64444   0.81267   0.00000  Uiso   1.00
C1286  C     0.46520   0.35556   0.85400   0.00000  Uiso   1.00
C1287  C     0.49763   0.62394   0.83336   0.00000  Uiso   1.00
C1288  C     0.50237   0.37606   0.83331   0.00000  Uiso   1.00
C1289  C     0.53206   0.52633   0.69680   0.00000  Uiso   1.00
C1290  C     0.46794   0.47367   0.96986   0.00000  Uiso   1.00
C1291  C     0.53326   0.52650   0.98279   0.00000  Uiso   1.00
C1292  C     0.46674   0.47350   0.68387   0.00000  Uiso   1.00
H1293  H     0.56243   0.62655   0.79794   0.00000  Uiso   1.00
H1294  H     0.43757   0.37345   0.86872   0.00000  Uiso   1.00
H1295  H     0.55806   0.54648   0.72036   0.00000  Uiso   1.00
H1296  H     0.44194   0.45352   0.94631   0.00000  Uiso   1.00
N1297  N     0.49999   0.49999   0.95240   0.00000  Uiso   1.00
N1298  N     0.50001   0.50001   0.71427   0.00000  Uiso   1.00
O1299  O     0.50000   0.43892   0.87154   0.00000  Uiso   1.00
O1300  O     0.50000   0.56108   0.79513   0.00000  Uiso   1.00
O1301  O     0.50000   0.43893   0.79510   0.00000  Uiso   1.00
O1302  O     0.50000   0.56107   0.87157   0.00000  Uiso   1.00
O1303  O     0.42392   0.50000   0.86261   0.00000  Uiso   1.00
O1304  O     0.57608   0.50000   0.80405   0.00000  Uiso   1.00
O1305  O     0.42392   0.50000   0.78617   0.00000  Uiso   1.00
O1306  O     0.57608   0.50000   0.88050   0.00000  Uiso   1.00
Zn1307 Zn    0.50000   0.49999   0.88437   0.00000  Uiso   1.00
Zn1308 Zn    0.50000   0.50001   0.78229   0.00000  Uiso   1.00
C1309  C     0.65454   0.50153   0.76641   0.00000  Uiso   1.00
O1310  O     0.65854   0.53333   0.74490   0.00000  Uiso   1.00
O1311  O     0.62802   0.46573   0.74543   0.00000  Uiso   1.00
H1312  H     0.61217   0.47018   0.71258   0.00000  Uiso   1.00
C1313  C     0.34546   0.49847   0.90025   0.00000  Uiso   1.00
O1314  O     0.34146   0.46667   0.92176   0.00000  Uiso   1.00
O1315  O     0.37198   0.53427   0.92124   0.00000  Uiso   1.00
H1316  H     0.38783   0.52982   0.95408   0.00000  Uiso   1.00
C1317  C     0.58090   0.37491   0.79393   0.00000  Uiso   1.00
O1318  O     0.60172   0.40737   0.81144   0.00000  Uiso   1.00
O1319  O     0.59881   0.35613   0.75710   0.00000  Uiso   1.00
H1320  H     0.62838   0.37284   0.74753   0.00000  Uiso   1.00
C1321  C     0.41910   0.62509   0.87274   0.00000  Uiso   1.00
O1322  O     0.39828   0.59263   0.85522   0.00000  Uiso   1.00
O1323  O     0.40119   0.64387   0.90957   0.00000  Uiso   1.00
H1324  H     0.37162   0.62716   0.91913   0.00000  Uiso   1.00
S1325  S     0.58674   0.55682   0.96999   0.00000  Uiso   1.00
O1326  O     0.59606   0.59416   0.66896   0.00000  Uiso   1.00
O1327  O     0.63211   0.52967   0.97991   0.00000  Uiso   1.00
O1328  O     0.58430   0.57514   0.91752   0.00000  Uiso   1.00
H1329  H     0.61856   0.58864   0.91730   0.00000  Uiso   1.00
S1330  S     0.41326   0.44318   0.69668   0.00000  Uiso   1.00
O1331  O     0.36789   0.47033   0.68675   0.00000  Uiso   1.00
O1332  O     0.40394   0.40584   0.99771   0.00000  Uiso   1.00
O1333  O     0.41570   0.42486   0.74914   0.00000  Uiso   1.00
H1334  H     0.38144   0.41136   0.74937   0.00000  Uiso   1.00
C1335  C     0.83496   0.42024   0.83328   0.00000  Uiso   1.00
C1336  C     0.83171   0.57976   0.83338   0.00000  Uiso   1.00
C1337  C     0.73400   0.50013   0.82140   0.00000  Uiso   1.00
C1338  C     0.93267   0.49987   0.84527   0.00000  Uiso   1.00
C1339  C     0.67934   0.50057   0.81498   0.00000  Uiso   1.00
C1340  C     0.98733   0.49943   0.85168   0.00000  Uiso   1.00
C1341  C     0.87150   0.35425   0.81283   0.00000  Uiso   1.00
C1342  C     0.79516   0.64575   0.85383   0.00000  Uiso   1.00
C1343  C     0.86813   0.64444   0.81267   0.00000  Uiso   1.00
C1344  C     0.79853   0.35556   0.85400   0.00000  Uiso   1.00
C1345  C     0.83097   0.62394   0.83336   0.00000  Uiso   1.00
C1346  C     0.83570   0.37606   0.83331   0.00000  Uiso   1.00
C1347  C     0.86539   0.52633   0.69680   0.00000  Uiso   1.00
C1348  C     0.80128   0.47367   0.96986   0.00000  Uiso   1.00
C1349  C     0.86659   0.52650   0.98279   0.00000  Uiso   1.00
C1350  C     0.80007   0.47350   0.68387   0.00000  Uiso   1.00
H1351  H     0.89576   0.62655   0.79794   0.00000  Uiso   1.00
H1352  H     0.77090   0.37345   0.86872   0.00000  Uiso   1.00
H1353  H     0.89139   0.54648   0.72036   0.00000  Uiso   1.00
H1354  H     0.77528   0.45352   0.94631   0.00000  Uiso   1.00
N1355  N     0.83332   0.49999   0.95240   0.00000  Uiso   1.00
N1356  N     0.83335   0.50001   0.71427   0.00000  Uiso   1.00
O1357  O     0.83333   0.43892   0.87154   0.00000  Uiso   1.00
O1358  O     0.83334   0.56108   0.79513   0.00000  Uiso   1.00
O1359  O     0.83333   0.43893   0.79510   0.00000  Uiso   1.00
O1360  O     0.83334   0.56107   0.87157   0.00000  Uiso   1.00
O1361  O     0.75725   0.50000   0.86261   0.00000  Uiso   1.00
O1362  O     0.90942   0.50000   0.80405   0.00000  Uiso   1.00
O1363  O     0.75725   0.50000   0.78617   0.00000  Uiso   1.00
O1364  O     0.90942   0.50000   0.88050   0.00000  Uiso   1.00
Zn1365 Zn    0.83333   0.49999   0.88437   0.00000  Uiso   1.00
Zn1366 Zn    0.83333   0.50001   0.78229   0.00000  Uiso   1.00
C1367  C     0.98787   0.50153   0.76641   0.00000  Uiso   1.00
O1368  O     0.99188   0.53333   0.74490   0.00000  Uiso   1.00
O1369  O     0.96136   0.46573   0.74543   0.00000  Uiso   1.00
H1370  H     0.94551   0.47018   0.71258   0.00000  Uiso   1.00
C1371  C     0.67880   0.49847   0.90025   0.00000  Uiso   1.00
O1372  O     0.67479   0.46667   0.92176   0.00000  Uiso   1.00
O1373  O     0.70531   0.53427   0.92124   0.00000  Uiso   1.00
H1374  H     0.72116   0.52982   0.95408   0.00000  Uiso   1.00
C1375  C     0.91423   0.37491   0.79393   0.00000  Uiso   1.00
O1376  O     0.93506   0.40737   0.81144   0.00000  Uiso   1.00
O1377  O     0.93214   0.35613   0.75710   0.00000  Uiso   1.00
H1378  H     0.96171   0.37284   0.74753   0.00000  Uiso   1.00
C1379  C     0.75243   0.62509   0.87274   0.00000  Uiso   1.00
O1380  O     0.73161   0.59263   0.85522   0.00000  Uiso   1.00
O1381  O     0.73452   0.64387   0.90957   0.00000  Uiso   1.00
H1382  H     0.70495   0.62716   0.91913   0.00000  Uiso   1.00
S1383  S     0.92008   0.55682   0.96999   0.00000  Uiso   1.00
O1384  O     0.92940   0.59416   0.66896   0.00000  Uiso   1.00
O1385  O     0.96544   0.52967   0.97991   0.00000  Uiso   1.00
O1386  O     0.91763   0.57514   0.91752   0.00000  Uiso   1.00
H1387  H     0.95190   0.58864   0.91730   0.00000  Uiso   1.00
S1388  S     0.74659   0.44318   0.69668   0.00000  Uiso   1.00
O1389  O     0.70123   0.47033   0.68675   0.00000  Uiso   1.00
O1390  O     0.73727   0.40584   0.99771   0.00000  Uiso   1.00
O1391  O     0.74904   0.42486   0.74914   0.00000  Uiso   1.00
H1392  H     0.71477   0.41136   0.74937   0.00000  Uiso   1.00
C1393  C     0.16829   0.75357   0.83328   0.00000  Uiso   1.00
C1394  C     0.16504   0.91309   0.83338   0.00000  Uiso   1.00
C1395  C     0.06733   0.83346   0.82140   0.00000  Uiso   1.00
C1396  C     0.26600   0.83320   0.84527   0.00000  Uiso   1.00
C1397  C     0.01267   0.83390   0.81498   0.00000  Uiso   1.00
C1398  C     0.32066   0.83277   0.85168   0.00000  Uiso   1.00
C1399  C     0.20484   0.68758   0.81283   0.00000  Uiso   1.00
C1400  C     0.12850   0.97909   0.85383   0.00000  Uiso   1.00
C1401  C     0.20147   0.97777   0.81267   0.00000  Uiso   1.00
C1402  C     0.13187   0.68889   0.85400   0.00000  Uiso   1.00
C1403  C     0.16430   0.95728   0.83336   0.00000  Uiso   1.00
C1404  C     0.16903   0.70939   0.83331   0.00000  Uiso   1.00
C1405  C     0.19872   0.85967   0.69680   0.00000  Uiso   1.00
C1406  C     0.13461   0.80700   0.96986   0.00000  Uiso   1.00
C1407  C     0.19993   0.85983   0.98279   0.00000  Uiso   1.00
C1408  C     0.13341   0.80683   0.68387   0.00000  Uiso   1.00
H1409  H     0.22910   0.95988   0.79794   0.00000  Uiso   1.00
H1410  H     0.10424   0.70679   0.86872   0.00000  Uiso   1.00
H1411  H     0.22472   0.87981   0.72036   0.00000  Uiso   1.00
H1412  H     0.10861   0.78685   0.94631   0.00000  Uiso   1.00
N1413  N     0.16665   0.83332   0.95240   0.00000  Uiso   1.00
N1414  N     0.16668   0.83334   0.71427   0.00000  Uiso   1.00
O1415  O     0.16666   0.77225   0.87154   0.00000  Uiso   1.00
O1416  O     0.16667   0.89442   0.79513   0.00000  Uiso   1.00
O1417  O     0.16666   0.77226   0.79510   0.00000  Uiso   1.00
O1418  O     0.16667   0.89441   0.87157   0.00000  Uiso   1.00
O1419  O     0.09058   0.83333   0.86261   0.00000  Uiso   1.00
O1420  O     0.24275   0.83334   0.80405   0.00000  Uiso   1.00
O1421  O     0.09058   0.83334   0.78617   0.00000  Uiso   1.00
O1422  O     0.24275   0.83333   0.88050   0.00000  Uiso   1.00
Zn1423 Zn    0.16667   0.83333   0.88437   0.00000  Uiso   1.00
Zn1424 Zn    0.16667   0.83334   0.78229   0.00000  Uiso   1.00
C1425  C     0.32120   0.83486   0.76641   0.00000  Uiso   1.00
O1426  O     0.32521   0.86667   0.74490   0.00000  Uiso   1.00
O1427  O     0.29469   0.79906   0.74543   0.00000  Uiso   1.00
H1428  H     0.27884   0.80351   0.71258   0.00000  Uiso   1.00
C1429  C     0.01213   0.83181   0.90025   0.00000  Uiso   1.00
O1430  O     0.00812   0.80000   0.92176   0.00000  Uiso   1.00
O1431  O     0.03864   0.86761   0.92124   0.00000  Uiso   1.00
H1432  H     0.05449   0.86316   0.95408   0.00000  Uiso   1.00
C1433  C     0.24757   0.70824   0.79393   0.00000  Uiso   1.00
O1434  O     0.26839   0.74070   0.81144   0.00000  Uiso   1.00
O1435  O     0.26548   0.68947   0.75710   0.00000  Uiso   1.00
H1436  H     0.29505   0.70617   0.74753   0.00000  Uiso   1.00
C1437  C     0.08577   0.95842   0.87274   0.00000  Uiso   1.00
O1438  O     0.06494   0.92596   0.85522   0.00000  Uiso   1.00
O1439  O     0.06786   0.97720   0.90957   0.00000  Uiso   1.00
H1440  H     0.03829   0.96049   0.91913   0.00000  Uiso   1.00
S1441  S     0.25341   0.89016   0.96999   0.00000  Uiso   1.00
O1442  O     0.26273   0.92749   0.66896   0.00000  Uiso   1.00
O1443  O     0.29877   0.86300   0.97991   0.00000  Uiso   1.00
O1444  O     0.25096   0.90848   0.91752   0.00000  Uiso   1.00
H1445  H     0.28523   0.92197   0.91730   0.00000  Uiso   1.00
S1446  S     0.07992   0.77651   0.69668   0.00000  Uiso   1.00
O1447  O     0.03456   0.80367   0.68675   0.00000  Uiso   1.00
O1448  O     0.07060   0.73917   0.99771   0.00000  Uiso   1.00
O1449  O     0.08237   0.75819   0.74914   0.00000  Uiso   1.00
H1450  H     0.04810   0.74470   0.74937   0.00000  Uiso   1.00
C1451  C     0.50163   0.75357   0.83328   0.00000  Uiso   1.00
C1452  C     0.49837   0.91309   0.83338   0.00000  Uiso   1.00
C1453  C     0.40066   0.83346   0.82140   0.00000  Uiso   1.00
C1454  C     0.59934   0.83320   0.84527   0.00000  Uiso   1.00
C1455  C     0.34600   0.83390   0.81498   0.00000  Uiso   1.00
C1456  C     0.65400   0.83277   0.85168   0.00000  Uiso   1.00
C1457  C     0.53817   0.68758   0.81283   0.00000  Uiso   1.00
C1458  C     0.46183   0.97909   0.85383   0.00000  Uiso   1.00
C1459  C     0.53480   0.97777   0.81267   0.00000  Uiso   1.00
C1460  C     0.46520   0.68889   0.85400   0.00000  Uiso   1.00
C1461  C     0.49763   0.95728   0.83336   0.00000  Uiso   1.00
C1462  C     0.50237   0.70939   0.83331   0.00000  Uiso   1.00
C1463  C     0.53206   0.85967   0.69680   0.00000  Uiso   1.00
C1464  C     0.46794   0.80700   0.96986   0.00000  Uiso   1.00
C1465  C     0.53326   0.85983   0.98279   0.00000  Uiso   1.00
C1466  C     0.46674   0.80683   0.68387   0.00000  Uiso   1.00
H1467  H     0.56243   0.95988   0.79794   0.00000  Uiso   1.00
H1468  H     0.43757   0.70679   0.86872   0.00000  Uiso   1.00
H1469  H     0.55806   0.87981   0.72036   0.00000  Uiso   1.00
H1470  H     0.44194   0.78685   0.94631   0.00000  Uiso   1.00
N1471  N     0.49999   0.83332   0.95240   0.00000  Uiso   1.00
N1472  N     0.50001   0.83334   0.71427   0.00000  Uiso   1.00
O1473  O     0.50000   0.77225   0.87154   0.00000  Uiso   1.00
O1474  O     0.50000   0.89442   0.79513   0.00000  Uiso   1.00
O1475  O     0.50000   0.77226   0.79510   0.00000  Uiso   1.00
O1476  O     0.50000   0.89441   0.87157   0.00000  Uiso   1.00
O1477  O     0.42392   0.83333   0.86261   0.00000  Uiso   1.00
O1478  O     0.57608   0.83334   0.80405   0.00000  Uiso   1.00
O1479  O     0.42392   0.83334   0.78617   0.00000  Uiso   1.00
O1480  O     0.57608   0.83333   0.88050   0.00000  Uiso   1.00
Zn1481 Zn    0.50000   0.83333   0.88437   0.00000  Uiso   1.00
Zn1482 Zn    0.50000   0.83334   0.78229   0.00000  Uiso   1.00
C1483  C     0.65454   0.83486   0.76641   0.00000  Uiso   1.00
O1484  O     0.65854   0.86667   0.74490   0.00000  Uiso   1.00
O1485  O     0.62802   0.79906   0.74543   0.00000  Uiso   1.00
H1486  H     0.61217   0.80351   0.71258   0.00000  Uiso   1.00
C1487  C     0.34546   0.83181   0.90025   0.00000  Uiso   1.00
O1488  O     0.34146   0.80000   0.92176   0.00000  Uiso   1.00
O1489  O     0.37198   0.86761   0.92124   0.00000  Uiso   1.00
H1490  H     0.38783   0.86316   0.95408   0.00000  Uiso   1.00
C1491  C     0.58090   0.70824   0.79393   0.00000  Uiso   1.00
O1492  O     0.60172   0.74070   0.81144   0.00000  Uiso   1.00
O1493  O     0.59881   0.68947   0.75710   0.00000  Uiso   1.00
H1494  H     0.62838   0.70617   0.74753   0.00000  Uiso   1.00
C1495  C     0.41910   0.95842   0.87274   0.00000  Uiso   1.00
O1496  O     0.39828   0.92596   0.85522   0.00000  Uiso   1.00
O1497  O     0.40119   0.97720   0.90957   0.00000  Uiso   1.00
H1498  H     0.37162   0.96049   0.91913   0.00000  Uiso   1.00
S1499  S     0.58674   0.89016   0.96999   0.00000  Uiso   1.00
O1500  O     0.59606   0.92749   0.66896   0.00000  Uiso   1.00
O1501  O     0.63211   0.86300   0.97991   0.00000  Uiso   1.00
O1502  O     0.58430   0.90848   0.91752   0.00000  Uiso   1.00
H1503  H     0.61856   0.92197   0.91730   0.00000  Uiso   1.00
S1504  S     0.41326   0.77651   0.69668   0.00000  Uiso   1.00
O1505  O     0.36789   0.80367   0.68675   0.00000  Uiso   1.00
O1506  O     0.40394   0.73917   0.99771   0.00000  Uiso   1.00
O1507  O     0.41570   0.75819   0.74914   0.00000  Uiso   1.00
H1508  H     0.38144   0.74470   0.74937   0.00000  Uiso   1.00
C1509  C     0.83496   0.75357   0.83328   0.00000  Uiso   1.00
C1510  C     0.83171   0.91309   0.83338   0.00000  Uiso   1.00
C1511  C     0.73400   0.83346   0.82140   0.00000  Uiso   1.00
C1512  C     0.93267   0.83320   0.84527   0.00000  Uiso   1.00
C1513  C     0.67934   0.83390   0.81498   0.00000  Uiso   1.00
C1514  C     0.98733   0.83277   0.85168   0.00000  Uiso   1.00
C1515  C     0.87150   0.68758   0.81283   0.00000  Uiso   1.00
C1516  C     0.79516   0.97909   0.85383   0.00000  Uiso   1.00
C1517  C     0.86813   0.97777   0.81267   0.00000  Uiso   1.00
C1518  C     0.79853   0.68889   0.85400   0.00000  Uiso   1.00
C1519  C     0.83097   0.95728   0.83336   0.00000  Uiso   1.00
C1520  C     0.83570   0.70939   0.83331   0.00000  Uiso   1.00
C1521  C     0.86539   0.85967   0.69680   0.00000  Uiso   1.00
C1522  C     0.80128   0.80700   0.96986   0.00000  Uiso   1.00
C1523  C     0.86659   0.85983   0.98279   0.00000  Uiso   1.00
C1524  C     0.80007   0.80683   0.68387   0.00000  Uiso   1.00
H1525  H     0.89576   0.95988   0.79794   0.00000  Uiso   1.00
H1526  H     0.77090   0.70679   0.86872   0.00000  Uiso   1.00
H1527  H     0.89139   0.87981   0.72036   0.00000  Uiso   1.00
H1528  H     0.77528   0.78685   0.94631   0.00000  Uiso   1.00
N1529  N     0.83332   0.83332   0.95240   0.00000  Uiso   1.00
N1530  N     0.83335   0.83334   0.71427   0.00000  Uiso   1.00
O1531  O     0.83333   0.77225   0.87154   0.00000  Uiso   1.00
O1532  O     0.83334   0.89442   0.79513   0.00000  Uiso   1.00
O1533  O     0.83333   0.77226   0.79510   0.00000  Uiso   1.00
O1534  O     0.83334   0.89441   0.87157   0.00000  Uiso   1.00
O1535  O     0.75725   0.83333   0.86261   0.00000  Uiso   1.00
O1536  O     0.90942   0.83334   0.80405   0.00000  Uiso   1.00
O1537  O     0.75725   0.83334   0.78617   0.00000  Uiso   1.00
O1538  O     0.90942   0.83333   0.88050   0.00000  Uiso   1.00
Zn1539 Zn    0.83333   0.83333   0.88437   0.00000  Uiso   1.00
Zn1540 Zn    0.83333   0.83334   0.78229   0.00000  Uiso   1.00
C1541  C     0.98787   0.83486   0.76641   0.00000  Uiso   1.00
O1542  O     0.99188   0.86667   0.74490   0.00000  Uiso   1.00
O1543  O     0.96136   0.79906   0.74543   0.00000  Uiso   1.00
H1544  H     0.94551   0.80351   0.71258   0.00000  Uiso   1.00
C1545  C     0.67880   0.83181   0.90025   0.00000  Uiso   1.00
O1546  O     0.67479   0.80000   0.92176   0.00000  Uiso   1.00
O1547  O     0.70531   0.86761   0.92124   0.00000  Uiso   1.00
H1548  H     0.72116   0.86316   0.95408   0.00000  Uiso   1.00
C1549  C     0.91423   0.70824   0.79393   0.00000  Uiso   1.00
O1550  O     0.93506   0.74070   0.81144   0.00000  Uiso   1.00
O1551  O     0.93214   0.68947   0.75710   0.00000  Uiso   1.00
H1552  H     0.96171   0.70617   0.74753   0.00000  Uiso   1.00
C1553  C     0.75243   0.95842   0.87274   0.00000  Uiso   1.00
O1554  O     0.73161   0.92596   0.85522   0.00000  Uiso   1.00
O1555  O     0.73452   0.97720   0.90957   0.00000  Uiso   1.00
H1556  H     0.70495   0.96049   0.91913   0.00000  Uiso   1.00
S1557  S     0.92008   0.89016   0.96999   0.00000  Uiso   1.00
O1558  O     0.92940   0.92749   0.66896   0.00000  Uiso   1.00
O1559  O     0.96544   0.86300   0.97991   0.00000  Uiso   1.00
O1560  O     0.91763   0.90848   0.91752   0.00000  Uiso   1.00
H1561  H     0.95190   0.92197   0.91730   0.00000  Uiso   1.00
S1562  S     0.74659   0.77651   0.69668   0.00000  Uiso   1.00
O1563  O     0.70123   0.80367   0.68675   0.00000  Uiso   1.00
O1564  O     0.73727   0.73917   0.99771   0.00000  Uiso   1.00
O1565  O     0.74904   0.75819   0.74914   0.00000  Uiso   1.00
H1566  H     0.71477   0.74470   0.74937   0.00000  Uiso   1.00
loop_
_geom_bond_atom_site_label_1
_geom_bond_atom_site_label_2
_geom_bond_distance
_geom_bond_site_symmetry_2
_ccdc_geom_bond_type
C1     O25     1.290   .     A
C1     C12     1.412   .     S
C1     O23     1.284   .     A
C2     O26     1.290   .     A
C2     C11     1.412   .     S
C2     O24     1.284   .     A
C3     O27     1.278   .     A
C3     O29     1.302   .     A
C3     C5      1.426   .     S
C4     C6      1.426   .     S
C4     O28     1.278   .     A
C4     O30     1.302   .     A
C5     C122    1.375   1_455 S
C5     C149    1.487   1_455 S
C6     C63     1.375   .     S
C6     C95     1.487   .     S
C7     C12     1.406   .     A
C7     C41     1.484   .     S
C7     C357    1.377   1_545 S
C8     C11     1.406   .     A
C8     C45     1.484   .     S
C8     C184    1.377   .     S
C9     C11     1.395   .     A
C9     H17     1.086   .     S
C9     C181    1.377   .     S
C10    H18     1.086   .     S
C10    C12     1.395   .     A
C10    C356    1.377   1_545 S
C13    N22     1.345   .     A
C13    H19     1.081   .     S
C13    C1059   1.416   1_554 S
C14    N21     1.345   .     A
C14    H20     1.081   .     S
C14    C538    1.416   .     S
C15    N21     1.400   .     A
C15    S49     1.783   .     S
C15    C535    1.416   .     S
C16    S54     1.783   .     S
C16    N22     1.400   .     A
C16    C1058   1.416   1_554 S
N21    Zn31    2.027   .     S
N22    Zn32    2.027   .     S
O23    Zn31    1.980   .     S
O24    Zn32    1.980   .     S
O25    Zn32    1.994   .     S
O26    Zn31    1.994   .     S
O27    Zn31    2.007   .     S
O28    Zn32    2.007   .     S
O29    Zn32    2.034   .     S
O30    Zn31    2.034   .     S
C33    O34     1.222   .     D
C33    O35     1.399   .     S
C33    C63     1.487   .     S
O35    H36     1.013   .     S
C37    O38     1.222   .     D
C37    O39     1.399   .     S
C37    C122    1.487   1_455 S
O39    H40     1.013   .     S
C41    O42     1.221   .     D
C41    O43     1.399   .     S
O43    H44     1.014   .     S
C45    O46     1.221   .     D
C45    O47     1.399   .     S
O47    H48     1.014   .     S
S49    O52     1.672   .     S
S49    O51     1.498   .     D
S49    O572    1.504   .     S
O50    S1093   1.504   1_554 S
O52    H53     0.990   .     S
S54    O55     1.498   .     D
S54    O57     1.672   .     S
S54    O1100   1.504   1_554 S
O56    S576    1.504   .     S
O57    H58     0.990   .     S
C59    O83     1.290   .     A
C59    C70     1.412   .     S
C59    O81     1.284   .     A
C60    O84     1.290   .     A
C60    C69     1.412   .     S
C60    O82     1.284   .     A
C61    O85     1.278   .     A
C61    O87     1.302   .     A
C61    C63     1.426   .     S
C62    C64     1.426   .     S
C62    O86     1.278   .     A
C62    O88     1.302   .     A
C64    C121    1.375   .     S
C64    C153    1.487   .     S
C65    C70     1.406   .     A
C65    C99     1.484   .     S
C65    C415    1.377   1_545 S
C66    C69     1.406   .     A
C66    C103    1.484   .     S
C66    C242    1.377   .     S
C67    C69     1.395   .     A
C67    H75     1.086   .     S
C67    C239    1.377   .     S
C68    H76     1.086   .     S
C68    C70     1.395   .     A
C68    C414    1.377   1_545 S
C71    N80     1.345   .     A
C71    H77     1.081   .     S
C71    C1117   1.416   1_554 S
C72    N79     1.345   .     A
C72    H78     1.081   .     S
C72    C596    1.416   .     S
C73    N79     1.400   .     A
C73    S107    1.783   .     S
C73    C593    1.416   .     S
C74    S112    1.783   .     S
C74    N80     1.400   .     A
C74    C1116   1.416   1_554 S
N79    Zn89    2.027   .     S
N80    Zn90    2.027   .     S
O81    Zn89    1.980   .     S
O82    Zn90    1.980   .     S
O83    Zn90    1.994   .     S
O84    Zn89    1.994   .     S
O85    Zn89    2.007   .     S
O86    Zn90    2.007   .     S
O87    Zn90    2.034   .     S
O88    Zn89    2.034   .     S
C91    O92     1.222   .     D
C91    O93     1.399   .     S
C91    C121    1.487   .     S
O93    H94     1.013   .     S
C95    O96     1.222   .     D
C95    O97     1.399   .     S
O97    H98     1.013   .     S
C99    O100    1.221   .     D
C99    O101    1.399   .     S
O101   H102    1.014   .     S
C103   O104    1.221   .     D
C103   O105    1.399   .     S
O105   H106    1.014   .     S
S107   O110    1.672   .     S
S107   O109    1.498   .     D
S107   O630    1.504   .     S
O108   S1151   1.504   1_554 S
O110   H111    0.990   .     S
S112   O113    1.498   .     D
S112   O115    1.672   .     S
S112   O1158   1.504   1_554 S
O114   S634    1.504   .     S
O115   H116    0.990   .     S
C117   O141    1.290   .     A
C117   C128    1.412   .     S
C117   O139    1.284   .     A
C118   O142    1.290   .     A
C118   C127    1.412   .     S
C118   O140    1.284   .     A
C119   O143    1.278   .     A
C119   O145    1.302   .     A
C119   C121    1.426   .     S
C120   C122    1.426   .     S
C120   O144    1.278   .     A
C120   O146    1.302   .     A
C122   C5      1.375   1_655 S
C122   C37     1.487   1_655 S
C123   C128    1.406   .     A
C123   C157    1.484   .     S
C123   C473    1.377   1_545 S
C124   C127    1.406   .     A
C124   C161    1.484   .     S
C124   C300    1.377   .     S
C125   C127    1.395   .     A
C125   H133    1.086   .     S
C125   C297    1.377   .     S
C126   H134    1.086   .     S
C126   C128    1.395   .     A
C126   C472    1.377   1_545 S
C129   N138    1.345   .     A
C129   H135    1.081   .     S
C129   C1175   1.416   1_554 S
C130   N137    1.345   .     A
C130   H136    1.081   .     S
C130   C654    1.416   .     S
C131   N137    1.400   .     A
C131   S165    1.783   .     S
C131   C651    1.416   .     S
C132   S170    1.783   .     S
C132   N138    1.400   .     A
C132   C1174   1.416   1_554 S
N137   Zn147   2.027   .     S
N138   Zn148   2.027   .     S
O139   Zn147   1.980   .     S
O140   Zn148   1.980   .     S
O141   Zn148   1.994   .     S
O142   Zn147   1.994   .     S
O143   Zn147   2.007   .     S
O144   Zn148   2.007   .     S
O145   Zn148   2.034   .     S
O146   Zn147   2.034   .     S
C149   O150    1.222   .     D
C149   O151    1.399   .     S
C149   C5      1.487   1_655 S
O151   H152    1.013   .     S
C153   O154    1.222   .     D
C153   O155    1.399   .     S
O155   H156    1.013   .     S
C157   O158    1.221   .     D
C157   O159    1.399   .     S
O159   H160    1.014   .     S
C161   O162    1.221   .     D
C161   O163    1.399   .     S
O163   H164    1.014   .     S
S165   O168    1.672   .     S
S165   O167    1.498   .     D
S165   O688    1.504   .     S
O166   S1209   1.504   1_554 S
O168   H169    0.990   .     S
S170   O171    1.498   .     D
S170   O173    1.672   .     S
S170   O1216   1.504   1_554 S
O172   S692    1.504   .     S
O173   H174    0.990   .     S
C175   O199    1.290   .     A
C175   C186    1.412   .     S
C175   O197    1.284   .     A
C176   O200    1.290   .     A
C176   C185    1.412   .     S
C176   O198    1.284   .     A
C177   O201    1.278   .     A
C177   O203    1.302   .     A
C177   C179    1.426   .     S
C178   C180    1.426   .     S
C178   O202    1.278   .     A
C178   O204    1.302   .     A
C179   C296    1.375   1_455 S
C179   C323    1.487   1_455 S
C180   C237    1.375   .     S
C180   C269    1.487   .     S
C181   C186    1.406   .     A
C181   C215    1.484   .     S
C182   C185    1.406   .     A
C182   C219    1.484   .     S
C182   C358    1.377   .     S
C183   C185    1.395   .     A
C183   H191    1.086   .     S
C183   C355    1.377   .     S
C184   H192    1.086   .     S
C184   C186    1.395   .     A
C187   N196    1.345   .     A
C187   H193    1.081   .     S
C187   C1233   1.416   1_554 S
C188   N195    1.345   .     A
C188   H194    1.081   .     S
C188   C712    1.416   .     S
C189   N195    1.400   .     A
C189   S223    1.783   .     S
C189   C709    1.416   .     S
C190   S228    1.783   .     S
C190   N196    1.400   .     A
C190   C1232   1.416   1_554 S
N195   Zn205   2.027   .     S
N196   Zn206   2.027   .     S
O197   Zn205   1.980   .     S
O198   Zn206   1.980   .     S
O199   Zn206   1.994   .     S
O200   Zn205   1.994   .     S
O201   Zn205   2.007   .     S
O202   Zn206   2.007   .     S
O203   Zn206   2.034   .     S
O204   Zn205   2.034   .     S
C207   O208    1.222   .     D
C207   O209    1.399   .     S
C207   C237    1.487   .     S
O209   H210    1.013   .     S
C211   O212    1.222   .     D
C211   O213    1.399   .     S
C211   C296    1.487   1_455 S
O213   H214    1.013   .     S
C215   O216    1.221   .     D
C215   O217    1.399   .     S
O217   H218    1.014   .     S
C219   O220    1.221   .     D
C219   O221    1.399   .     S
O221   H222    1.014   .     S
S223   O226    1.672   .     S
S223   O225    1.498   .     D
S223   O746    1.504   .     S
O224   S1267   1.504   1_554 S
O226   H227    0.990   .     S
S228   O229    1.498   .     D
S228   O231    1.672   .     S
S228   O1274   1.504   1_554 S
O230   S750    1.504   .     S
O231   H232    0.990   .     S
C233   O257    1.290   .     A
C233   C244    1.412   .     S
C233   O255    1.284   .     A
C234   O258    1.290   .     A
C234   C243    1.412   .     S
C234   O256    1.284   .     A
C235   O259    1.278   .     A
C235   O261    1.302   .     A
C235   C237    1.426   .     S
C236   C238    1.426   .     S
C236   O260    1.278   .     A
C236   O262    1.302   .     A
C238   C295    1.375   .     S
C238   C327    1.487   .     S
C239   C244    1.406   .     A
C239   C273    1.484   .     S
C240   C243    1.406   .     A
C240   C277    1.484   .     S
C240   C416    1.377   .     S
C241   C243    1.395   .     A
C241   H249    1.086   .     S
C241   C413    1.377   .     S
C242   H250    1.086   .     S
C242   C244    1.395   .     A
C245   N254    1.345   .     A
C245   H251    1.081   .     S
C245   C1291   1.416   1_554 S
C246   N253    1.345   .     A
C246   H252    1.081   .     S
C246   C770    1.416   .     S
C247   N253    1.400   .     A
C247   S281    1.783   .     S
C247   C767    1.416   .     S
C248   S286    1.783   .     S
C248   N254    1.400   .     A
C248   C1290   1.416   1_554 S
N253   Zn263   2.027   .     S
N254   Zn264   2.027   .     S
O255   Zn263   1.980   .     S
O256   Zn264   1.980   .     S
O257   Zn264   1.994   .     S
O258   Zn263   1.994   .     S
O259   Zn263   2.007   .     S
O260   Zn264   2.007   .     S
O261   Zn264   2.034   .     S
O262   Zn263   2.034   .     S
C265   O266    1.222   .     D
C265   O267    1.399   .     S
C265   C295    1.487   .     S
O267   H268    1.013   .     S
C269   O270    1.222   .     D
C269   O271    1.399   .     S
O271   H272    1.013   .     S
C273   O274    1.221   .     D
C273   O275    1.399   .     S
O275   H276    1.014   .     S
C277   O278    1.221   .     D
C277   O279    1.399   .     S
O279   H280    1.014   .     S
S281   O284    1.672   .     S
S281   O283    1.498   .     D
S281   O804    1.504   .     S
O282   S1325   1.504   1_554 S
O284   H285    0.990   .     S
S286   O287    1.498   .     D
S286   O289    1.672   .     S
S286   O1332   1.504   1_554 S
O288   S808    1.504   .     S
O289   H290    0.990   .     S
C291   O315    1.290   .     A
C291   C302    1.412   .     S
C291   O313    1.284   .     A
C292   O316    1.290   .     A
C292   C301    1.412   .     S
C292   O314    1.284   .     A
C293   O317    1.278   .     A
C293   O319    1.302   .     A
C293   C295    1.426   .     S
C294   C296    1.426   .     S
C294   O318    1.278   .     A
C294   O320    1.302   .     A
C296   C179    1.375   1_655 S
C296   C211    1.487   1_655 S
C297   C302    1.406   .     A
C297   C331    1.484   .     S
C298   C301    1.406   .     A
C298   C335    1.484   .     S
C298   C474    1.377   .     S
C299   C301    1.395   .     A
C299   H307    1.086   .     S
C299   C471    1.377   .     S
C300   H308    1.086   .     S
C300   C302    1.395   .     A
C303   N312    1.345   .     A
C303   H309    1.081   .     S
C303   C1349   1.416   1_554 S
C304   N311    1.345   .     A
C304   H310    1.081   .     S
C304   C828    1.416   .     S
C305   N311    1.400   .     A
C305   S339    1.783   .     S
C305   C825    1.416   .     S
C306   S344    1.783   .     S
C306   N312    1.400   .     A
C306   C1348   1.416   1_554 S
N311   Zn321   2.027   .     S
N312   Zn322   2.027   .     S
O313   Zn321   1.980   .     S
O314   Zn322   1.980   .     S
O315   Zn322   1.994   .     S
O316   Zn321   1.994   .     S
O317   Zn321   2.007   .     S
O318   Zn322   2.007   .     S
O319   Zn322   2.034   .     S
O320   Zn321   2.034   .     S
C323   O324    1.222   .     D
C323   O325    1.399   .     S
C323   C179    1.487   1_655 S
O325   H326    1.013   .     S
C327   O328    1.222   .     D
C327   O329    1.399   .     S
O329   H330    1.013   .     S
C331   O332    1.221   .     D
C331   O333    1.399   .     S
O333   H334    1.014   .     S
C335   O336    1.221   .     D
C335   O337    1.399   .     S
O337   H338    1.014   .     S
S339   O342    1.672   .     S
S339   O341    1.498   .     D
S339   O862    1.504   .     S
O340   S1383   1.504   1_554 S
O342   H343    0.990   .     S
S344   O345    1.498   .     D
S344   O347    1.672   .     S
S344   O1390   1.504   1_554 S
O346   S866    1.504   .     S
O347   H348    0.990   .     S
C349   O373    1.290   .     A
C349   C360    1.412   .     S
C349   O371    1.284   .     A
C350   O374    1.290   .     A
C350   C359    1.412   .     S
C350   O372    1.284   .     A
C351   O375    1.278   .     A
C351   O377    1.302   .     A
C351   C353    1.426   .     S
C352   C354    1.426   .     S
C352   O376    1.278   .     A
C352   O378    1.302   .     A
C353   C470    1.375   1_455 S
C353   C497    1.487   1_455 S
C354   C411    1.375   .     S
C354   C443    1.487   .     S
C355   C360    1.406   .     A
C355   C389    1.484   .     S
C356   C359    1.406   .     A
C356   C393    1.484   .     S
C356   C10     1.377   1_565 S
C357   C359    1.395   .     A
C357   H365    1.086   .     S
C357   C7      1.377   1_565 S
C358   H366    1.086   .     S
C358   C360    1.395   .     A
C361   N370    1.345   .     A
C361   H367    1.081   .     S
C361   C1407   1.416   1_554 S
C362   N369    1.345   .     A
C362   H368    1.081   .     S
C362   C886    1.416   .     S
C363   N369    1.400   .     A
C363   S397    1.783   .     S
C363   C883    1.416   .     S
C364   S402    1.783   .     S
C364   N370    1.400   .     A
C364   C1406   1.416   1_554 S
N369   Zn379   2.027   .     S
N370   Zn380   2.027   .     S
O371   Zn379   1.980   .     S
O372   Zn380   1.980   .     S
O373   Zn380   1.994   .     S
O374   Zn379   1.994   .     S
O375   Zn379   2.007   .     S
O376   Zn380   2.007   .     S
O377   Zn380   2.034   .     S
O378   Zn379   2.034   .     S
C381   O382    1.222   .     D
C381   O383    1.399   .     S
C381   C411    1.487   .     S
O383   H384    1.013   .     S
C385   O386    1.222   .     D
C385   O387    1.399   .     S
C385   C470    1.487   1_455 S
O387   H388    1.013   .     S
C389   O390    1.221   .     D
C389   O391    1.399   .     S
O391   H392    1.014   .     S
C393   O394    1.221   .     D
C393   O395    1.399   .     S
O395   H396    1.014   .     S
S397   O400    1.672   .     S
S397   O399    1.498   .     D
S397   O920    1.504   .     S
O398   S1441   1.504   1_554 S
O400   H401    0.990   .     S
S402   O403    1.498   .     D
S402   O405    1.672   .     S
S402   O1448   1.504   1_554 S
O404   S924    1.504   .     S
O405   H406    0.990   .     S
C407   O431    1.290   .     A
C407   C418    1.412   .     S
C407   O429    1.284   .     A
C408   O432    1.290   .     A
C408   C417    1.412   .     S
C408   O430    1.284   .     A
C409   O433    1.278   .     A
C409   O435    1.302   .     A
C409   C411    1.426   .     S
C410   C412    1.426   .     S
C410   O434    1.278   .     A
C410   O436    1.302   .     A
C412   C469    1.375   .     S
C412   C501    1.487   .     S
C413   C418    1.406   .     A
C413   C447    1.484   .     S
C414   C417    1.406   .     A
C414   C451    1.484   .     S
C414   C68     1.377   1_565 S
C415   C417    1.395   .     A
C415   H423    1.086   .     S
C415   C65     1.377   1_565 S
C416   H424    1.086   .     S
C416   C418    1.395   .     A
C419   N428    1.345   .     A
C419   H425    1.081   .     S
C419   C1465   1.416   1_554 S
C420   N427    1.345   .     A
C420   H426    1.081   .     S
C420   C944    1.416   .     S
C421   N427    1.400   .     A
C421   S455    1.783   .     S
C421   C941    1.416   .     S
C422   S460    1.783   .     S
C422   N428    1.400   .     A
C422   C1464   1.416   1_554 S
N427   Zn437   2.027   .     S
N428   Zn438   2.027   .     S
O429   Zn437   1.980   .     S
O430   Zn438   1.980   .     S
O431   Zn438   1.994   .     S
O432   Zn437   1.994   .     S
O433   Zn437   2.007   .     S
O434   Zn438   2.007   .     S
O435   Zn438   2.034   .     S
O436   Zn437   2.034   .     S
C439   O440    1.222   .     D
C439   O441    1.399   .     S
C439   C469    1.487   .     S
O441   H442    1.013   .     S
C443   O444    1.222   .     D
C443   O445    1.399   .     S
O445   H446    1.013   .     S
C447   O448    1.221   .     D
C447   O449    1.399   .     S
O449   H450    1.014   .     S
C451   O452    1.221   .     D
C451   O453    1.399   .     S
O453   H454    1.014   .     S
S455   O458    1.672   .     S
S455   O457    1.498   .     D
S455   O978    1.504   .     S
O456   S1499   1.504   1_554 S
O458   H459    0.990   .     S
S460   O461    1.498   .     D
S460   O463    1.672   .     S
S460   O1506   1.504   1_554 S
O462   S982    1.504   .     S
O463   H464    0.990   .     S
C465   O489    1.290   .     A
C465   C476    1.412   .     S
C465   O487    1.284   .     A
C466   O490    1.290   .     A
C466   C475    1.412   .     S
C466   O488    1.284   .     A
C467   O491    1.278   .     A
C467   O493    1.302   .     A
C467   C469    1.426   .     S
C468   C470    1.426   .     S
C468   O492    1.278   .     A
C468   O494    1.302   .     A
C470   C353    1.375   1_655 S
C470   C385    1.487   1_655 S
C471   C476    1.406   .     A
C471   C505    1.484   .     S
C472   C475    1.406   .     A
C472   C509    1.484   .     S
C472   C126    1.377   1_565 S
C473   C475    1.395   .     A
C473   H481    1.086   .     S
C473   C123    1.377   1_565 S
C474   H482    1.086   .     S
C474   C476    1.395   .     A
C477   N486    1.345   .     A
C477   H483    1.081   .     S
C477   C1523   1.416   1_554 S
C478   N485    1.345   .     A
C478   H484    1.081   .     S
C478   C1002   1.416   .     S
C479   N485    1.400   .     A
C479   S513    1.783   .     S
C479   C999    1.416   .     S
C480   S518    1.783   .     S
C480   N486    1.400   .     A
C480   C1522   1.416   1_554 S
N485   Zn495   2.027   .     S
N486   Zn496   2.027   .     S
O487   Zn495   1.980   .     S
O488   Zn496   1.980   .     S
O489   Zn496   1.994   .     S
O490   Zn495   1.994   .     S
O491   Zn495   2.007   .     S
O492   Zn496   2.007   .     S
O493   Zn496   2.034   .     S
O494   Zn495   2.034   .     S
C497   O498    1.222   .     D
C497   O499    1.399   .     S
C497   C353    1.487   1_655 S
O499   H500    1.013   .     S
C501   O502    1.222   .     D
C501   O503    1.399   .     S
O503   H504    1.013   .     S
C505   O506    1.221   .     D
C505   O507    1.399   .     S
O507   H508    1.014   .     S
C509   O510    1.221   .     D
C509   O511    1.399   .     S
O511   H512    1.014   .     S
S513   O516    1.672   .     S
S513   O515    1.498   .     D
S513   O1036   1.504   .     S
O514   S1557   1.504   1_554 S
O516   H517    0.990   .     S
S518   O519    1.498   .     D
S518   O521    1.672   .     S
S518   O1564   1.504   1_554 S
O520   S1040   1.504   .     S
O521   H522    0.990   .     S
C523   O547    1.290   .     A
C523   C534    1.412   .     S
C523   O545    1.284   .     A
C524   O548    1.290   .     A
C524   C533    1.412   .     S
C524   O546    1.284   .     A
C525   O549    1.278   .     A
C525   O551    1.302   .     A
C525   C527    1.426   .     S
C526   C528    1.426   .     S
C526   O550    1.278   .     A
C526   O552    1.302   .     A
C527   C644    1.375   1_455 S
C527   C671    1.487   1_455 S
C528   C585    1.375   .     S
C528   C617    1.487   .     S
C529   C534    1.406   .     A
C529   C563    1.484   .     S
C529   C879    1.377   1_545 S
C530   C533    1.406   .     A
C530   C567    1.484   .     S
C530   C706    1.377   .     S
C531   C533    1.395   .     A
C531   H539    1.086   .     S
C531   C703    1.377   .     S
C532   H540    1.086   .     S
C532   C534    1.395   .     A
C532   C878    1.377   1_545 S
C535   N544    1.345   .     A
C535   H541    1.081   .     S
C536   N543    1.345   .     A
C536   H542    1.081   .     S
C536   C1060   1.416   .     S
C537   N543    1.400   .     A
C537   S571    1.783   .     S
C537   C1057   1.416   .     S
C538   S576    1.783   .     S
C538   N544    1.400   .     A
N543   Zn553   2.027   .     S
N544   Zn554   2.027   .     S
O545   Zn553   1.980   .     S
O546   Zn554   1.980   .     S
O547   Zn554   1.994   .     S
O548   Zn553   1.994   .     S
O549   Zn553   2.007   .     S
O550   Zn554   2.007   .     S
O551   Zn554   2.034   .     S
O552   Zn553   2.034   .     S
C555   O556    1.222   .     D
C555   O557    1.399   .     S
C555   C585    1.487   .     S
O557   H558    1.013   .     S
C559   O560    1.222   .     D
C559   O561    1.399   .     S
C559   C644    1.487   1_455 S
O561   H562    1.013   .     S
C563   O564    1.221   .     D
C563   O565    1.399   .     S
O565   H566    1.014   .     S
C567   O568    1.221   .     D
C567   O569    1.399   .     S
O569   H570    1.014   .     S
S571   O574    1.672   .     S
S571   O573    1.498   .     D
S571   O1094   1.504   .     S
O574   H575    0.990   .     S
S576   O577    1.498   .     D
S576   O579    1.672   .     S
O578   S1098   1.504   .     S
O579   H580    0.990   .     S
C581   O605    1.290   .     A
C581   C592    1.412   .     S
C581   O603    1.284   .     A
C582   O606    1.290   .     A
C582   C591    1.412   .     S
C582   O604    1.284   .     A
C583   O607    1.278   .     A
C583   O609    1.302   .     A
C583   C585    1.426   .     S
C584   C586    1.426   .     S
C584   O608    1.278   .     A
C584   O610    1.302   .     A
C586   C643    1.375   .     S
C586   C675    1.487   .     S
C587   C592    1.406   .     A
C587   C621    1.484   .     S
C587   C937    1.377   1_545 S
C588   C591    1.406   .     A
C588   C625    1.484   .     S
C588   C764    1.377   .     S
C589   C591    1.395   .     A
C589   H597    1.086   .     S
C589   C761    1.377   .     S
C590   H598    1.086   .     S
C590   C592    1.395   .     A
C590   C936    1.377   1_545 S
C593   N602    1.345   .     A
C593   H599    1.081   .     S
C594   N601    1.345   .     A
C594   H600    1.081   .     S
C594   C1118   1.416   .     S
C595   N601    1.400   .     A
C595   S629    1.783   .     S
C595   C1115   1.416   .     S
C596   S634    1.783   .     S
C596   N602    1.400   .     A
N601   Zn611   2.027   .     S
N602   Zn612   2.027   .     S
O603   Zn611   1.980   .     S
O604   Zn612   1.980   .     S
O605   Zn612   1.994   .     S
O606   Zn611   1.994   .     S
O607   Zn611   2.007   .     S
O608   Zn612   2.007   .     S
O609   Zn612   2.034   .     S
O610   Zn611   2.034   .     S
C613   O614    1.222   .     D
C613   O615    1.399   .     S
C613   C643    1.487   .     S
O615   H616    1.013   .     S
C617   O618    1.222   .     D
C617   O619    1.399   .     S
O619   H620    1.013   .     S
C621   O622    1.221   .     D
C621   O623    1.399   .     S
O623   H624    1.014   .     S
C625   O626    1.221   .     D
C625   O627    1.399   .     S
O627   H628    1.014   .     S
S629   O632    1.672   .     S
S629   O631    1.498   .     D
S629   O1152   1.504   .     S
O632   H633    0.990   .     S
S634   O635    1.498   .     D
S634   O637    1.672   .     S
O636   S1156   1.504   .     S
O637   H638    0.990   .     S
C639   O663    1.290   .     A
C639   C650    1.412   .     S
C639   O661    1.284   .     A
C640   O664    1.290   .     A
C640   C649    1.412   .     S
C640   O662    1.284   .     A
C641   O665    1.278   .     A
C641   O667    1.302   .     A
C641   C643    1.426   .     S
C642   C644    1.426   .     S
C642   O666    1.278   .     A
C642   O668    1.302   .     A
C644   C527    1.375   1_655 S
C644   C559    1.487   1_655 S
C645   C650    1.406   .     A
C645   C679    1.484   .     S
C645   C995    1.377   1_545 S
C646   C649    1.406   .     A
C646   C683    1.484   .     S
C646   C822    1.377   .     S
C647   C649    1.395   .     A
C647   H655    1.086   .     S
C647   C819    1.377   .     S
C648   H656    1.086   .     S
C648   C650    1.395   .     A
C648   C994    1.377   1_545 S
C651   N660    1.345   .     A
C651   H657    1.081   .     S
C652   N659    1.345   .     A
C652   H658    1.081   .     S
C652   C1176   1.416   .     S
C653   N659    1.400   .     A
C653   S687    1.783   .     S
C653   C1173   1.416   .     S
C654   S692    1.783   .     S
C654   N660    1.400   .     A
N659   Zn669   2.027   .     S
N660   Zn670   2.027   .     S
O661   Zn669   1.980   .     S
O662   Zn670   1.980   .     S
O663   Zn670   1.994   .     S
O664   Zn669   1.994   .     S
O665   Zn669   2.007   .     S
O666   Zn670   2.007   .     S
O667   Zn670   2.034   .     S
O668   Zn669   2.034   .     S
C671   O672    1.222   .     D
C671   O673    1.399   .     S
C671   C527    1.487   1_655 S
O673   H674    1.013   .     S
C675   O676    1.222   .     D
C675   O677    1.399   .     S
O677   H678    1.013   .     S
C679   O680    1.221   .     D
C679   O681    1.399   .     S
O681   H682    1.014   .     S
C683   O684    1.221   .     D
C683   O685    1.399   .     S
O685   H686    1.014   .     S
S687   O690    1.672   .     S
S687   O689    1.498   .     D
S687   O1210   1.504   .     S
O690   H691    0.990   .     S
S692   O693    1.498   .     D
S692   O695    1.672   .     S
O694   S1214   1.504   .     S
O695   H696    0.990   .     S
C697   O721    1.290   .     A
C697   C708    1.412   .     S
C697   O719    1.284   .     A
C698   O722    1.290   .     A
C698   C707    1.412   .     S
C698   O720    1.284   .     A
C699   O723    1.278   .     A
C699   O725    1.302   .     A
C699   C701    1.426   .     S
C700   C702    1.426   .     S
C700   O724    1.278   .     A
C700   O726    1.302   .     A
C701   C818    1.375   1_455 S
C701   C845    1.487   1_455 S
C702   C759    1.375   .     S
C702   C791    1.487   .     S
C703   C708    1.406   .     A
C703   C737    1.484   .     S
C704   C707    1.406   .     A
C704   C741    1.484   .     S
C704   C880    1.377   .     S
C705   C707    1.395   .     A
C705   H713    1.086   .     S
C705   C877    1.377   .     S
C706   H714    1.086   .     S
C706   C708    1.395   .     A
C709   N718    1.345   .     A
C709   H715    1.081   .     S
C710   N717    1.345   .     A
C710   H716    1.081   .     S
C710   C1234   1.416   .     S
C711   N717    1.400   .     A
C711   S745    1.783   .     S
C711   C1231   1.416   .     S
C712   S750    1.783   .     S
C712   N718    1.400   .     A
N717   Zn727   2.027   .     S
N718   Zn728   2.027   .     S
O719   Zn727   1.980   .     S
O720   Zn728   1.980   .     S
O721   Zn728   1.994   .     S
O722   Zn727   1.994   .     S
O723   Zn727   2.007   .     S
O724   Zn728   2.007   .     S
O725   Zn728   2.034   .     S
O726   Zn727   2.034   .     S
C729   O730    1.222   .     D
C729   O731    1.399   .     S
C729   C759    1.487   .     S
O731   H732    1.013   .     S
C733   O734    1.222   .     D
C733   O735    1.399   .     S
C733   C818    1.487   1_455 S
O735   H736    1.013   .     S
C737   O738    1.221   .     D
C737   O739    1.399   .     S
O739   H740    1.014   .     S
C741   O742    1.221   .     D
C741   O743    1.399   .     S
O743   H744    1.014   .     S
S745   O748    1.672   .     S
S745   O747    1.498   .     D
S745   O1268   1.504   .     S
O748   H749    0.990   .     S
S750   O751    1.498   .     D
S750   O753    1.672   .     S
O752   S1272   1.504   .     S
O753   H754    0.990   .     S
C755   O779    1.290   .     A
C755   C766    1.412   .     S
C755   O777    1.284   .     A
C756   O780    1.290   .     A
C756   C765    1.412   .     S
C756   O778    1.284   .     A
C757   O781    1.278   .     A
C757   O783    1.302   .     A
C757   C759    1.426   .     S
C758   C760    1.426   .     S
C758   O782    1.278   .     A
C758   O784    1.302   .     A
C760   C817    1.375   .     S
C760   C849    1.487   .     S
C761   C766    1.406   .     A
C761   C795    1.484   .     S
C762   C765    1.406   .     A
C762   C799    1.484   .     S
C762   C938    1.377   .     S
C763   C765    1.395   .     A
C763   H771    1.086   .     S
C763   C935    1.377   .     S
C764   H772    1.086   .     S
C764   C766    1.395   .     A
C767   N776    1.345   .     A
C767   H773    1.081   .     S
C768   N775    1.345   .     A
C768   H774    1.081   .     S
C768   C1292   1.416   .     S
C769   N775    1.400   .     A
C769   S803    1.783   .     S
C769   C1289   1.416   .     S
C770   S808    1.783   .     S
C770   N776    1.400   .     A
N775   Zn785   2.027   .     S
N776   Zn786   2.027   .     S
O777   Zn785   1.980   .     S
O778   Zn786   1.980   .     S
O779   Zn786   1.994   .     S
O780   Zn785   1.994   .     S
O781   Zn785   2.007   .     S
O782   Zn786   2.007   .     S
O783   Zn786   2.034   .     S
O784   Zn785   2.034   .     S
C787   O788    1.222   .     D
C787   O789    1.399   .     S
C787   C817    1.487   .     S
O789   H790    1.013   .     S
C791   O792    1.222   .     D
C791   O793    1.399   .     S
O793   H794    1.013   .     S
C795   O796    1.221   .     D
C795   O797    1.399   .     S
O797   H798    1.014   .     S
C799   O800    1.221   .     D
C799   O801    1.399   .     S
O801   H802    1.014   .     S
S803   O806    1.672   .     S
S803   O805    1.498   .     D
S803   O1326   1.504   .     S
O806   H807    0.990   .     S
S808   O809    1.498   .     D
S808   O811    1.672   .     S
O810   S1330   1.504   .     S
O811   H812    0.990   .     S
C813   O837    1.290   .     A
C813   C824    1.412   .     S
C813   O835    1.284   .     A
C814   O838    1.290   .     A
C814   C823    1.412   .     S
C814   O836    1.284   .     A
C815   O839    1.278   .     A
C815   O841    1.302   .     A
C815   C817    1.426   .     S
C816   C818    1.426   .     S
C816   O840    1.278   .     A
C816   O842    1.302   .     A
C818   C701    1.375   1_655 S
C818   C733    1.487   1_655 S
C819   C824    1.406   .     A
C819   C853    1.484   .     S
C820   C823    1.406   .     A
C820   C857    1.484   .     S
C820   C996    1.377   .     S
C821   C823    1.395   .     A
C821   H829    1.086   .     S
C821   C993    1.377   .     S
C822   H830    1.086   .     S
C822   C824    1.395   .     A
C825   N834    1.345   .     A
C825   H831    1.081   .     S
C826   N833    1.345   .     A
C826   H832    1.081   .     S
C826   C1350   1.416   .     S
C827   N833    1.400   .     A
C827   S861    1.783   .     S
C827   C1347   1.416   .     S
C828   S866    1.783   .     S
C828   N834    1.400   .     A
N833   Zn843   2.027   .     S
N834   Zn844   2.027   .     S
O835   Zn843   1.980   .     S
O836   Zn844   1.980   .     S
O837   Zn844   1.994   .     S
O838   Zn843   1.994   .     S
O839   Zn843   2.007   .     S
O840   Zn844   2.007   .     S
O841   Zn844   2.034   .     S
O842   Zn843   2.034   .     S
C845   O846    1.222   .     D
C845   O847    1.399   .     S
C845   C701    1.487   1_655 S
O847   H848    1.013   .     S
C849   O850    1.222   .     D
C849   O851    1.399   .     S
O851   H852    1.013   .     S
C853   O854    1.221   .     D
C853   O855    1.399   .     S
O855   H856    1.014   .     S
C857   O858    1.221   .     D
C857   O859    1.399   .     S
O859   H860    1.014   .     S
S861   O864    1.672   .     S
S861   O863    1.498   .     D
S861   O1384   1.504   .     S
O864   H865    0.990   .     S
S866   O867    1.498   .     D
S866   O869    1.672   .     S
O868   S1388   1.504   .     S
O869   H870    0.990   .     S
C871   O895    1.290   .     A
C871   C882    1.412   .     S
C871   O893    1.284   .     A
C872   O896    1.290   .     A
C872   C881    1.412   .     S
C872   O894    1.284   .     A
C873   O897    1.278   .     A
C873   O899    1.302   .     A
C873   C875    1.426   .     S
C874   C876    1.426   .     S
C874   O898    1.278   .     A
C874   O900    1.302   .     A
C875   C992    1.375   1_455 S
C875   C1019   1.487   1_455 S
C876   C933    1.375   .     S
C876   C965    1.487   .     S
C877   C882    1.406   .     A
C877   C911    1.484   .     S
C878   C881    1.406   .     A
C878   C915    1.484   .     S
C878   C532    1.377   1_565 S
C879   C881    1.395   .     A
C879   H887    1.086   .     S
C879   C529    1.377   1_565 S
C880   H888    1.086   .     S
C880   C882    1.395   .     A
C883   N892    1.345   .     A
C883   H889    1.081   .     S
C884   N891    1.345   .     A
C884   H890    1.081   .     S
C884   C1408   1.416   .     S
C885   N891    1.400   .     A
C885   S919    1.783   .     S
C885   C1405   1.416   .     S
C886   S924    1.783   .     S
C886   N892    1.400   .     A
N891   Zn901   2.027   .     S
N892   Zn902   2.027   .     S
O893   Zn901   1.980   .     S
O894   Zn902   1.980   .     S
O895   Zn902   1.994   .     S
O896   Zn901   1.994   .     S
O897   Zn901   2.007   .     S
O898   Zn902   2.007   .     S
O899   Zn902   2.034   .     S
O900   Zn901   2.034   .     S
C903   O904    1.222   .     D
C903   O905    1.399   .     S
C903   C933    1.487   .     S
O905   H906    1.013   .     S
C907   O908    1.222   .     D
C907   O909    1.399   .     S
C907   C992    1.487   1_455 S
O909   H910    1.013   .     S
C911   O912    1.221   .     D
C911   O913    1.399   .     S
O913   H914    1.014   .     S
C915   O916    1.221   .     D
C915   O917    1.399   .     S
O917   H918    1.014   .     S
S919   O922    1.672   .     S
S919   O921    1.498   .     D
S919   O1442   1.504   .     S
O922   H923    0.990   .     S
S924   O925    1.498   .     D
S924   O927    1.672   .     S
O926   S1446   1.504   .     S
O927   H928    0.990   .     S
C929   O953    1.290   .     A
C929   C940    1.412   .     S
C929   O951    1.284   .     A
C930   O954    1.290   .     A
C930   C939    1.412   .     S
C930   O952    1.284   .     A
C931   O955    1.278   .     A
C931   O957    1.302   .     A
C931   C933    1.426   .     S
C932   C934    1.426   .     S
C932   O956    1.278   .     A
C932   O958    1.302   .     A
C934   C991    1.375   .     S
C934   C1023   1.487   .     S
C935   C940    1.406   .     A
C935   C969    1.484   .     S
C936   C939    1.406   .     A
C936   C973    1.484   .     S
C936   C590    1.377   1_565 S
C937   C939    1.395   .     A
C937   H945    1.086   .     S
C937   C587    1.377   1_565 S
C938   H946    1.086   .     S
C938   C940    1.395   .     A
C941   N950    1.345   .     A
C941   H947    1.081   .     S
C942   N949    1.345   .     A
C942   H948    1.081   .     S
C942   C1466   1.416   .     S
C943   N949    1.400   .     A
C943   S977    1.783   .     S
C943   C1463   1.416   .     S
C944   S982    1.783   .     S
C944   N950    1.400   .     A
N949   Zn959   2.027   .     S
N950   Zn960   2.027   .     S
O951   Zn959   1.980   .     S
O952   Zn960   1.980   .     S
O953   Zn960   1.994   .     S
O954   Zn959   1.994   .     S
O955   Zn959   2.007   .     S
O956   Zn960   2.007   .     S
O957   Zn960   2.034   .     S
O958   Zn959   2.034   .     S
C961   O962    1.222   .     D
C961   O963    1.399   .     S
C961   C991    1.487   .     S
O963   H964    1.013   .     S
C965   O966    1.222   .     D
C965   O967    1.399   .     S
O967   H968    1.013   .     S
C969   O970    1.221   .     D
C969   O971    1.399   .     S
O971   H972    1.014   .     S
C973   O974    1.221   .     D
C973   O975    1.399   .     S
O975   H976    1.014   .     S
S977   O980    1.672   .     S
S977   O979    1.498   .     D
S977   O1500   1.504   .     S
O980   H981    0.990   .     S
S982   O983    1.498   .     D
S982   O985    1.672   .     S
O984   S1504   1.504   .     S
O985   H986    0.990   .     S
C987   O1011   1.290   .     A
C987   C998    1.412   .     S
C987   O1009   1.284   .     A
C988   O1012   1.290   .     A
C988   C997    1.412   .     S
C988   O1010   1.284   .     A
C989   O1013   1.278   .     A
C989   O1015   1.302   .     A
C989   C991    1.426   .     S
C990   C992    1.426   .     S
C990   O1014   1.278   .     A
C990   O1016   1.302   .     A
C992   C875    1.375   1_655 S
C992   C907    1.487   1_655 S
C993   C998    1.406   .     A
C993   C1027   1.484   .     S
C994   C997    1.406   .     A
C994   C1031   1.484   .     S
C994   C648    1.377   1_565 S
C995   C997    1.395   .     A
C995   H1003   1.086   .     S
C995   C645    1.377   1_565 S
C996   H1004   1.086   .     S
C996   C998    1.395   .     A
C999   N1008   1.345   .     A
C999   H1005   1.081   .     S
C1000  N1007   1.345   .     A
C1000  H1006   1.081   .     S
C1000  C1524   1.416   .     S
C1001  N1007   1.400   .     A
C1001  S1035   1.783   .     S
C1001  C1521   1.416   .     S
C1002  S1040   1.783   .     S
C1002  N1008   1.400   .     A
N1007  Zn1017  2.027   .     S
N1008  Zn1018  2.027   .     S
O1009  Zn1017  1.980   .     S
O1010  Zn1018  1.980   .     S
O1011  Zn1018  1.994   .     S
O1012  Zn1017  1.994   .     S
O1013  Zn1017  2.007   .     S
O1014  Zn1018  2.007   .     S
O1015  Zn1018  2.034   .     S
O1016  Zn1017  2.034   .     S
C1019  O1020   1.222   .     D
C1019  O1021   1.399   .     S
C1019  C875    1.487   1_655 S
O1021  H1022   1.013   .     S
C1023  O1024   1.222   .     D
C1023  O1025   1.399   .     S
O1025  H1026   1.013   .     S
C1027  O1028   1.221   .     D
C1027  O1029   1.399   .     S
O1029  H1030   1.014   .     S
C1031  O1032   1.221   .     D
C1031  O1033   1.399   .     S
O1033  H1034   1.014   .     S
S1035  O1038   1.672   .     S
S1035  O1037   1.498   .     D
S1035  O1558   1.504   .     S
O1038  H1039   0.990   .     S
S1040  O1041   1.498   .     D
S1040  O1043   1.672   .     S
O1042  S1562   1.504   .     S
O1043  H1044   0.990   .     S
C1045  O1069   1.290   .     A
C1045  C1056   1.412   .     S
C1045  O1067   1.284   .     A
C1046  O1070   1.290   .     A
C1046  C1055   1.412   .     S
C1046  O1068   1.284   .     A
C1047  O1071   1.278   .     A
C1047  O1073   1.302   .     A
C1047  C1049   1.426   .     S
C1048  C1050   1.426   .     S
C1048  O1072   1.278   .     A
C1048  O1074   1.302   .     A
C1049  C1166   1.375   1_455 S
C1049  C1193   1.487   1_455 S
C1050  C1107   1.375   .     S
C1050  C1139   1.487   .     S
C1051  C1056   1.406   .     A
C1051  C1085   1.484   .     S
C1051  C1401   1.377   1_545 S
C1052  C1055   1.406   .     A
C1052  C1089   1.484   .     S
C1052  C1228   1.377   .     S
C1053  C1055   1.395   .     A
C1053  H1061   1.086   .     S
C1053  C1225   1.377   .     S
C1054  H1062   1.086   .     S
C1054  C1056   1.395   .     A
C1054  C1400   1.377   1_545 S
C1057  N1066   1.345   .     A
C1057  H1063   1.081   .     S
C1058  N1065   1.345   .     A
C1058  H1064   1.081   .     S
C1058  C16     1.416   1_556 S
C1059  N1065   1.400   .     A
C1059  S1093   1.783   .     S
C1059  C13     1.416   1_556 S
C1060  S1098   1.783   .     S
C1060  N1066   1.400   .     A
N1065  Zn1075  2.027   .     S
N1066  Zn1076  2.027   .     S
O1067  Zn1075  1.980   .     S
O1068  Zn1076  1.980   .     S
O1069  Zn1076  1.994   .     S
O1070  Zn1075  1.994   .     S
O1071  Zn1075  2.007   .     S
O1072  Zn1076  2.007   .     S
O1073  Zn1076  2.034   .     S
O1074  Zn1075  2.034   .     S
C1077  O1078   1.222   .     D
C1077  O1079   1.399   .     S
C1077  C1107   1.487   .     S
O1079  H1080   1.013   .     S
C1081  O1082   1.222   .     D
C1081  O1083   1.399   .     S
C1081  C1166   1.487   1_455 S
O1083  H1084   1.013   .     S
C1085  O1086   1.221   .     D
C1085  O1087   1.399   .     S
O1087  H1088   1.014   .     S
C1089  O1090   1.221   .     D
C1089  O1091   1.399   .     S
O1091  H1092   1.014   .     S
S1093  O1096   1.672   .     S
S1093  O1095   1.498   .     D
S1093  O50     1.504   1_556 S
O1096  H1097   0.990   .     S
S1098  O1099   1.498   .     D
S1098  O1101   1.672   .     S
O1100  S54     1.504   1_556 S
O1101  H1102   0.990   .     S
C1103  O1127   1.290   .     A
C1103  C1114   1.412   .     S
C1103  O1125   1.284   .     A
C1104  O1128   1.290   .     A
C1104  C1113   1.412   .     S
C1104  O1126   1.284   .     A
C1105  O1129   1.278   .     A
C1105  O1131   1.302   .     A
C1105  C1107   1.426   .     S
C1106  C1108   1.426   .     S
C1106  O1130   1.278   .     A
C1106  O1132   1.302   .     A
C1108  C1165   1.375   .     S
C1108  C1197   1.487   .     S
C1109  C1114   1.406   .     A
C1109  C1143   1.484   .     S
C1109  C1459   1.377   1_545 S
C1110  C1113   1.406   .     A
C1110  C1147   1.484   .     S
C1110  C1286   1.377   .     S
C1111  C1113   1.395   .     A
C1111  H1119   1.086   .     S
C1111  C1283   1.377   .     S
C1112  H1120   1.086   .     S
C1112  C1114   1.395   .     A
C1112  C1458   1.377   1_545 S
C1115  N1124   1.345   .     A
C1115  H1121   1.081   .     S
C1116  N1123   1.345   .     A
C1116  H1122   1.081   .     S
C1116  C74     1.416   1_556 S
C1117  N1123   1.400   .     A
C1117  S1151   1.783   .     S
C1117  C71     1.416   1_556 S
C1118  S1156   1.783   .     S
C1118  N1124   1.400   .     A
N1123  Zn1133  2.027   .     S
N1124  Zn1134  2.027   .     S
O1125  Zn1133  1.980   .     S
O1126  Zn1134  1.980   .     S
O1127  Zn1134  1.994   .     S
O1128  Zn1133  1.994   .     S
O1129  Zn1133  2.007   .     S
O1130  Zn1134  2.007   .     S
O1131  Zn1134  2.034   .     S
O1132  Zn1133  2.034   .     S
C1135  O1136   1.222   .     D
C1135  O1137   1.399   .     S
C1135  C1165   1.487   .     S
O1137  H1138   1.013   .     S
C1139  O1140   1.222   .     D
C1139  O1141   1.399   .     S
O1141  H1142   1.013   .     S
C1143  O1144   1.221   .     D
C1143  O1145   1.399   .     S
O1145  H1146   1.014   .     S
C1147  O1148   1.221   .     D
C1147  O1149   1.399   .     S
O1149  H1150   1.014   .     S
S1151  O1154   1.672   .     S
S1151  O1153   1.498   .     D
S1151  O108    1.504   1_556 S
O1154  H1155   0.990   .     S
S1156  O1157   1.498   .     D
S1156  O1159   1.672   .     S
O1158  S112    1.504   1_556 S
O1159  H1160   0.990   .     S
C1161  O1185   1.290   .     A
C1161  C1172   1.412   .     S
C1161  O1183   1.284   .     A
C1162  O1186   1.290   .     A
C1162  C1171   1.412   .     S
C1162  O1184   1.284   .     A
C1163  O1187   1.278   .     A
C1163  O1189   1.302   .     A
C1163  C1165   1.426   .     S
C1164  C1166   1.426   .     S
C1164  O1188   1.278   .     A
C1164  O1190   1.302   .     A
C1166  C1049   1.375   1_655 S
C1166  C1081   1.487   1_655 S
C1167  C1172   1.406   .     A
C1167  C1201   1.484   .     S
C1167  C1517   1.377   1_545 S
C1168  C1171   1.406   .     A
C1168  C1205   1.484   .     S
C1168  C1344   1.377   .     S
C1169  C1171   1.395   .     A
C1169  H1177   1.086   .     S
C1169  C1341   1.377   .     S
C1170  H1178   1.086   .     S
C1170  C1172   1.395   .     A
C1170  C1516   1.377   1_545 S
C1173  N1182   1.345   .     A
C1173  H1179   1.081   .     S
C1174  N1181   1.345   .     A
C1174  H1180   1.081   .     S
C1174  C132    1.416   1_556 S
C1175  N1181   1.400   .     A
C1175  S1209   1.783   .     S
C1175  C129    1.416   1_556 S
C1176  S1214   1.783   .     S
C1176  N1182   1.400   .     A
N1181  Zn1191  2.027   .     S
N1182  Zn1192  2.027   .     S
O1183  Zn1191  1.980   .     S
O1184  Zn1192  1.980   .     S
O1185  Zn1192  1.994   .     S
O1186  Zn1191  1.994   .     S
O1187  Zn1191  2.007   .     S
O1188  Zn1192  2.007   .     S
O1189  Zn1192  2.034   .     S
O1190  Zn1191  2.034   .     S
C1193  O1194   1.222   .     D
C1193  O1195   1.399   .     S
C1193  C1049   1.487   1_655 S
O1195  H1196   1.013   .     S
C1197  O1198   1.222   .     D
C1197  O1199   1.399   .     S
O1199  H1200   1.013   .     S
C1201  O1202   1.221   .     D
C1201  O1203   1.399   .     S
O1203  H1204   1.014   .     S
C1205  O1206   1.221   .     D
C1205  O1207   1.399   .     S
O1207  H1208   1.014   .     S
S1209  O1212   1.672   .     S
S1209  O1211   1.498   .     D
S1209  O166    1.504   1_556 S
O1212  H1213   0.990   .     S
S1214  O1215   1.498   .     D
S1214  O1217   1.672   .     S
O1216  S170    1.504   1_556 S
O1217  H1218   0.990   .     S
C1219  O1243   1.290   .     A
C1219  C1230   1.412   .     S
C1219  O1241   1.284   .     A
C1220  O1244   1.290   .     A
C1220  C1229   1.412   .     S
C1220  O1242   1.284   .     A
C1221  O1245   1.278   .     A
C1221  O1247   1.302   .     A
C1221  C1223   1.426   .     S
C1222  C1224   1.426   .     S
C1222  O1246   1.278   .     A
C1222  O1248   1.302   .     A
C1223  C1340   1.375   1_455 S
C1223  C1367   1.487   1_455 S
C1224  C1281   1.375   .     S
C1224  C1313   1.487   .     S
C1225  C1230   1.406   .     A
C1225  C1259   1.484   .     S
C1226  C1229   1.406   .     A
C1226  C1263   1.484   .     S
C1226  C1402   1.377   .     S
C1227  C1229   1.395   .     A
C1227  H1235   1.086   .     S
C1227  C1399   1.377   .     S
C1228  H1236   1.086   .     S
C1228  C1230   1.395   .     A
C1231  N1240   1.345   .     A
C1231  H1237   1.081   .     S
C1232  N1239   1.345   .     A
C1232  H1238   1.081   .     S
C1232  C190    1.416   1_556 S
C1233  N1239   1.400   .     A
C1233  S1267   1.783   .     S
C1233  C187    1.416   1_556 S
C1234  S1272   1.783   .     S
C1234  N1240   1.400   .     A
N1239  Zn1249  2.027   .     S
N1240  Zn1250  2.027   .     S
O1241  Zn1249  1.980   .     S
O1242  Zn1250  1.980   .     S
O1243  Zn1250  1.994   .     S
O1244  Zn1249  1.994   .     S
O1245  Zn1249  2.007   .     S
O1246  Zn1250  2.007   .     S
O1247  Zn1250  2.034   .     S
O1248  Zn1249  2.034   .     S
C1251  O1252   1.222   .     D
C1251  O1253   1.399   .     S
C1251  C1281   1.487   .     S
O1253  H1254   1.013   .     S
C1255  O1256   1.222   .     D
C1255  O1257   1.399   .     S
C1255  C1340   1.487   1_455 S
O1257  H1258   1.013   .     S
C1259  O1260   1.221   .     D
C1259  O1261   1.399   .     S
O1261  H1262   1.014   .     S
C1263  O1264   1.221   .     D
C1263  O1265   1.399   .     S
O1265  H1266   1.014   .     S
S1267  O1270   1.672   .     S
S1267  O1269   1.498   .     D
S1267  O224    1.504   1_556 S
O1270  H1271   0.990   .     S
S1272  O1273   1.498   .     D
S1272  O1275   1.672   .     S
O1274  S228    1.504   1_556 S
O1275  H1276   0.990   .     S
C1277  O1301   1.290   .     A
C1277  C1288   1.412   .     S
C1277  O1299   1.284   .     A
C1278  O1302   1.290   .     A
C1278  C1287   1.412   .     S
C1278  O1300   1.284   .     A
C1279  O1303   1.278   .     A
C1279  O1305   1.302   .     A
C1279  C1281   1.426   .     S
C1280  C1282   1.426   .     S
C1280  O1304   1.278   .     A
C1280  O1306   1.302   .     A
C1282  C1339   1.375   .     S
C1282  C1371   1.487   .     S
C1283  C1288   1.406   .     A
C1283  C1317   1.484   .     S
C1284  C1287   1.406   .     A
C1284  C1321   1.484   .     S
C1284  C1460   1.377   .     S
C1285  C1287   1.395   .     A
C1285  H1293   1.086   .     S
C1285  C1457   1.377   .     S
C1286  H1294   1.086   .     S
C1286  C1288   1.395   .     A
C1289  N1298   1.345   .     A
C1289  H1295   1.081   .     S
C1290  N1297   1.345   .     A
C1290  H1296   1.081   .     S
C1290  C248    1.416   1_556 S
C1291  N1297   1.400   .     A
C1291  S1325   1.783   .     S
C1291  C245    1.416   1_556 S
C1292  S1330   1.783   .     S
C1292  N1298   1.400   .     A
N1297  Zn1307  2.027   .     S
N1298  Zn1308  2.027   .     S
O1299  Zn1307  1.980   .     S
O1300  Zn1308  1.980   .     S
O1301  Zn1308  1.994   .     S
O1302  Zn1307  1.994   .     S
O1303  Zn1307  2.007   .     S
O1304  Zn1308  2.007   .     S
O1305  Zn1308  2.034   .     S
O1306  Zn1307  2.034   .     S
C1309  O1310   1.222   .     D
C1309  O1311   1.399   .     S
C1309  C1339   1.487   .     S
O1311  H1312   1.013   .     S
C1313  O1314   1.222   .     D
C1313  O1315   1.399   .     S
O1315  H1316   1.013   .     S
C1317  O1318   1.221   .     D
C1317  O1319   1.399   .     S
O1319  H1320   1.014   .     S
C1321  O1322   1.221   .     D
C1321  O1323   1.399   .     S
O1323  H1324   1.014   .     S
S1325  O1328   1.672   .     S
S1325  O1327   1.498   .     D
S1325  O282    1.504   1_556 S
O1328  H1329   0.990   .     S
S1330  O1331   1.498   .     D
S1330  O1333   1.672   .     S
O1332  S286    1.504   1_556 S
O1333  H1334   0.990   .     S
C1335  O1359   1.290   .     A
C1335  C1346   1.412   .     S
C1335  O1357   1.284   .     A
C1336  O1360   1.290   .     A
C1336  C1345   1.412   .     S
C1336  O1358   1.284   .     A
C1337  O1361   1.278   .     A
C1337  O1363   1.302   .     A
C1337  C1339   1.426   .     S
C1338  C1340   1.426   .     S
C1338  O1362   1.278   .     A
C1338  O1364   1.302   .     A
C1340  C1223   1.375   1_655 S
C1340  C1255   1.487   1_655 S
C1341  C1346   1.406   .     A
C1341  C1375   1.484   .     S
C1342  C1345   1.406   .     A
C1342  C1379   1.484   .     S
C1342  C1518   1.377   .     S
C1343  C1345   1.395   .     A
C1343  H1351   1.086   .     S
C1343  C1515   1.377   .     S
C1344  H1352   1.086   .     S
C1344  C1346   1.395   .     A
C1347  N1356   1.345   .     A
C1347  H1353   1.081   .     S
C1348  N1355   1.345   .     A
C1348  H1354   1.081   .     S
C1348  C306    1.416   1_556 S
C1349  N1355   1.400   .     A
C1349  S1383   1.783   .     S
C1349  C303    1.416   1_556 S
C1350  S1388   1.783   .     S
C1350  N1356   1.400   .     A
N1355  Zn1365  2.027   .     S
N1356  Zn1366  2.027   .     S
O1357  Zn1365  1.980   .     S
O1358  Zn1366  1.980   .     S
O1359  Zn1366  1.994   .     S
O1360  Zn1365  1.994   .     S
O1361  Zn1365  2.007   .     S
O1362  Zn1366  2.007   .     S
O1363  Zn1366  2.034   .     S
O1364  Zn1365  2.034   .     S
C1367  O1368   1.222   .     D
C1367  O1369   1.399   .     S
C1367  C1223   1.487   1_655 S
O1369  H1370   1.013   .     S
C1371  O1372   1.222   .     D
C1371  O1373   1.399   .     S
O1373  H1374   1.013   .     S
C1375  O1376   1.221   .     D
C1375  O1377   1.399   .     S
O1377  H1378   1.014   .     S
C1379  O1380   1.221   .     D
C1379  O1381   1.399   .     S
O1381  H1382   1.014   .     S
S1383  O1386   1.672   .     S
S1383  O1385   1.498   .     D
S1383  O340    1.504   1_556 S
O1386  H1387   0.990   .     S
S1388  O1389   1.498   .     D
S1388  O1391   1.672   .     S
O1390  S344    1.504   1_556 S
O1391  H1392   0.990   .     S
C1393  O1417   1.290   .     A
C1393  C1404   1.412   .     S
C1393  O1415   1.284   .     A
C1394  O1418   1.290   .     A
C1394  C1403   1.412   .     S
C1394  O1416   1.284   .     A
C1395  O1419   1.278   .     A
C1395  O1421   1.302   .     A
C1395  C1397   1.426   .     S
C1396  C1398   1.426   .     S
C1396  O1420   1.278   .     A
C1396  O1422   1.302   .     A
C1397  C1514   1.375   1_455 S
C1397  C1541   1.487   1_455 S
C1398  C1455   1.375   .     S
C1398  C1487   1.487   .     S
C1399  C1404   1.406   .     A
C1399  C1433   1.484   .     S
C1400  C1403   1.406   .     A
C1400  C1437   1.484   .     S
C1400  C1054   1.377   1_565 S
C1401  C1403   1.395   .     A
C1401  H1409   1.086   .     S
C1401  C1051   1.377   1_565 S
C1402  H1410   1.086   .     S
C1402  C1404   1.395   .     A
C1405  N1414   1.345   .     A
C1405  H1411   1.081   .     S
C1406  N1413   1.345   .     A
C1406  H1412   1.081   .     S
C1406  C364    1.416   1_556 S
C1407  N1413   1.400   .     A
C1407  S1441   1.783   .     S
C1407  C361    1.416   1_556 S
C1408  S1446   1.783   .     S
C1408  N1414   1.400   .     A
N1413  Zn1423  2.027   .     S
N1414  Zn1424  2.027   .     S
O1415  Zn1423  1.980   .     S
O1416  Zn1424  1.980   .     S
O1417  Zn1424  1.994   .     S
O1418  Zn1423  1.994   .     S
O1419  Zn1423  2.007   .     S
O1420  Zn1424  2.007   .     S
O1421  Zn1424  2.034   .     S
O1422  Zn1423  2.034   .     S
C1425  O1426   1.222   .     D
C1425  O1427   1.399   .     S
C1425  C1455   1.487   .     S
O1427  H1428   1.013   .     S
C1429  O1430   1.222   .     D
C1429  O1431   1.399   .     S
C1429  C1514   1.487   1_455 S
O1431  H1432   1.013   .     S
C1433  O1434   1.221   .     D
C1433  O1435   1.399   .     S
O1435  H1436   1.014   .     S
C1437  O1438   1.221   .     D
C1437  O1439   1.399   .     S
O1439  H1440   1.014   .     S
S1441  O1444   1.672   .     S
S1441  O1443   1.498   .     D
S1441  O398    1.504   1_556 S
O1444  H1445   0.990   .     S
S1446  O1447   1.498   .     D
S1446  O1449   1.672   .     S
O1448  S402    1.504   1_556 S
O1449  H1450   0.990   .     S
C1451  O1475   1.290   .     A
C1451  C1462   1.412   .     S
C1451  O1473   1.284   .     A
C1452  O1476   1.290   .     A
C1452  C1461   1.412   .     S
C1452  O1474   1.284   .     A
C1453  O1477   1.278   .     A
C1453  O1479   1.302   .     A
C1453  C1455   1.426   .     S
C1454  C1456   1.426   .     S
C1454  O1478   1.278   .     A
C1454  O1480   1.302   .     A
C1456  C1513   1.375   .     S
C1456  C1545   1.487   .     S
C1457  C1462   1.406   .     A
C1457  C1491   1.484   .     S
C1458  C1461   1.406   .     A
C1458  C1495   1.484   .     S
C1458  C1112   1.377   1_565 S
C1459  C1461   1.395   .     A
C1459  H1467   1.086   .     S
C1459  C1109   1.377   1_565 S
C1460  H1468   1.086   .     S
C1460  C1462   1.395   .     A
C1463  N1472   1.345   .     A
C1463  H1469   1.081   .     S
C1464  N1471   1.345   .     A
C1464  H1470   1.081   .     S
C1464  C422    1.416   1_556 S
C1465  N1471   1.400   .     A
C1465  S1499   1.783   .     S
C1465  C419    1.416   1_556 S
C1466  S1504   1.783   .     S
C1466  N1472   1.400   .     A
N1471  Zn1481  2.027   .     S
N1472  Zn1482  2.027   .     S
O1473  Zn1481  1.980   .     S
O1474  Zn1482  1.980   .     S
O1475  Zn1482  1.994   .     S
O1476  Zn1481  1.994   .     S
O1477  Zn1481  2.007   .     S
O1478  Zn1482  2.007   .     S
O1479  Zn1482  2.034   .     S
O1480  Zn1481  2.034   .     S
C1483  O1484   1.222   .     D
C1483  O1485   1.399   .     S
C1483  C1513   1.487   .     S
O1485  H1486   1.013   .     S
C1487  O1488   1.222   .     D
C1487  O1489   1.399   .     S
O1489  H1490   1.013   .     S
C1491  O1492   1.221   .     D
C1491  O1493   1.399   .     S
O1493  H1494   1.014   .     S
C1495  O1496   1.221   .     D
C1495  O1497   1.399   .     S
O1497  H1498   1.014   .     S
S1499  O1502   1.672   .     S
S1499  O1501   1.498   .     D
S1499  O456    1.504   1_556 S
O1502  H1503   0.990   .     S
S1504  O1505   1.498   .     D
S1504  O1507   1.672   .     S
O1506  S460    1.504   1_556 S
O1507  H1508   0.990   .     S
C1509  O1533   1.290   .     A
C1509  C1520   1.412   .     S
C1509  O1531   1.284   .     A
C1510  O1534   1.290   .     A
C1510  C1519   1.412   .     S
C1510  O1532   1.284   .     A
C1511  O1535   1.278   .     A
C1511  O1537   1.302   .     A
C1511  C1513   1.426   .     S
C1512  C1514   1.426   .     S
C1512  O1536   1.278   .     A
C1512  O1538   1.302   .     A
C1514  C1397   1.375   1_655 S
C1514  C1429   1.487   1_655 S
C1515  C1520   1.406   .     A
C1515  C1549   1.484   .     S
C1516  C1519   1.406   .     A
C1516  C1553   1.484   .     S
C1516  C1170   1.377   1_565 S
C1517  C1519   1.395   .     A
C1517  H1525   1.086   .     S
C1517  C1167   1.377   1_565 S
C1518  H1526   1.086   .     S
C1518  C1520   1.395   .     A
C1521  N1530   1.345   .     A
C1521  H1527   1.081   .     S
C1522  N1529   1.345   .     A
C1522  H1528   1.081   .     S
C1522  C480    1.416   1_556 S
C1523  N1529   1.400   .     A
C1523  S1557   1.783   .     S
C1523  C477    1.416   1_556 S
C1524  S1562   1.783   .     S
C1524  N1530   1.400   .     A
N1529  Zn1539  2.027   .     S
N1530  Zn1540  2.027   .     S
O1531  Zn1539  1.980   .     S
O1532  Zn1540  1.980   .     S
O1533  Zn1540  1.994   .     S
O1534  Zn1539  1.994   .     S
O1535  Zn1539  2.007   .     S
O1536  Zn1540  2.007   .     S
O1537  Zn1540  2.034   .     S
O1538  Zn1539  2.034   .     S
C1541  O1542   1.222   .     D
C1541  O1543   1.399   .     S
C1541  C1397   1.487   1_655 S
O1543  H1544   1.013   .     S
C1545  O1546   1.222   .     D
C1545  O1547   1.399   .     S
O1547  H1548   1.013   .     S
C1549  O1550   1.221   .     D
C1549  O1551   1.399   .     S
O1551  H1552   1.014   .     S
C1553  O1554   1.221   .     D
C1553  O1555   1.399   .     S
O1555  H1556   1.014   .     S
S1557  O1560   1.672   .     S
S1557  O1559   1.498   .     D
S1557  O514    1.504   1_556 S
O1560  H1561   0.990   .     S
S1562  O1563   1.498   .     D
S1562  O1565   1.672   .     S
O1564  S518    1.504   1_556 S
O1565  H1566   0.990   .     S
