data_str_m3_o1_o17_pcu_sym.215
_audit_creation_date              2020-01-03
_audit_creation_method            'Materials Studio'
_symmetry_space_group_name_H-M    'P1'
_symmetry_Int_Tables_number       1
_symmetry_cell_setting            triclinic
loop_
_symmetry_equiv_pos_as_xyz
  x,y,z
_cell_length_a                    32.0321
_cell_length_b                    29.5489
_cell_length_c                    29.9044
_cell_angle_alpha                 90.0859
_cell_angle_beta                  90.2751
_cell_angle_gamma                 89.9698
loop_
_atom_site_label
_atom_site_type_symbol
_atom_site_fract_x
_atom_site_fract_y
_atom_site_fract_z
_atom_site_U_iso_or_equiv
_atom_site_adp_type
_atom_site_occupancy
C1     C     0.08666   0.16668   0.24998   0.00000  Uiso   1.00
C2     C     0.24668   0.16666   0.25002   0.00000  Uiso   1.00
C3     C     0.09232   0.18534   0.02228   0.00000  Uiso   1.00
C4     C     0.24102   0.14808   0.47772   0.00000  Uiso   1.00
C5     C     0.02133   0.12839   0.23459   0.00000  Uiso   1.00
C6     C     0.31201   0.20494   0.26541   0.00000  Uiso   1.00
C7     C     0.31190   0.12836   0.23465   0.00000  Uiso   1.00
C8     C     0.02143   0.20497   0.26534   0.00000  Uiso   1.00
C9     C     0.29081   0.16664   0.25005   0.00000  Uiso   1.00
C10    C     0.04252   0.16669   0.24994   0.00000  Uiso   1.00
C11    C     0.19366   0.02400   0.27673   0.00000  Uiso   1.00
C12    C     0.13967   0.30933   0.22327   0.00000  Uiso   1.00
C13    C     0.13967   0.02395   0.22327   0.00000  Uiso   1.00
C14    C     0.19366   0.30938   0.27673   0.00000  Uiso   1.00
C15    C     0.16679   0.16662   0.16369   0.00000  Uiso   1.00
C16    C     0.16654   0.16671   0.33631   0.00000  Uiso   1.00
C17    C     0.20499   0.16017   0.40648   0.00000  Uiso   1.00
C18    C     0.12835   0.17321   0.09352   0.00000  Uiso   1.00
C19    C     0.16695   0.16685   0.38390   0.00000  Uiso   1.00
C20    C     0.16639   0.16649   0.11610   0.00000  Uiso   1.00
C21    C     0.12923   0.17454   0.40625   0.00000  Uiso   1.00
C22    C     0.20410   0.15880   0.09375   0.00000  Uiso   1.00
C23    C     0.12935   0.17550   0.45283   0.00000  Uiso   1.00
C24    C     0.20398   0.15788   0.04717   0.00000  Uiso   1.00
C25    C     0.16687   0.16691   0.47651   0.00000  Uiso   1.00
C26    C     0.16647   0.16648   0.02349   0.00000  Uiso   1.00
C27    C     0.20474   0.15872   0.45337   0.00000  Uiso   1.00
C28    C     0.12860   0.17468   0.04663   0.00000  Uiso   1.00
C29    C     0.09263   0.18539   0.47612   0.00000  Uiso   1.00
C30    C     0.24071   0.14803   0.02388   0.00000  Uiso   1.00
H31    H     0.06381   0.19352   0.45883   0.00000  Uiso   1.00
H32    H     0.26954   0.13990   0.04117   0.00000  Uiso   1.00
H33    H     0.06337   0.19444   0.03838   0.00000  Uiso   1.00
H34    H     0.26997   0.13899   0.46162   0.00000  Uiso   1.00
H35    H     0.03772   0.09886   0.22220   0.00000  Uiso   1.00
H36    H     0.29562   0.23448   0.27779   0.00000  Uiso   1.00
H37    H     0.29543   0.09883   0.22227   0.00000  Uiso   1.00
H38    H     0.03790   0.23450   0.27772   0.00000  Uiso   1.00
H39    H     0.21524   0.04218   0.29811   0.00000  Uiso   1.00
H40    H     0.11809   0.29115   0.20189   0.00000  Uiso   1.00
H41    H     0.11808   0.04208   0.20190   0.00000  Uiso   1.00
H42    H     0.21525   0.29125   0.29810   0.00000  Uiso   1.00
N43    N     0.16667   0.28573   0.25000   0.00000  Uiso   1.00
N44    N     0.16667   0.04760   0.25000   0.00000  Uiso   1.00
O45    O     0.10559   0.20487   0.25000   0.00000  Uiso   1.00
O46    O     0.22774   0.12846   0.25001   0.00000  Uiso   1.00
O47    O     0.22774   0.20487   0.25001   0.00000  Uiso   1.00
O48    O     0.10559   0.12846   0.25000   0.00000  Uiso   1.00
O49    O     0.16666   0.20489   0.18393   0.00000  Uiso   1.00
O50    O     0.16667   0.12844   0.31608   0.00000  Uiso   1.00
O51    O     0.16667   0.20489   0.31608   0.00000  Uiso   1.00
O52    O     0.16666   0.12844   0.18393   0.00000  Uiso   1.00
Zn53   Zn    0.16667   0.21771   0.25000   0.00000  Uiso   1.00
Zn54   Zn    0.16667   0.11563   0.25000   0.00000  Uiso   1.00
C55    C     0.24435   0.15592   0.38023   0.00000  Uiso   1.00
H56    H     0.24501   0.13542   0.35011   0.00000  Uiso   1.00
O57    O     0.27558   0.17723   0.39065   0.00000  Uiso   1.00
C58    C     0.08899   0.17746   0.11977   0.00000  Uiso   1.00
H59    H     0.08834   0.19794   0.14990   0.00000  Uiso   1.00
O60    O     0.05775   0.15618   0.10934   0.00000  Uiso   1.00
N61    N     0.09124   0.18188   0.38201   0.00000  Uiso   1.00
H62    H     0.09381   0.20241   0.35433   0.00000  Uiso   1.00
C63    C     0.06729   0.14131   0.37323   0.00000  Uiso   1.00
H64    H     0.08470   0.11842   0.35046   0.00000  Uiso   1.00
H65    H     0.03718   0.15055   0.35710   0.00000  Uiso   1.00
H66    H     0.06044   0.12330   0.40494   0.00000  Uiso   1.00
N67    N     0.24209   0.15138   0.11798   0.00000  Uiso   1.00
H68    H     0.23951   0.13075   0.14559   0.00000  Uiso   1.00
C69    C     0.26604   0.19192   0.12690   0.00000  Uiso   1.00
H70    H     0.24879   0.21455   0.15008   0.00000  Uiso   1.00
H71    H     0.27258   0.21026   0.09529   0.00000  Uiso   1.00
H72    H     0.29631   0.18258   0.14266   0.00000  Uiso   1.00
C73    C     0.41999   0.16668   0.24998   0.00000  Uiso   1.00
C74    C     0.58001   0.16666   0.25002   0.00000  Uiso   1.00
C75    C     0.42565   0.18534   0.02228   0.00000  Uiso   1.00
C76    C     0.57436   0.14808   0.47772   0.00000  Uiso   1.00
C77    C     0.35466   0.12839   0.23459   0.00000  Uiso   1.00
C78    C     0.64534   0.20494   0.26541   0.00000  Uiso   1.00
C79    C     0.64524   0.12836   0.23465   0.00000  Uiso   1.00
C80    C     0.35476   0.20497   0.26534   0.00000  Uiso   1.00
C81    C     0.62415   0.16664   0.25005   0.00000  Uiso   1.00
C82    C     0.37585   0.16669   0.24994   0.00000  Uiso   1.00
C83    C     0.52699   0.02400   0.27673   0.00000  Uiso   1.00
C84    C     0.47301   0.30933   0.22327   0.00000  Uiso   1.00
C85    C     0.47300   0.02395   0.22327   0.00000  Uiso   1.00
C86    C     0.52700   0.30938   0.27673   0.00000  Uiso   1.00
C87    C     0.50013   0.16662   0.16369   0.00000  Uiso   1.00
C88    C     0.49988   0.16671   0.33631   0.00000  Uiso   1.00
C89    C     0.53832   0.16017   0.40648   0.00000  Uiso   1.00
C90    C     0.46168   0.17321   0.09352   0.00000  Uiso   1.00
C91    C     0.50028   0.16685   0.38390   0.00000  Uiso   1.00
C92    C     0.49972   0.16649   0.11610   0.00000  Uiso   1.00
C93    C     0.46257   0.17454   0.40625   0.00000  Uiso   1.00
C94    C     0.53743   0.15880   0.09375   0.00000  Uiso   1.00
C95    C     0.46269   0.17550   0.45283   0.00000  Uiso   1.00
C96    C     0.53732   0.15788   0.04717   0.00000  Uiso   1.00
C97    C     0.50020   0.16691   0.47651   0.00000  Uiso   1.00
C98    C     0.49980   0.16648   0.02349   0.00000  Uiso   1.00
C99    C     0.53807   0.15872   0.45337   0.00000  Uiso   1.00
C100   C     0.46194   0.17468   0.04663   0.00000  Uiso   1.00
C101   C     0.42597   0.18539   0.47612   0.00000  Uiso   1.00
C102   C     0.57404   0.14803   0.02388   0.00000  Uiso   1.00
H103   H     0.39714   0.19352   0.45883   0.00000  Uiso   1.00
H104   H     0.60287   0.13990   0.04117   0.00000  Uiso   1.00
H105   H     0.39671   0.19444   0.03838   0.00000  Uiso   1.00
H106   H     0.60331   0.13899   0.46162   0.00000  Uiso   1.00
H107   H     0.37105   0.09886   0.22220   0.00000  Uiso   1.00
H108   H     0.62895   0.23448   0.27779   0.00000  Uiso   1.00
H109   H     0.62876   0.09883   0.22227   0.00000  Uiso   1.00
H110   H     0.37124   0.23450   0.27772   0.00000  Uiso   1.00
H111   H     0.54858   0.04218   0.29811   0.00000  Uiso   1.00
H112   H     0.45142   0.29115   0.20189   0.00000  Uiso   1.00
H113   H     0.45141   0.04208   0.20190   0.00000  Uiso   1.00
H114   H     0.54859   0.29125   0.29810   0.00000  Uiso   1.00
N115   N     0.50000   0.28573   0.25000   0.00000  Uiso   1.00
N116   N     0.50000   0.04760   0.25000   0.00000  Uiso   1.00
O117   O     0.43892   0.20487   0.25000   0.00000  Uiso   1.00
O118   O     0.56108   0.12846   0.25001   0.00000  Uiso   1.00
O119   O     0.56108   0.20487   0.25001   0.00000  Uiso   1.00
O120   O     0.43892   0.12846   0.25000   0.00000  Uiso   1.00
O121   O     0.49999   0.20489   0.18393   0.00000  Uiso   1.00
O122   O     0.50001   0.12844   0.31608   0.00000  Uiso   1.00
O123   O     0.50001   0.20489   0.31608   0.00000  Uiso   1.00
O124   O     0.49999   0.12844   0.18393   0.00000  Uiso   1.00
Zn125  Zn    0.50000   0.21771   0.25000   0.00000  Uiso   1.00
Zn126  Zn    0.50000   0.11563   0.25000   0.00000  Uiso   1.00
C127   C     0.57768   0.15592   0.38023   0.00000  Uiso   1.00
H128   H     0.57834   0.13542   0.35011   0.00000  Uiso   1.00
O129   O     0.60891   0.17723   0.39065   0.00000  Uiso   1.00
C130   C     0.42232   0.17746   0.11977   0.00000  Uiso   1.00
H131   H     0.42167   0.19794   0.14990   0.00000  Uiso   1.00
O132   O     0.39109   0.15618   0.10934   0.00000  Uiso   1.00
N133   N     0.42457   0.18188   0.38201   0.00000  Uiso   1.00
H134   H     0.42714   0.20241   0.35433   0.00000  Uiso   1.00
C135   C     0.40063   0.14131   0.37323   0.00000  Uiso   1.00
H136   H     0.41803   0.11842   0.35046   0.00000  Uiso   1.00
H137   H     0.37051   0.15055   0.35710   0.00000  Uiso   1.00
H138   H     0.39377   0.12330   0.40494   0.00000  Uiso   1.00
N139   N     0.57542   0.15138   0.11798   0.00000  Uiso   1.00
H140   H     0.57284   0.13075   0.14559   0.00000  Uiso   1.00
C141   C     0.59937   0.19192   0.12690   0.00000  Uiso   1.00
H142   H     0.58212   0.21455   0.15008   0.00000  Uiso   1.00
H143   H     0.60591   0.21026   0.09529   0.00000  Uiso   1.00
H144   H     0.62964   0.18258   0.14266   0.00000  Uiso   1.00
C145   C     0.75332   0.16668   0.24998   0.00000  Uiso   1.00
C146   C     0.91334   0.16666   0.25002   0.00000  Uiso   1.00
C147   C     0.75899   0.18534   0.02228   0.00000  Uiso   1.00
C148   C     0.90769   0.14808   0.47772   0.00000  Uiso   1.00
C149   C     0.68799   0.12839   0.23459   0.00000  Uiso   1.00
C150   C     0.97867   0.20494   0.26541   0.00000  Uiso   1.00
C151   C     0.97857   0.12836   0.23465   0.00000  Uiso   1.00
C152   C     0.68810   0.20497   0.26534   0.00000  Uiso   1.00
C153   C     0.95748   0.16664   0.25005   0.00000  Uiso   1.00
C154   C     0.70919   0.16669   0.24994   0.00000  Uiso   1.00
C155   C     0.86033   0.02400   0.27673   0.00000  Uiso   1.00
C156   C     0.80634   0.30933   0.22327   0.00000  Uiso   1.00
C157   C     0.80634   0.02395   0.22327   0.00000  Uiso   1.00
C158   C     0.86033   0.30938   0.27673   0.00000  Uiso   1.00
C159   C     0.83346   0.16662   0.16369   0.00000  Uiso   1.00
C160   C     0.83321   0.16671   0.33631   0.00000  Uiso   1.00
C161   C     0.87166   0.16017   0.40648   0.00000  Uiso   1.00
C162   C     0.79501   0.17321   0.09352   0.00000  Uiso   1.00
C163   C     0.83361   0.16685   0.38390   0.00000  Uiso   1.00
C164   C     0.83305   0.16649   0.11610   0.00000  Uiso   1.00
C165   C     0.79590   0.17454   0.40625   0.00000  Uiso   1.00
C166   C     0.87077   0.15880   0.09375   0.00000  Uiso   1.00
C167   C     0.79602   0.17550   0.45283   0.00000  Uiso   1.00
C168   C     0.87065   0.15788   0.04717   0.00000  Uiso   1.00
C169   C     0.83354   0.16691   0.47651   0.00000  Uiso   1.00
C170   C     0.83314   0.16648   0.02349   0.00000  Uiso   1.00
C171   C     0.87140   0.15872   0.45337   0.00000  Uiso   1.00
C172   C     0.79527   0.17468   0.04663   0.00000  Uiso   1.00
C173   C     0.75930   0.18539   0.47612   0.00000  Uiso   1.00
C174   C     0.90738   0.14803   0.02388   0.00000  Uiso   1.00
H175   H     0.73048   0.19352   0.45883   0.00000  Uiso   1.00
H176   H     0.93620   0.13990   0.04117   0.00000  Uiso   1.00
H177   H     0.73004   0.19444   0.03838   0.00000  Uiso   1.00
H178   H     0.93664   0.13899   0.46162   0.00000  Uiso   1.00
H179   H     0.70438   0.09886   0.22220   0.00000  Uiso   1.00
H180   H     0.96229   0.23448   0.27779   0.00000  Uiso   1.00
H181   H     0.96210   0.09883   0.22227   0.00000  Uiso   1.00
H182   H     0.70457   0.23450   0.27772   0.00000  Uiso   1.00
H183   H     0.88191   0.04218   0.29811   0.00000  Uiso   1.00
H184   H     0.78476   0.29115   0.20189   0.00000  Uiso   1.00
H185   H     0.78475   0.04208   0.20190   0.00000  Uiso   1.00
H186   H     0.88192   0.29125   0.29810   0.00000  Uiso   1.00
N187   N     0.83333   0.28573   0.25000   0.00000  Uiso   1.00
N188   N     0.83333   0.04760   0.25000   0.00000  Uiso   1.00
O189   O     0.77226   0.20487   0.25000   0.00000  Uiso   1.00
O190   O     0.89441   0.12846   0.25001   0.00000  Uiso   1.00
O191   O     0.89441   0.20487   0.25001   0.00000  Uiso   1.00
O192   O     0.77226   0.12846   0.25000   0.00000  Uiso   1.00
O193   O     0.83333   0.20489   0.18393   0.00000  Uiso   1.00
O194   O     0.83334   0.12844   0.31608   0.00000  Uiso   1.00
O195   O     0.83334   0.20489   0.31608   0.00000  Uiso   1.00
O196   O     0.83333   0.12844   0.18393   0.00000  Uiso   1.00
Zn197  Zn    0.83333   0.21771   0.25000   0.00000  Uiso   1.00
Zn198  Zn    0.83333   0.11563   0.25000   0.00000  Uiso   1.00
C199   C     0.91102   0.15592   0.38023   0.00000  Uiso   1.00
H200   H     0.91167   0.13542   0.35011   0.00000  Uiso   1.00
O201   O     0.94224   0.17723   0.39065   0.00000  Uiso   1.00
C202   C     0.75565   0.17746   0.11977   0.00000  Uiso   1.00
H203   H     0.75500   0.19794   0.14990   0.00000  Uiso   1.00
O204   O     0.72442   0.15618   0.10934   0.00000  Uiso   1.00
N205   N     0.75790   0.18188   0.38201   0.00000  Uiso   1.00
H206   H     0.76048   0.20241   0.35433   0.00000  Uiso   1.00
C207   C     0.73396   0.14131   0.37323   0.00000  Uiso   1.00
H208   H     0.75137   0.11842   0.35046   0.00000  Uiso   1.00
H209   H     0.70384   0.15055   0.35710   0.00000  Uiso   1.00
H210   H     0.72711   0.12330   0.40494   0.00000  Uiso   1.00
N211   N     0.90876   0.15138   0.11798   0.00000  Uiso   1.00
H212   H     0.90618   0.13075   0.14559   0.00000  Uiso   1.00
C213   C     0.93271   0.19192   0.12690   0.00000  Uiso   1.00
H214   H     0.91545   0.21455   0.15008   0.00000  Uiso   1.00
H215   H     0.93925   0.21026   0.09529   0.00000  Uiso   1.00
H216   H     0.96298   0.18258   0.14266   0.00000  Uiso   1.00
C217   C     0.08666   0.50001   0.24998   0.00000  Uiso   1.00
C218   C     0.24668   0.49999   0.25002   0.00000  Uiso   1.00
C219   C     0.09232   0.51868   0.02228   0.00000  Uiso   1.00
C220   C     0.24102   0.48141   0.47772   0.00000  Uiso   1.00
C221   C     0.02133   0.46172   0.23459   0.00000  Uiso   1.00
C222   C     0.31201   0.53828   0.26541   0.00000  Uiso   1.00
C223   C     0.31190   0.46170   0.23465   0.00000  Uiso   1.00
C224   C     0.02143   0.53830   0.26534   0.00000  Uiso   1.00
C225   C     0.29081   0.49998   0.25005   0.00000  Uiso   1.00
C226   C     0.04252   0.50002   0.24994   0.00000  Uiso   1.00
C227   C     0.19366   0.35733   0.27673   0.00000  Uiso   1.00
C228   C     0.13967   0.64267   0.22327   0.00000  Uiso   1.00
C229   C     0.13967   0.35728   0.22327   0.00000  Uiso   1.00
C230   C     0.19366   0.64272   0.27673   0.00000  Uiso   1.00
C231   C     0.16679   0.49996   0.16369   0.00000  Uiso   1.00
C232   C     0.16654   0.50004   0.33631   0.00000  Uiso   1.00
C233   C     0.20499   0.49350   0.40648   0.00000  Uiso   1.00
C234   C     0.12835   0.50654   0.09352   0.00000  Uiso   1.00
C235   C     0.16695   0.50018   0.38390   0.00000  Uiso   1.00
C236   C     0.16639   0.49983   0.11610   0.00000  Uiso   1.00
C237   C     0.12923   0.50787   0.40625   0.00000  Uiso   1.00
C238   C     0.20410   0.49213   0.09375   0.00000  Uiso   1.00
C239   C     0.12935   0.50884   0.45283   0.00000  Uiso   1.00
C240   C     0.20398   0.49121   0.04717   0.00000  Uiso   1.00
C241   C     0.16687   0.50025   0.47651   0.00000  Uiso   1.00
C242   C     0.16647   0.49982   0.02349   0.00000  Uiso   1.00
C243   C     0.20474   0.49205   0.45337   0.00000  Uiso   1.00
C244   C     0.12860   0.50801   0.04663   0.00000  Uiso   1.00
C245   C     0.09263   0.51872   0.47612   0.00000  Uiso   1.00
C246   C     0.24071   0.48136   0.02388   0.00000  Uiso   1.00
H247   H     0.06381   0.52686   0.45883   0.00000  Uiso   1.00
H248   H     0.26954   0.47323   0.04117   0.00000  Uiso   1.00
H249   H     0.06337   0.52777   0.03838   0.00000  Uiso   1.00
H250   H     0.26997   0.47233   0.46162   0.00000  Uiso   1.00
H251   H     0.03772   0.43219   0.22220   0.00000  Uiso   1.00
H252   H     0.29562   0.56781   0.27779   0.00000  Uiso   1.00
H253   H     0.29543   0.43216   0.22227   0.00000  Uiso   1.00
H254   H     0.03790   0.56784   0.27772   0.00000  Uiso   1.00
H255   H     0.21524   0.37551   0.29811   0.00000  Uiso   1.00
H256   H     0.11809   0.62449   0.20189   0.00000  Uiso   1.00
H257   H     0.11808   0.37542   0.20190   0.00000  Uiso   1.00
H258   H     0.21525   0.62458   0.29810   0.00000  Uiso   1.00
N259   N     0.16667   0.61907   0.25000   0.00000  Uiso   1.00
N260   N     0.16667   0.38093   0.25000   0.00000  Uiso   1.00
O261   O     0.10559   0.53821   0.25000   0.00000  Uiso   1.00
O262   O     0.22774   0.46179   0.25001   0.00000  Uiso   1.00
O263   O     0.22774   0.53821   0.25001   0.00000  Uiso   1.00
O264   O     0.10559   0.46179   0.25000   0.00000  Uiso   1.00
O265   O     0.16666   0.53823   0.18393   0.00000  Uiso   1.00
O266   O     0.16667   0.46177   0.31608   0.00000  Uiso   1.00
O267   O     0.16667   0.53823   0.31608   0.00000  Uiso   1.00
O268   O     0.16666   0.46177   0.18393   0.00000  Uiso   1.00
Zn269  Zn    0.16667   0.55104   0.25000   0.00000  Uiso   1.00
Zn270  Zn    0.16667   0.44896   0.25000   0.00000  Uiso   1.00
C271   C     0.24435   0.48925   0.38023   0.00000  Uiso   1.00
H272   H     0.24501   0.46876   0.35011   0.00000  Uiso   1.00
O273   O     0.27558   0.51056   0.39065   0.00000  Uiso   1.00
C274   C     0.08899   0.51079   0.11977   0.00000  Uiso   1.00
H275   H     0.08834   0.53127   0.14990   0.00000  Uiso   1.00
O276   O     0.05775   0.48951   0.10934   0.00000  Uiso   1.00
N277   N     0.09124   0.51521   0.38201   0.00000  Uiso   1.00
H278   H     0.09381   0.53574   0.35433   0.00000  Uiso   1.00
C279   C     0.06729   0.47464   0.37323   0.00000  Uiso   1.00
H280   H     0.08470   0.45175   0.35046   0.00000  Uiso   1.00
H281   H     0.03718   0.48388   0.35710   0.00000  Uiso   1.00
H282   H     0.06044   0.45664   0.40494   0.00000  Uiso   1.00
N283   N     0.24209   0.48471   0.11798   0.00000  Uiso   1.00
H284   H     0.23951   0.46409   0.14559   0.00000  Uiso   1.00
C285   C     0.26604   0.52525   0.12690   0.00000  Uiso   1.00
H286   H     0.24879   0.54789   0.15008   0.00000  Uiso   1.00
H287   H     0.27258   0.54359   0.09529   0.00000  Uiso   1.00
H288   H     0.29631   0.51592   0.14266   0.00000  Uiso   1.00
C289   C     0.41999   0.50001   0.24998   0.00000  Uiso   1.00
C290   C     0.58001   0.49999   0.25002   0.00000  Uiso   1.00
C291   C     0.42565   0.51868   0.02228   0.00000  Uiso   1.00
C292   C     0.57436   0.48141   0.47772   0.00000  Uiso   1.00
C293   C     0.35466   0.46172   0.23459   0.00000  Uiso   1.00
C294   C     0.64534   0.53828   0.26541   0.00000  Uiso   1.00
C295   C     0.64524   0.46170   0.23465   0.00000  Uiso   1.00
C296   C     0.35476   0.53830   0.26534   0.00000  Uiso   1.00
C297   C     0.62415   0.49998   0.25005   0.00000  Uiso   1.00
C298   C     0.37585   0.50002   0.24994   0.00000  Uiso   1.00
C299   C     0.52699   0.35733   0.27673   0.00000  Uiso   1.00
C300   C     0.47301   0.64267   0.22327   0.00000  Uiso   1.00
C301   C     0.47300   0.35728   0.22327   0.00000  Uiso   1.00
C302   C     0.52700   0.64272   0.27673   0.00000  Uiso   1.00
C303   C     0.50013   0.49996   0.16369   0.00000  Uiso   1.00
C304   C     0.49988   0.50004   0.33631   0.00000  Uiso   1.00
C305   C     0.53832   0.49350   0.40648   0.00000  Uiso   1.00
C306   C     0.46168   0.50654   0.09352   0.00000  Uiso   1.00
C307   C     0.50028   0.50018   0.38390   0.00000  Uiso   1.00
C308   C     0.49972   0.49983   0.11610   0.00000  Uiso   1.00
C309   C     0.46257   0.50787   0.40625   0.00000  Uiso   1.00
C310   C     0.53743   0.49213   0.09375   0.00000  Uiso   1.00
C311   C     0.46269   0.50884   0.45283   0.00000  Uiso   1.00
C312   C     0.53732   0.49121   0.04717   0.00000  Uiso   1.00
C313   C     0.50020   0.50025   0.47651   0.00000  Uiso   1.00
C314   C     0.49980   0.49982   0.02349   0.00000  Uiso   1.00
C315   C     0.53807   0.49205   0.45337   0.00000  Uiso   1.00
C316   C     0.46194   0.50801   0.04663   0.00000  Uiso   1.00
C317   C     0.42597   0.51872   0.47612   0.00000  Uiso   1.00
C318   C     0.57404   0.48136   0.02388   0.00000  Uiso   1.00
H319   H     0.39714   0.52686   0.45883   0.00000  Uiso   1.00
H320   H     0.60287   0.47323   0.04117   0.00000  Uiso   1.00
H321   H     0.39671   0.52777   0.03838   0.00000  Uiso   1.00
H322   H     0.60331   0.47233   0.46162   0.00000  Uiso   1.00
H323   H     0.37105   0.43219   0.22220   0.00000  Uiso   1.00
H324   H     0.62895   0.56781   0.27779   0.00000  Uiso   1.00
H325   H     0.62876   0.43216   0.22227   0.00000  Uiso   1.00
H326   H     0.37124   0.56784   0.27772   0.00000  Uiso   1.00
H327   H     0.54858   0.37551   0.29811   0.00000  Uiso   1.00
H328   H     0.45142   0.62449   0.20189   0.00000  Uiso   1.00
H329   H     0.45141   0.37542   0.20190   0.00000  Uiso   1.00
H330   H     0.54859   0.62458   0.29810   0.00000  Uiso   1.00
N331   N     0.50000   0.61907   0.25000   0.00000  Uiso   1.00
N332   N     0.50000   0.38093   0.25000   0.00000  Uiso   1.00
O333   O     0.43892   0.53821   0.25000   0.00000  Uiso   1.00
O334   O     0.56108   0.46179   0.25001   0.00000  Uiso   1.00
O335   O     0.56108   0.53821   0.25001   0.00000  Uiso   1.00
O336   O     0.43892   0.46179   0.25000   0.00000  Uiso   1.00
O337   O     0.49999   0.53823   0.18393   0.00000  Uiso   1.00
O338   O     0.50001   0.46177   0.31608   0.00000  Uiso   1.00
O339   O     0.50001   0.53823   0.31608   0.00000  Uiso   1.00
O340   O     0.49999   0.46177   0.18393   0.00000  Uiso   1.00
Zn341  Zn    0.50000   0.55104   0.25000   0.00000  Uiso   1.00
Zn342  Zn    0.50000   0.44896   0.25000   0.00000  Uiso   1.00
C343   C     0.57768   0.48925   0.38023   0.00000  Uiso   1.00
H344   H     0.57834   0.46876   0.35011   0.00000  Uiso   1.00
O345   O     0.60891   0.51056   0.39065   0.00000  Uiso   1.00
C346   C     0.42232   0.51079   0.11977   0.00000  Uiso   1.00
H347   H     0.42167   0.53127   0.14990   0.00000  Uiso   1.00
O348   O     0.39109   0.48951   0.10934   0.00000  Uiso   1.00
N349   N     0.42457   0.51521   0.38201   0.00000  Uiso   1.00
H350   H     0.42714   0.53574   0.35433   0.00000  Uiso   1.00
C351   C     0.40063   0.47464   0.37323   0.00000  Uiso   1.00
H352   H     0.41803   0.45175   0.35046   0.00000  Uiso   1.00
H353   H     0.37051   0.48388   0.35710   0.00000  Uiso   1.00
H354   H     0.39377   0.45664   0.40494   0.00000  Uiso   1.00
N355   N     0.57542   0.48471   0.11798   0.00000  Uiso   1.00
H356   H     0.57284   0.46409   0.14559   0.00000  Uiso   1.00
C357   C     0.59937   0.52525   0.12690   0.00000  Uiso   1.00
H358   H     0.58212   0.54789   0.15008   0.00000  Uiso   1.00
H359   H     0.60591   0.54359   0.09529   0.00000  Uiso   1.00
H360   H     0.62964   0.51592   0.14266   0.00000  Uiso   1.00
C361   C     0.75332   0.50001   0.24998   0.00000  Uiso   1.00
C362   C     0.91334   0.49999   0.25002   0.00000  Uiso   1.00
C363   C     0.75899   0.51868   0.02228   0.00000  Uiso   1.00
C364   C     0.90769   0.48141   0.47772   0.00000  Uiso   1.00
C365   C     0.68799   0.46172   0.23459   0.00000  Uiso   1.00
C366   C     0.97867   0.53828   0.26541   0.00000  Uiso   1.00
C367   C     0.97857   0.46170   0.23465   0.00000  Uiso   1.00
C368   C     0.68810   0.53830   0.26534   0.00000  Uiso   1.00
C369   C     0.95748   0.49998   0.25005   0.00000  Uiso   1.00
C370   C     0.70919   0.50002   0.24994   0.00000  Uiso   1.00
C371   C     0.86033   0.35733   0.27673   0.00000  Uiso   1.00
C372   C     0.80634   0.64267   0.22327   0.00000  Uiso   1.00
C373   C     0.80634   0.35728   0.22327   0.00000  Uiso   1.00
C374   C     0.86033   0.64272   0.27673   0.00000  Uiso   1.00
C375   C     0.83346   0.49996   0.16369   0.00000  Uiso   1.00
C376   C     0.83321   0.50004   0.33631   0.00000  Uiso   1.00
C377   C     0.87166   0.49350   0.40648   0.00000  Uiso   1.00
C378   C     0.79501   0.50654   0.09352   0.00000  Uiso   1.00
C379   C     0.83361   0.50018   0.38390   0.00000  Uiso   1.00
C380   C     0.83305   0.49983   0.11610   0.00000  Uiso   1.00
C381   C     0.79590   0.50787   0.40625   0.00000  Uiso   1.00
C382   C     0.87077   0.49213   0.09375   0.00000  Uiso   1.00
C383   C     0.79602   0.50884   0.45283   0.00000  Uiso   1.00
C384   C     0.87065   0.49121   0.04717   0.00000  Uiso   1.00
C385   C     0.83354   0.50025   0.47651   0.00000  Uiso   1.00
C386   C     0.83314   0.49982   0.02349   0.00000  Uiso   1.00
C387   C     0.87140   0.49205   0.45337   0.00000  Uiso   1.00
C388   C     0.79527   0.50801   0.04663   0.00000  Uiso   1.00
C389   C     0.75930   0.51872   0.47612   0.00000  Uiso   1.00
C390   C     0.90738   0.48136   0.02388   0.00000  Uiso   1.00
H391   H     0.73048   0.52686   0.45883   0.00000  Uiso   1.00
H392   H     0.93620   0.47323   0.04117   0.00000  Uiso   1.00
H393   H     0.73004   0.52777   0.03838   0.00000  Uiso   1.00
H394   H     0.93664   0.47233   0.46162   0.00000  Uiso   1.00
H395   H     0.70438   0.43219   0.22220   0.00000  Uiso   1.00
H396   H     0.96229   0.56781   0.27779   0.00000  Uiso   1.00
H397   H     0.96210   0.43216   0.22227   0.00000  Uiso   1.00
H398   H     0.70457   0.56784   0.27772   0.00000  Uiso   1.00
H399   H     0.88191   0.37551   0.29811   0.00000  Uiso   1.00
H400   H     0.78476   0.62449   0.20189   0.00000  Uiso   1.00
H401   H     0.78475   0.37542   0.20190   0.00000  Uiso   1.00
H402   H     0.88192   0.62458   0.29810   0.00000  Uiso   1.00
N403   N     0.83333   0.61907   0.25000   0.00000  Uiso   1.00
N404   N     0.83333   0.38093   0.25000   0.00000  Uiso   1.00
O405   O     0.77226   0.53821   0.25000   0.00000  Uiso   1.00
O406   O     0.89441   0.46179   0.25001   0.00000  Uiso   1.00
O407   O     0.89441   0.53821   0.25001   0.00000  Uiso   1.00
O408   O     0.77226   0.46179   0.25000   0.00000  Uiso   1.00
O409   O     0.83333   0.53823   0.18393   0.00000  Uiso   1.00
O410   O     0.83334   0.46177   0.31608   0.00000  Uiso   1.00
O411   O     0.83334   0.53823   0.31608   0.00000  Uiso   1.00
O412   O     0.83333   0.46177   0.18393   0.00000  Uiso   1.00
Zn413  Zn    0.83333   0.55104   0.25000   0.00000  Uiso   1.00
Zn414  Zn    0.83333   0.44896   0.25000   0.00000  Uiso   1.00
C415   C     0.91102   0.48925   0.38023   0.00000  Uiso   1.00
H416   H     0.91167   0.46876   0.35011   0.00000  Uiso   1.00
O417   O     0.94224   0.51056   0.39065   0.00000  Uiso   1.00
C418   C     0.75565   0.51079   0.11977   0.00000  Uiso   1.00
H419   H     0.75500   0.53127   0.14990   0.00000  Uiso   1.00
O420   O     0.72442   0.48951   0.10934   0.00000  Uiso   1.00
N421   N     0.75790   0.51521   0.38201   0.00000  Uiso   1.00
H422   H     0.76048   0.53574   0.35433   0.00000  Uiso   1.00
C423   C     0.73396   0.47464   0.37323   0.00000  Uiso   1.00
H424   H     0.75137   0.45175   0.35046   0.00000  Uiso   1.00
H425   H     0.70384   0.48388   0.35710   0.00000  Uiso   1.00
H426   H     0.72711   0.45664   0.40494   0.00000  Uiso   1.00
N427   N     0.90876   0.48471   0.11798   0.00000  Uiso   1.00
H428   H     0.90618   0.46409   0.14559   0.00000  Uiso   1.00
C429   C     0.93271   0.52525   0.12690   0.00000  Uiso   1.00
H430   H     0.91545   0.54789   0.15008   0.00000  Uiso   1.00
H431   H     0.93925   0.54359   0.09529   0.00000  Uiso   1.00
H432   H     0.96298   0.51592   0.14266   0.00000  Uiso   1.00
C433   C     0.08666   0.83334   0.24998   0.00000  Uiso   1.00
C434   C     0.24668   0.83332   0.25002   0.00000  Uiso   1.00
C435   C     0.09232   0.85201   0.02228   0.00000  Uiso   1.00
C436   C     0.24102   0.81474   0.47772   0.00000  Uiso   1.00
C437   C     0.02133   0.79506   0.23459   0.00000  Uiso   1.00
C438   C     0.31201   0.87161   0.26541   0.00000  Uiso   1.00
C439   C     0.31190   0.79503   0.23465   0.00000  Uiso   1.00
C440   C     0.02143   0.87164   0.26534   0.00000  Uiso   1.00
C441   C     0.29081   0.83331   0.25005   0.00000  Uiso   1.00
C442   C     0.04252   0.83336   0.24994   0.00000  Uiso   1.00
C443   C     0.19366   0.69067   0.27673   0.00000  Uiso   1.00
C444   C     0.13967   0.97600   0.22327   0.00000  Uiso   1.00
C445   C     0.13967   0.69062   0.22327   0.00000  Uiso   1.00
C446   C     0.19366   0.97605   0.27673   0.00000  Uiso   1.00
C447   C     0.16679   0.83329   0.16369   0.00000  Uiso   1.00
C448   C     0.16654   0.83338   0.33631   0.00000  Uiso   1.00
C449   C     0.20499   0.82683   0.40648   0.00000  Uiso   1.00
C450   C     0.12835   0.83988   0.09352   0.00000  Uiso   1.00
C451   C     0.16695   0.83352   0.38390   0.00000  Uiso   1.00
C452   C     0.16639   0.83316   0.11610   0.00000  Uiso   1.00
C453   C     0.12923   0.84121   0.40625   0.00000  Uiso   1.00
C454   C     0.20410   0.82547   0.09375   0.00000  Uiso   1.00
C455   C     0.12935   0.84217   0.45283   0.00000  Uiso   1.00
C456   C     0.20398   0.82455   0.04717   0.00000  Uiso   1.00
C457   C     0.16687   0.83358   0.47651   0.00000  Uiso   1.00
C458   C     0.16647   0.83315   0.02349   0.00000  Uiso   1.00
C459   C     0.20474   0.82538   0.45337   0.00000  Uiso   1.00
C460   C     0.12860   0.84135   0.04663   0.00000  Uiso   1.00
C461   C     0.09263   0.85205   0.47612   0.00000  Uiso   1.00
C462   C     0.24071   0.81469   0.02388   0.00000  Uiso   1.00
H463   H     0.06381   0.86019   0.45883   0.00000  Uiso   1.00
H464   H     0.26954   0.80657   0.04117   0.00000  Uiso   1.00
H465   H     0.06337   0.86111   0.03838   0.00000  Uiso   1.00
H466   H     0.26997   0.80566   0.46162   0.00000  Uiso   1.00
H467   H     0.03772   0.76552   0.22220   0.00000  Uiso   1.00
H468   H     0.29562   0.90115   0.27779   0.00000  Uiso   1.00
H469   H     0.29543   0.76550   0.22227   0.00000  Uiso   1.00
H470   H     0.03790   0.90117   0.27772   0.00000  Uiso   1.00
H471   H     0.21524   0.70885   0.29811   0.00000  Uiso   1.00
H472   H     0.11809   0.95782   0.20189   0.00000  Uiso   1.00
H473   H     0.11808   0.70875   0.20190   0.00000  Uiso   1.00
H474   H     0.21525   0.95792   0.29810   0.00000  Uiso   1.00
N475   N     0.16667   0.95240   0.25000   0.00000  Uiso   1.00
N476   N     0.16667   0.71427   0.25000   0.00000  Uiso   1.00
O477   O     0.10559   0.87154   0.25000   0.00000  Uiso   1.00
O478   O     0.22774   0.79513   0.25001   0.00000  Uiso   1.00
O479   O     0.22774   0.87154   0.25001   0.00000  Uiso   1.00
O480   O     0.10559   0.79513   0.25000   0.00000  Uiso   1.00
O481   O     0.16666   0.87156   0.18393   0.00000  Uiso   1.00
O482   O     0.16667   0.79511   0.31608   0.00000  Uiso   1.00
O483   O     0.16667   0.87156   0.31608   0.00000  Uiso   1.00
O484   O     0.16666   0.79511   0.18393   0.00000  Uiso   1.00
Zn485  Zn    0.16667   0.88437   0.25000   0.00000  Uiso   1.00
Zn486  Zn    0.16667   0.78229   0.25000   0.00000  Uiso   1.00
C487   C     0.24435   0.82259   0.38023   0.00000  Uiso   1.00
H488   H     0.24501   0.80209   0.35011   0.00000  Uiso   1.00
O489   O     0.27558   0.84389   0.39065   0.00000  Uiso   1.00
C490   C     0.08899   0.84413   0.11977   0.00000  Uiso   1.00
H491   H     0.08834   0.86461   0.14990   0.00000  Uiso   1.00
O492   O     0.05775   0.82284   0.10934   0.00000  Uiso   1.00
N493   N     0.09124   0.84855   0.38201   0.00000  Uiso   1.00
H494   H     0.09381   0.86908   0.35433   0.00000  Uiso   1.00
C495   C     0.06729   0.80797   0.37323   0.00000  Uiso   1.00
H496   H     0.08470   0.78508   0.35046   0.00000  Uiso   1.00
H497   H     0.03718   0.81721   0.35710   0.00000  Uiso   1.00
H498   H     0.06044   0.78997   0.40494   0.00000  Uiso   1.00
N499   N     0.24209   0.81805   0.11798   0.00000  Uiso   1.00
H500   H     0.23951   0.79742   0.14559   0.00000  Uiso   1.00
C501   C     0.26604   0.85859   0.12690   0.00000  Uiso   1.00
H502   H     0.24879   0.88122   0.15008   0.00000  Uiso   1.00
H503   H     0.27258   0.87692   0.09529   0.00000  Uiso   1.00
H504   H     0.29631   0.84925   0.14266   0.00000  Uiso   1.00
C505   C     0.41999   0.83334   0.24998   0.00000  Uiso   1.00
C506   C     0.58001   0.83332   0.25002   0.00000  Uiso   1.00
C507   C     0.42565   0.85201   0.02228   0.00000  Uiso   1.00
C508   C     0.57436   0.81474   0.47772   0.00000  Uiso   1.00
C509   C     0.35466   0.79506   0.23459   0.00000  Uiso   1.00
C510   C     0.64534   0.87161   0.26541   0.00000  Uiso   1.00
C511   C     0.64524   0.79503   0.23465   0.00000  Uiso   1.00
C512   C     0.35476   0.87164   0.26534   0.00000  Uiso   1.00
C513   C     0.62415   0.83331   0.25005   0.00000  Uiso   1.00
C514   C     0.37585   0.83336   0.24994   0.00000  Uiso   1.00
C515   C     0.52699   0.69067   0.27673   0.00000  Uiso   1.00
C516   C     0.47301   0.97600   0.22327   0.00000  Uiso   1.00
C517   C     0.47300   0.69062   0.22327   0.00000  Uiso   1.00
C518   C     0.52700   0.97605   0.27673   0.00000  Uiso   1.00
C519   C     0.50013   0.83329   0.16369   0.00000  Uiso   1.00
C520   C     0.49988   0.83338   0.33631   0.00000  Uiso   1.00
C521   C     0.53832   0.82683   0.40648   0.00000  Uiso   1.00
C522   C     0.46168   0.83988   0.09352   0.00000  Uiso   1.00
C523   C     0.50028   0.83352   0.38390   0.00000  Uiso   1.00
C524   C     0.49972   0.83316   0.11610   0.00000  Uiso   1.00
C525   C     0.46257   0.84121   0.40625   0.00000  Uiso   1.00
C526   C     0.53743   0.82547   0.09375   0.00000  Uiso   1.00
C527   C     0.46269   0.84217   0.45283   0.00000  Uiso   1.00
C528   C     0.53732   0.82455   0.04717   0.00000  Uiso   1.00
C529   C     0.50020   0.83358   0.47651   0.00000  Uiso   1.00
C530   C     0.49980   0.83315   0.02349   0.00000  Uiso   1.00
C531   C     0.53807   0.82538   0.45337   0.00000  Uiso   1.00
C532   C     0.46194   0.84135   0.04663   0.00000  Uiso   1.00
C533   C     0.42597   0.85205   0.47612   0.00000  Uiso   1.00
C534   C     0.57404   0.81469   0.02388   0.00000  Uiso   1.00
H535   H     0.39714   0.86019   0.45883   0.00000  Uiso   1.00
H536   H     0.60287   0.80657   0.04117   0.00000  Uiso   1.00
H537   H     0.39671   0.86111   0.03838   0.00000  Uiso   1.00
H538   H     0.60331   0.80566   0.46162   0.00000  Uiso   1.00
H539   H     0.37105   0.76552   0.22220   0.00000  Uiso   1.00
H540   H     0.62895   0.90115   0.27779   0.00000  Uiso   1.00
H541   H     0.62876   0.76550   0.22227   0.00000  Uiso   1.00
H542   H     0.37124   0.90117   0.27772   0.00000  Uiso   1.00
H543   H     0.54858   0.70885   0.29811   0.00000  Uiso   1.00
H544   H     0.45142   0.95782   0.20189   0.00000  Uiso   1.00
H545   H     0.45141   0.70875   0.20190   0.00000  Uiso   1.00
H546   H     0.54859   0.95792   0.29810   0.00000  Uiso   1.00
N547   N     0.50000   0.95240   0.25000   0.00000  Uiso   1.00
N548   N     0.50000   0.71427   0.25000   0.00000  Uiso   1.00
O549   O     0.43892   0.87154   0.25000   0.00000  Uiso   1.00
O550   O     0.56108   0.79513   0.25001   0.00000  Uiso   1.00
O551   O     0.56108   0.87154   0.25001   0.00000  Uiso   1.00
O552   O     0.43892   0.79513   0.25000   0.00000  Uiso   1.00
O553   O     0.49999   0.87156   0.18393   0.00000  Uiso   1.00
O554   O     0.50001   0.79511   0.31608   0.00000  Uiso   1.00
O555   O     0.50001   0.87156   0.31608   0.00000  Uiso   1.00
O556   O     0.49999   0.79511   0.18393   0.00000  Uiso   1.00
Zn557  Zn    0.50000   0.88437   0.25000   0.00000  Uiso   1.00
Zn558  Zn    0.50000   0.78229   0.25000   0.00000  Uiso   1.00
C559   C     0.57768   0.82259   0.38023   0.00000  Uiso   1.00
H560   H     0.57834   0.80209   0.35011   0.00000  Uiso   1.00
O561   O     0.60891   0.84389   0.39065   0.00000  Uiso   1.00
C562   C     0.42232   0.84413   0.11977   0.00000  Uiso   1.00
H563   H     0.42167   0.86461   0.14990   0.00000  Uiso   1.00
O564   O     0.39109   0.82284   0.10934   0.00000  Uiso   1.00
N565   N     0.42457   0.84855   0.38201   0.00000  Uiso   1.00
H566   H     0.42714   0.86908   0.35433   0.00000  Uiso   1.00
C567   C     0.40063   0.80797   0.37323   0.00000  Uiso   1.00
H568   H     0.41803   0.78508   0.35046   0.00000  Uiso   1.00
H569   H     0.37051   0.81721   0.35710   0.00000  Uiso   1.00
H570   H     0.39377   0.78997   0.40494   0.00000  Uiso   1.00
N571   N     0.57542   0.81805   0.11798   0.00000  Uiso   1.00
H572   H     0.57284   0.79742   0.14559   0.00000  Uiso   1.00
C573   C     0.59937   0.85859   0.12690   0.00000  Uiso   1.00
H574   H     0.58212   0.88122   0.15008   0.00000  Uiso   1.00
H575   H     0.60591   0.87692   0.09529   0.00000  Uiso   1.00
H576   H     0.62964   0.84925   0.14266   0.00000  Uiso   1.00
C577   C     0.75332   0.83334   0.24998   0.00000  Uiso   1.00
C578   C     0.91334   0.83332   0.25002   0.00000  Uiso   1.00
C579   C     0.75899   0.85201   0.02228   0.00000  Uiso   1.00
C580   C     0.90769   0.81474   0.47772   0.00000  Uiso   1.00
C581   C     0.68799   0.79506   0.23459   0.00000  Uiso   1.00
C582   C     0.97867   0.87161   0.26541   0.00000  Uiso   1.00
C583   C     0.97857   0.79503   0.23465   0.00000  Uiso   1.00
C584   C     0.68810   0.87164   0.26534   0.00000  Uiso   1.00
C585   C     0.95748   0.83331   0.25005   0.00000  Uiso   1.00
C586   C     0.70919   0.83336   0.24994   0.00000  Uiso   1.00
C587   C     0.86033   0.69067   0.27673   0.00000  Uiso   1.00
C588   C     0.80634   0.97600   0.22327   0.00000  Uiso   1.00
C589   C     0.80634   0.69062   0.22327   0.00000  Uiso   1.00
C590   C     0.86033   0.97605   0.27673   0.00000  Uiso   1.00
C591   C     0.83346   0.83329   0.16369   0.00000  Uiso   1.00
C592   C     0.83321   0.83338   0.33631   0.00000  Uiso   1.00
C593   C     0.87166   0.82683   0.40648   0.00000  Uiso   1.00
C594   C     0.79501   0.83988   0.09352   0.00000  Uiso   1.00
C595   C     0.83361   0.83352   0.38390   0.00000  Uiso   1.00
C596   C     0.83305   0.83316   0.11610   0.00000  Uiso   1.00
C597   C     0.79590   0.84121   0.40625   0.00000  Uiso   1.00
C598   C     0.87077   0.82547   0.09375   0.00000  Uiso   1.00
C599   C     0.79602   0.84217   0.45283   0.00000  Uiso   1.00
C600   C     0.87065   0.82455   0.04717   0.00000  Uiso   1.00
C601   C     0.83354   0.83358   0.47651   0.00000  Uiso   1.00
C602   C     0.83314   0.83315   0.02349   0.00000  Uiso   1.00
C603   C     0.87140   0.82538   0.45337   0.00000  Uiso   1.00
C604   C     0.79527   0.84135   0.04663   0.00000  Uiso   1.00
C605   C     0.75930   0.85205   0.47612   0.00000  Uiso   1.00
C606   C     0.90738   0.81469   0.02388   0.00000  Uiso   1.00
H607   H     0.73048   0.86019   0.45883   0.00000  Uiso   1.00
H608   H     0.93620   0.80657   0.04117   0.00000  Uiso   1.00
H609   H     0.73004   0.86111   0.03838   0.00000  Uiso   1.00
H610   H     0.93664   0.80566   0.46162   0.00000  Uiso   1.00
H611   H     0.70438   0.76552   0.22220   0.00000  Uiso   1.00
H612   H     0.96229   0.90115   0.27779   0.00000  Uiso   1.00
H613   H     0.96210   0.76550   0.22227   0.00000  Uiso   1.00
H614   H     0.70457   0.90117   0.27772   0.00000  Uiso   1.00
H615   H     0.88191   0.70885   0.29811   0.00000  Uiso   1.00
H616   H     0.78476   0.95782   0.20189   0.00000  Uiso   1.00
H617   H     0.78475   0.70875   0.20190   0.00000  Uiso   1.00
H618   H     0.88192   0.95792   0.29810   0.00000  Uiso   1.00
N619   N     0.83333   0.95240   0.25000   0.00000  Uiso   1.00
N620   N     0.83333   0.71427   0.25000   0.00000  Uiso   1.00
O621   O     0.77226   0.87154   0.25000   0.00000  Uiso   1.00
O622   O     0.89441   0.79513   0.25001   0.00000  Uiso   1.00
O623   O     0.89441   0.87154   0.25001   0.00000  Uiso   1.00
O624   O     0.77226   0.79513   0.25000   0.00000  Uiso   1.00
O625   O     0.83333   0.87156   0.18393   0.00000  Uiso   1.00
O626   O     0.83334   0.79511   0.31608   0.00000  Uiso   1.00
O627   O     0.83334   0.87156   0.31608   0.00000  Uiso   1.00
O628   O     0.83333   0.79511   0.18393   0.00000  Uiso   1.00
Zn629  Zn    0.83333   0.88437   0.25000   0.00000  Uiso   1.00
Zn630  Zn    0.83333   0.78229   0.25000   0.00000  Uiso   1.00
C631   C     0.91102   0.82259   0.38023   0.00000  Uiso   1.00
H632   H     0.91167   0.80209   0.35011   0.00000  Uiso   1.00
O633   O     0.94224   0.84389   0.39065   0.00000  Uiso   1.00
C634   C     0.75565   0.84413   0.11977   0.00000  Uiso   1.00
H635   H     0.75500   0.86461   0.14990   0.00000  Uiso   1.00
O636   O     0.72442   0.82284   0.10934   0.00000  Uiso   1.00
N637   N     0.75790   0.84855   0.38201   0.00000  Uiso   1.00
H638   H     0.76048   0.86908   0.35433   0.00000  Uiso   1.00
C639   C     0.73396   0.80797   0.37323   0.00000  Uiso   1.00
H640   H     0.75137   0.78508   0.35046   0.00000  Uiso   1.00
H641   H     0.70384   0.81721   0.35710   0.00000  Uiso   1.00
H642   H     0.72711   0.78997   0.40494   0.00000  Uiso   1.00
N643   N     0.90876   0.81805   0.11798   0.00000  Uiso   1.00
H644   H     0.90618   0.79742   0.14559   0.00000  Uiso   1.00
C645   C     0.93271   0.85859   0.12690   0.00000  Uiso   1.00
H646   H     0.91545   0.88122   0.15008   0.00000  Uiso   1.00
H647   H     0.93925   0.87692   0.09529   0.00000  Uiso   1.00
H648   H     0.96298   0.84925   0.14266   0.00000  Uiso   1.00
C649   C     0.08666   0.16668   0.74998   0.00000  Uiso   1.00
C650   C     0.24668   0.16666   0.75002   0.00000  Uiso   1.00
C651   C     0.09232   0.18534   0.52228   0.00000  Uiso   1.00
C652   C     0.24102   0.14808   0.97772   0.00000  Uiso   1.00
C653   C     0.02133   0.12839   0.73459   0.00000  Uiso   1.00
C654   C     0.31201   0.20494   0.76541   0.00000  Uiso   1.00
C655   C     0.31190   0.12836   0.73465   0.00000  Uiso   1.00
C656   C     0.02143   0.20497   0.76534   0.00000  Uiso   1.00
C657   C     0.29081   0.16664   0.75005   0.00000  Uiso   1.00
C658   C     0.04252   0.16669   0.74994   0.00000  Uiso   1.00
C659   C     0.19366   0.02400   0.77673   0.00000  Uiso   1.00
C660   C     0.13967   0.30933   0.72327   0.00000  Uiso   1.00
C661   C     0.13967   0.02395   0.72327   0.00000  Uiso   1.00
C662   C     0.19366   0.30938   0.77673   0.00000  Uiso   1.00
C663   C     0.16679   0.16662   0.66369   0.00000  Uiso   1.00
C664   C     0.16654   0.16671   0.83631   0.00000  Uiso   1.00
C665   C     0.20499   0.16017   0.90648   0.00000  Uiso   1.00
C666   C     0.12835   0.17321   0.59352   0.00000  Uiso   1.00
C667   C     0.16695   0.16685   0.88390   0.00000  Uiso   1.00
C668   C     0.16639   0.16649   0.61610   0.00000  Uiso   1.00
C669   C     0.12923   0.17454   0.90625   0.00000  Uiso   1.00
C670   C     0.20410   0.15880   0.59375   0.00000  Uiso   1.00
C671   C     0.12935   0.17550   0.95283   0.00000  Uiso   1.00
C672   C     0.20398   0.15788   0.54717   0.00000  Uiso   1.00
C673   C     0.16687   0.16691   0.97651   0.00000  Uiso   1.00
C674   C     0.16647   0.16648   0.52349   0.00000  Uiso   1.00
C675   C     0.20474   0.15872   0.95337   0.00000  Uiso   1.00
C676   C     0.12860   0.17468   0.54663   0.00000  Uiso   1.00
C677   C     0.09263   0.18539   0.97612   0.00000  Uiso   1.00
C678   C     0.24071   0.14803   0.52388   0.00000  Uiso   1.00
H679   H     0.06381   0.19352   0.95883   0.00000  Uiso   1.00
H680   H     0.26954   0.13990   0.54117   0.00000  Uiso   1.00
H681   H     0.06337   0.19444   0.53838   0.00000  Uiso   1.00
H682   H     0.26997   0.13899   0.96162   0.00000  Uiso   1.00
H683   H     0.03772   0.09886   0.72220   0.00000  Uiso   1.00
H684   H     0.29562   0.23448   0.77779   0.00000  Uiso   1.00
H685   H     0.29543   0.09883   0.72227   0.00000  Uiso   1.00
H686   H     0.03790   0.23450   0.77772   0.00000  Uiso   1.00
H687   H     0.21524   0.04218   0.79811   0.00000  Uiso   1.00
H688   H     0.11809   0.29115   0.70189   0.00000  Uiso   1.00
H689   H     0.11808   0.04208   0.70190   0.00000  Uiso   1.00
H690   H     0.21525   0.29125   0.79810   0.00000  Uiso   1.00
N691   N     0.16667   0.28573   0.75000   0.00000  Uiso   1.00
N692   N     0.16667   0.04760   0.75000   0.00000  Uiso   1.00
O693   O     0.10559   0.20487   0.75000   0.00000  Uiso   1.00
O694   O     0.22774   0.12846   0.75001   0.00000  Uiso   1.00
O695   O     0.22774   0.20487   0.75001   0.00000  Uiso   1.00
O696   O     0.10559   0.12846   0.75000   0.00000  Uiso   1.00
O697   O     0.16666   0.20489   0.68393   0.00000  Uiso   1.00
O698   O     0.16667   0.12844   0.81608   0.00000  Uiso   1.00
O699   O     0.16667   0.20489   0.81608   0.00000  Uiso   1.00
O700   O     0.16666   0.12844   0.68393   0.00000  Uiso   1.00
Zn701  Zn    0.16667   0.21771   0.75000   0.00000  Uiso   1.00
Zn702  Zn    0.16667   0.11563   0.75000   0.00000  Uiso   1.00
C703   C     0.24435   0.15592   0.88023   0.00000  Uiso   1.00
H704   H     0.24501   0.13542   0.85011   0.00000  Uiso   1.00
O705   O     0.27558   0.17723   0.89065   0.00000  Uiso   1.00
C706   C     0.08899   0.17746   0.61977   0.00000  Uiso   1.00
H707   H     0.08834   0.19794   0.64990   0.00000  Uiso   1.00
O708   O     0.05775   0.15618   0.60934   0.00000  Uiso   1.00
N709   N     0.09124   0.18188   0.88201   0.00000  Uiso   1.00
H710   H     0.09381   0.20241   0.85433   0.00000  Uiso   1.00
C711   C     0.06729   0.14131   0.87323   0.00000  Uiso   1.00
H712   H     0.08470   0.11842   0.85046   0.00000  Uiso   1.00
H713   H     0.03718   0.15055   0.85710   0.00000  Uiso   1.00
H714   H     0.06044   0.12330   0.90494   0.00000  Uiso   1.00
N715   N     0.24209   0.15138   0.61798   0.00000  Uiso   1.00
H716   H     0.23951   0.13075   0.64559   0.00000  Uiso   1.00
C717   C     0.26604   0.19192   0.62690   0.00000  Uiso   1.00
H718   H     0.24879   0.21455   0.65008   0.00000  Uiso   1.00
H719   H     0.27258   0.21026   0.59529   0.00000  Uiso   1.00
H720   H     0.29631   0.18258   0.64266   0.00000  Uiso   1.00
C721   C     0.41999   0.16668   0.74998   0.00000  Uiso   1.00
C722   C     0.58001   0.16666   0.75002   0.00000  Uiso   1.00
C723   C     0.42565   0.18534   0.52228   0.00000  Uiso   1.00
C724   C     0.57436   0.14808   0.97772   0.00000  Uiso   1.00
C725   C     0.35466   0.12839   0.73459   0.00000  Uiso   1.00
C726   C     0.64534   0.20494   0.76541   0.00000  Uiso   1.00
C727   C     0.64524   0.12836   0.73465   0.00000  Uiso   1.00
C728   C     0.35476   0.20497   0.76534   0.00000  Uiso   1.00
C729   C     0.62415   0.16664   0.75005   0.00000  Uiso   1.00
C730   C     0.37585   0.16669   0.74994   0.00000  Uiso   1.00
C731   C     0.52699   0.02400   0.77673   0.00000  Uiso   1.00
C732   C     0.47301   0.30933   0.72327   0.00000  Uiso   1.00
C733   C     0.47300   0.02395   0.72327   0.00000  Uiso   1.00
C734   C     0.52700   0.30938   0.77673   0.00000  Uiso   1.00
C735   C     0.50013   0.16662   0.66369   0.00000  Uiso   1.00
C736   C     0.49988   0.16671   0.83631   0.00000  Uiso   1.00
C737   C     0.53832   0.16017   0.90648   0.00000  Uiso   1.00
C738   C     0.46168   0.17321   0.59352   0.00000  Uiso   1.00
C739   C     0.50028   0.16685   0.88390   0.00000  Uiso   1.00
C740   C     0.49972   0.16649   0.61610   0.00000  Uiso   1.00
C741   C     0.46257   0.17454   0.90625   0.00000  Uiso   1.00
C742   C     0.53743   0.15880   0.59375   0.00000  Uiso   1.00
C743   C     0.46269   0.17550   0.95283   0.00000  Uiso   1.00
C744   C     0.53732   0.15788   0.54717   0.00000  Uiso   1.00
C745   C     0.50020   0.16691   0.97651   0.00000  Uiso   1.00
C746   C     0.49980   0.16648   0.52349   0.00000  Uiso   1.00
C747   C     0.53807   0.15872   0.95337   0.00000  Uiso   1.00
C748   C     0.46194   0.17468   0.54663   0.00000  Uiso   1.00
C749   C     0.42597   0.18539   0.97612   0.00000  Uiso   1.00
C750   C     0.57404   0.14803   0.52388   0.00000  Uiso   1.00
H751   H     0.39714   0.19352   0.95883   0.00000  Uiso   1.00
H752   H     0.60287   0.13990   0.54117   0.00000  Uiso   1.00
H753   H     0.39671   0.19444   0.53838   0.00000  Uiso   1.00
H754   H     0.60331   0.13899   0.96162   0.00000  Uiso   1.00
H755   H     0.37105   0.09886   0.72220   0.00000  Uiso   1.00
H756   H     0.62895   0.23448   0.77779   0.00000  Uiso   1.00
H757   H     0.62876   0.09883   0.72227   0.00000  Uiso   1.00
H758   H     0.37124   0.23450   0.77772   0.00000  Uiso   1.00
H759   H     0.54858   0.04218   0.79811   0.00000  Uiso   1.00
H760   H     0.45142   0.29115   0.70189   0.00000  Uiso   1.00
H761   H     0.45141   0.04208   0.70190   0.00000  Uiso   1.00
H762   H     0.54859   0.29125   0.79810   0.00000  Uiso   1.00
N763   N     0.50000   0.28573   0.75000   0.00000  Uiso   1.00
N764   N     0.50000   0.04760   0.75000   0.00000  Uiso   1.00
O765   O     0.43892   0.20487   0.75000   0.00000  Uiso   1.00
O766   O     0.56108   0.12846   0.75001   0.00000  Uiso   1.00
O767   O     0.56108   0.20487   0.75001   0.00000  Uiso   1.00
O768   O     0.43892   0.12846   0.75000   0.00000  Uiso   1.00
O769   O     0.49999   0.20489   0.68393   0.00000  Uiso   1.00
O770   O     0.50001   0.12844   0.81608   0.00000  Uiso   1.00
O771   O     0.50001   0.20489   0.81608   0.00000  Uiso   1.00
O772   O     0.49999   0.12844   0.68393   0.00000  Uiso   1.00
Zn773  Zn    0.50000   0.21771   0.75000   0.00000  Uiso   1.00
Zn774  Zn    0.50000   0.11563   0.75000   0.00000  Uiso   1.00
C775   C     0.57768   0.15592   0.88023   0.00000  Uiso   1.00
H776   H     0.57834   0.13542   0.85011   0.00000  Uiso   1.00
O777   O     0.60891   0.17723   0.89065   0.00000  Uiso   1.00
C778   C     0.42232   0.17746   0.61977   0.00000  Uiso   1.00
H779   H     0.42167   0.19794   0.64990   0.00000  Uiso   1.00
O780   O     0.39109   0.15618   0.60934   0.00000  Uiso   1.00
N781   N     0.42457   0.18188   0.88201   0.00000  Uiso   1.00
H782   H     0.42714   0.20241   0.85433   0.00000  Uiso   1.00
C783   C     0.40063   0.14131   0.87323   0.00000  Uiso   1.00
H784   H     0.41803   0.11842   0.85046   0.00000  Uiso   1.00
H785   H     0.37051   0.15055   0.85710   0.00000  Uiso   1.00
H786   H     0.39377   0.12330   0.90494   0.00000  Uiso   1.00
N787   N     0.57542   0.15138   0.61798   0.00000  Uiso   1.00
H788   H     0.57284   0.13075   0.64559   0.00000  Uiso   1.00
C789   C     0.59937   0.19192   0.62690   0.00000  Uiso   1.00
H790   H     0.58212   0.21455   0.65008   0.00000  Uiso   1.00
H791   H     0.60591   0.21026   0.59529   0.00000  Uiso   1.00
H792   H     0.62964   0.18258   0.64266   0.00000  Uiso   1.00
C793   C     0.75332   0.16668   0.74998   0.00000  Uiso   1.00
C794   C     0.91334   0.16666   0.75002   0.00000  Uiso   1.00
C795   C     0.75899   0.18534   0.52228   0.00000  Uiso   1.00
C796   C     0.90769   0.14808   0.97772   0.00000  Uiso   1.00
C797   C     0.68799   0.12839   0.73459   0.00000  Uiso   1.00
C798   C     0.97867   0.20494   0.76541   0.00000  Uiso   1.00
C799   C     0.97857   0.12836   0.73465   0.00000  Uiso   1.00
C800   C     0.68810   0.20497   0.76534   0.00000  Uiso   1.00
C801   C     0.95748   0.16664   0.75005   0.00000  Uiso   1.00
C802   C     0.70919   0.16669   0.74994   0.00000  Uiso   1.00
C803   C     0.86033   0.02400   0.77673   0.00000  Uiso   1.00
C804   C     0.80634   0.30933   0.72327   0.00000  Uiso   1.00
C805   C     0.80634   0.02395   0.72327   0.00000  Uiso   1.00
C806   C     0.86033   0.30938   0.77673   0.00000  Uiso   1.00
C807   C     0.83346   0.16662   0.66369   0.00000  Uiso   1.00
C808   C     0.83321   0.16671   0.83631   0.00000  Uiso   1.00
C809   C     0.87166   0.16017   0.90648   0.00000  Uiso   1.00
C810   C     0.79501   0.17321   0.59352   0.00000  Uiso   1.00
C811   C     0.83361   0.16685   0.88390   0.00000  Uiso   1.00
C812   C     0.83305   0.16649   0.61610   0.00000  Uiso   1.00
C813   C     0.79590   0.17454   0.90625   0.00000  Uiso   1.00
C814   C     0.87077   0.15880   0.59375   0.00000  Uiso   1.00
C815   C     0.79602   0.17550   0.95283   0.00000  Uiso   1.00
C816   C     0.87065   0.15788   0.54717   0.00000  Uiso   1.00
C817   C     0.83354   0.16691   0.97651   0.00000  Uiso   1.00
C818   C     0.83314   0.16648   0.52349   0.00000  Uiso   1.00
C819   C     0.87140   0.15872   0.95337   0.00000  Uiso   1.00
C820   C     0.79527   0.17468   0.54663   0.00000  Uiso   1.00
C821   C     0.75930   0.18539   0.97612   0.00000  Uiso   1.00
C822   C     0.90738   0.14803   0.52388   0.00000  Uiso   1.00
H823   H     0.73048   0.19352   0.95883   0.00000  Uiso   1.00
H824   H     0.93620   0.13990   0.54117   0.00000  Uiso   1.00
H825   H     0.73004   0.19444   0.53838   0.00000  Uiso   1.00
H826   H     0.93664   0.13899   0.96162   0.00000  Uiso   1.00
H827   H     0.70438   0.09886   0.72220   0.00000  Uiso   1.00
H828   H     0.96229   0.23448   0.77779   0.00000  Uiso   1.00
H829   H     0.96210   0.09883   0.72227   0.00000  Uiso   1.00
H830   H     0.70457   0.23450   0.77772   0.00000  Uiso   1.00
H831   H     0.88191   0.04218   0.79811   0.00000  Uiso   1.00
H832   H     0.78476   0.29115   0.70189   0.00000  Uiso   1.00
H833   H     0.78475   0.04208   0.70190   0.00000  Uiso   1.00
H834   H     0.88192   0.29125   0.79810   0.00000  Uiso   1.00
N835   N     0.83333   0.28573   0.75000   0.00000  Uiso   1.00
N836   N     0.83333   0.04760   0.75000   0.00000  Uiso   1.00
O837   O     0.77226   0.20487   0.75000   0.00000  Uiso   1.00
O838   O     0.89441   0.12846   0.75001   0.00000  Uiso   1.00
O839   O     0.89441   0.20487   0.75001   0.00000  Uiso   1.00
O840   O     0.77226   0.12846   0.75000   0.00000  Uiso   1.00
O841   O     0.83333   0.20489   0.68393   0.00000  Uiso   1.00
O842   O     0.83334   0.12844   0.81608   0.00000  Uiso   1.00
O843   O     0.83334   0.20489   0.81608   0.00000  Uiso   1.00
O844   O     0.83333   0.12844   0.68393   0.00000  Uiso   1.00
Zn845  Zn    0.83333   0.21771   0.75000   0.00000  Uiso   1.00
Zn846  Zn    0.83333   0.11563   0.75000   0.00000  Uiso   1.00
C847   C     0.91102   0.15592   0.88023   0.00000  Uiso   1.00
H848   H     0.91167   0.13542   0.85011   0.00000  Uiso   1.00
O849   O     0.94224   0.17723   0.89065   0.00000  Uiso   1.00
C850   C     0.75565   0.17746   0.61977   0.00000  Uiso   1.00
H851   H     0.75500   0.19794   0.64990   0.00000  Uiso   1.00
O852   O     0.72442   0.15618   0.60934   0.00000  Uiso   1.00
N853   N     0.75790   0.18188   0.88201   0.00000  Uiso   1.00
H854   H     0.76048   0.20241   0.85433   0.00000  Uiso   1.00
C855   C     0.73396   0.14131   0.87323   0.00000  Uiso   1.00
H856   H     0.75137   0.11842   0.85046   0.00000  Uiso   1.00
H857   H     0.70384   0.15055   0.85710   0.00000  Uiso   1.00
H858   H     0.72711   0.12330   0.90494   0.00000  Uiso   1.00
N859   N     0.90876   0.15138   0.61798   0.00000  Uiso   1.00
H860   H     0.90618   0.13075   0.64559   0.00000  Uiso   1.00
C861   C     0.93271   0.19192   0.62690   0.00000  Uiso   1.00
H862   H     0.91545   0.21455   0.65008   0.00000  Uiso   1.00
H863   H     0.93925   0.21026   0.59529   0.00000  Uiso   1.00
H864   H     0.96298   0.18258   0.64266   0.00000  Uiso   1.00
C865   C     0.08666   0.50001   0.74998   0.00000  Uiso   1.00
C866   C     0.24668   0.49999   0.75002   0.00000  Uiso   1.00
C867   C     0.09232   0.51868   0.52228   0.00000  Uiso   1.00
C868   C     0.24102   0.48141   0.97772   0.00000  Uiso   1.00
C869   C     0.02133   0.46172   0.73459   0.00000  Uiso   1.00
C870   C     0.31201   0.53828   0.76541   0.00000  Uiso   1.00
C871   C     0.31190   0.46170   0.73465   0.00000  Uiso   1.00
C872   C     0.02143   0.53830   0.76534   0.00000  Uiso   1.00
C873   C     0.29081   0.49998   0.75005   0.00000  Uiso   1.00
C874   C     0.04252   0.50002   0.74994   0.00000  Uiso   1.00
C875   C     0.19366   0.35733   0.77673   0.00000  Uiso   1.00
C876   C     0.13967   0.64267   0.72327   0.00000  Uiso   1.00
C877   C     0.13967   0.35728   0.72327   0.00000  Uiso   1.00
C878   C     0.19366   0.64272   0.77673   0.00000  Uiso   1.00
C879   C     0.16679   0.49996   0.66369   0.00000  Uiso   1.00
C880   C     0.16654   0.50004   0.83631   0.00000  Uiso   1.00
C881   C     0.20499   0.49350   0.90648   0.00000  Uiso   1.00
C882   C     0.12835   0.50654   0.59352   0.00000  Uiso   1.00
C883   C     0.16695   0.50018   0.88390   0.00000  Uiso   1.00
C884   C     0.16639   0.49983   0.61610   0.00000  Uiso   1.00
C885   C     0.12923   0.50787   0.90625   0.00000  Uiso   1.00
C886   C     0.20410   0.49213   0.59375   0.00000  Uiso   1.00
C887   C     0.12935   0.50884   0.95283   0.00000  Uiso   1.00
C888   C     0.20398   0.49121   0.54717   0.00000  Uiso   1.00
C889   C     0.16687   0.50025   0.97651   0.00000  Uiso   1.00
C890   C     0.16647   0.49982   0.52349   0.00000  Uiso   1.00
C891   C     0.20474   0.49205   0.95337   0.00000  Uiso   1.00
C892   C     0.12860   0.50801   0.54663   0.00000  Uiso   1.00
C893   C     0.09263   0.51872   0.97612   0.00000  Uiso   1.00
C894   C     0.24071   0.48136   0.52388   0.00000  Uiso   1.00
H895   H     0.06381   0.52686   0.95883   0.00000  Uiso   1.00
H896   H     0.26954   0.47323   0.54117   0.00000  Uiso   1.00
H897   H     0.06337   0.52777   0.53838   0.00000  Uiso   1.00
H898   H     0.26997   0.47233   0.96162   0.00000  Uiso   1.00
H899   H     0.03772   0.43219   0.72220   0.00000  Uiso   1.00
H900   H     0.29562   0.56781   0.77779   0.00000  Uiso   1.00
H901   H     0.29543   0.43216   0.72227   0.00000  Uiso   1.00
H902   H     0.03790   0.56784   0.77772   0.00000  Uiso   1.00
H903   H     0.21524   0.37551   0.79811   0.00000  Uiso   1.00
H904   H     0.11809   0.62449   0.70189   0.00000  Uiso   1.00
H905   H     0.11808   0.37542   0.70190   0.00000  Uiso   1.00
H906   H     0.21525   0.62458   0.79810   0.00000  Uiso   1.00
N907   N     0.16667   0.61907   0.75000   0.00000  Uiso   1.00
N908   N     0.16667   0.38093   0.75000   0.00000  Uiso   1.00
O909   O     0.10559   0.53821   0.75000   0.00000  Uiso   1.00
O910   O     0.22774   0.46179   0.75001   0.00000  Uiso   1.00
O911   O     0.22774   0.53821   0.75001   0.00000  Uiso   1.00
O912   O     0.10559   0.46179   0.75000   0.00000  Uiso   1.00
O913   O     0.16666   0.53823   0.68393   0.00000  Uiso   1.00
O914   O     0.16667   0.46177   0.81608   0.00000  Uiso   1.00
O915   O     0.16667   0.53823   0.81608   0.00000  Uiso   1.00
O916   O     0.16666   0.46177   0.68393   0.00000  Uiso   1.00
Zn917  Zn    0.16667   0.55104   0.75000   0.00000  Uiso   1.00
Zn918  Zn    0.16667   0.44896   0.75000   0.00000  Uiso   1.00
C919   C     0.24435   0.48925   0.88023   0.00000  Uiso   1.00
H920   H     0.24501   0.46876   0.85011   0.00000  Uiso   1.00
O921   O     0.27558   0.51056   0.89065   0.00000  Uiso   1.00
C922   C     0.08899   0.51079   0.61977   0.00000  Uiso   1.00
H923   H     0.08834   0.53127   0.64990   0.00000  Uiso   1.00
O924   O     0.05775   0.48951   0.60934   0.00000  Uiso   1.00
N925   N     0.09124   0.51521   0.88201   0.00000  Uiso   1.00
H926   H     0.09381   0.53574   0.85433   0.00000  Uiso   1.00
C927   C     0.06729   0.47464   0.87323   0.00000  Uiso   1.00
H928   H     0.08470   0.45175   0.85046   0.00000  Uiso   1.00
H929   H     0.03718   0.48388   0.85710   0.00000  Uiso   1.00
H930   H     0.06044   0.45664   0.90494   0.00000  Uiso   1.00
N931   N     0.24209   0.48471   0.61798   0.00000  Uiso   1.00
H932   H     0.23951   0.46409   0.64559   0.00000  Uiso   1.00
C933   C     0.26604   0.52525   0.62690   0.00000  Uiso   1.00
H934   H     0.24879   0.54789   0.65008   0.00000  Uiso   1.00
H935   H     0.27258   0.54359   0.59529   0.00000  Uiso   1.00
H936   H     0.29631   0.51592   0.64266   0.00000  Uiso   1.00
C937   C     0.41999   0.50001   0.74998   0.00000  Uiso   1.00
C938   C     0.58001   0.49999   0.75002   0.00000  Uiso   1.00
C939   C     0.42565   0.51868   0.52228   0.00000  Uiso   1.00
C940   C     0.57436   0.48141   0.97772   0.00000  Uiso   1.00
C941   C     0.35466   0.46172   0.73459   0.00000  Uiso   1.00
C942   C     0.64534   0.53828   0.76541   0.00000  Uiso   1.00
C943   C     0.64524   0.46170   0.73465   0.00000  Uiso   1.00
C944   C     0.35476   0.53830   0.76534   0.00000  Uiso   1.00
C945   C     0.62415   0.49998   0.75005   0.00000  Uiso   1.00
C946   C     0.37585   0.50002   0.74994   0.00000  Uiso   1.00
C947   C     0.52699   0.35733   0.77673   0.00000  Uiso   1.00
C948   C     0.47301   0.64267   0.72327   0.00000  Uiso   1.00
C949   C     0.47300   0.35728   0.72327   0.00000  Uiso   1.00
C950   C     0.52700   0.64272   0.77673   0.00000  Uiso   1.00
C951   C     0.50013   0.49996   0.66369   0.00000  Uiso   1.00
C952   C     0.49988   0.50004   0.83631   0.00000  Uiso   1.00
C953   C     0.53832   0.49350   0.90648   0.00000  Uiso   1.00
C954   C     0.46168   0.50654   0.59352   0.00000  Uiso   1.00
C955   C     0.50028   0.50018   0.88390   0.00000  Uiso   1.00
C956   C     0.49972   0.49983   0.61610   0.00000  Uiso   1.00
C957   C     0.46257   0.50787   0.90625   0.00000  Uiso   1.00
C958   C     0.53743   0.49213   0.59375   0.00000  Uiso   1.00
C959   C     0.46269   0.50884   0.95283   0.00000  Uiso   1.00
C960   C     0.53732   0.49121   0.54717   0.00000  Uiso   1.00
C961   C     0.50020   0.50025   0.97651   0.00000  Uiso   1.00
C962   C     0.49980   0.49982   0.52349   0.00000  Uiso   1.00
C963   C     0.53807   0.49205   0.95337   0.00000  Uiso   1.00
C964   C     0.46194   0.50801   0.54663   0.00000  Uiso   1.00
C965   C     0.42597   0.51872   0.97612   0.00000  Uiso   1.00
C966   C     0.57404   0.48136   0.52388   0.00000  Uiso   1.00
H967   H     0.39714   0.52686   0.95883   0.00000  Uiso   1.00
H968   H     0.60287   0.47323   0.54117   0.00000  Uiso   1.00
H969   H     0.39671   0.52777   0.53838   0.00000  Uiso   1.00
H970   H     0.60331   0.47233   0.96162   0.00000  Uiso   1.00
H971   H     0.37105   0.43219   0.72220   0.00000  Uiso   1.00
H972   H     0.62895   0.56781   0.77779   0.00000  Uiso   1.00
H973   H     0.62876   0.43216   0.72227   0.00000  Uiso   1.00
H974   H     0.37124   0.56784   0.77772   0.00000  Uiso   1.00
H975   H     0.54858   0.37551   0.79811   0.00000  Uiso   1.00
H976   H     0.45142   0.62449   0.70189   0.00000  Uiso   1.00
H977   H     0.45141   0.37542   0.70190   0.00000  Uiso   1.00
H978   H     0.54859   0.62458   0.79810   0.00000  Uiso   1.00
N979   N     0.50000   0.61907   0.75000   0.00000  Uiso   1.00
N980   N     0.50000   0.38093   0.75000   0.00000  Uiso   1.00
O981   O     0.43892   0.53821   0.75000   0.00000  Uiso   1.00
O982   O     0.56108   0.46179   0.75001   0.00000  Uiso   1.00
O983   O     0.56108   0.53821   0.75001   0.00000  Uiso   1.00
O984   O     0.43892   0.46179   0.75000   0.00000  Uiso   1.00
O985   O     0.49999   0.53823   0.68393   0.00000  Uiso   1.00
O986   O     0.50001   0.46177   0.81608   0.00000  Uiso   1.00
O987   O     0.50001   0.53823   0.81608   0.00000  Uiso   1.00
O988   O     0.49999   0.46177   0.68393   0.00000  Uiso   1.00
Zn989  Zn    0.50000   0.55104   0.75000   0.00000  Uiso   1.00
Zn990  Zn    0.50000   0.44896   0.75000   0.00000  Uiso   1.00
C991   C     0.57768   0.48925   0.88023   0.00000  Uiso   1.00
H992   H     0.57834   0.46876   0.85011   0.00000  Uiso   1.00
O993   O     0.60891   0.51056   0.89065   0.00000  Uiso   1.00
C994   C     0.42232   0.51079   0.61977   0.00000  Uiso   1.00
H995   H     0.42167   0.53127   0.64990   0.00000  Uiso   1.00
O996   O     0.39109   0.48951   0.60934   0.00000  Uiso   1.00
N997   N     0.42457   0.51521   0.88201   0.00000  Uiso   1.00
H998   H     0.42714   0.53574   0.85433   0.00000  Uiso   1.00
C999   C     0.40063   0.47464   0.87323   0.00000  Uiso   1.00
H1000  H     0.41803   0.45175   0.85046   0.00000  Uiso   1.00
H1001  H     0.37051   0.48388   0.85710   0.00000  Uiso   1.00
H1002  H     0.39377   0.45664   0.90494   0.00000  Uiso   1.00
N1003  N     0.57542   0.48471   0.61798   0.00000  Uiso   1.00
H1004  H     0.57284   0.46409   0.64559   0.00000  Uiso   1.00
C1005  C     0.59937   0.52525   0.62690   0.00000  Uiso   1.00
H1006  H     0.58212   0.54789   0.65008   0.00000  Uiso   1.00
H1007  H     0.60591   0.54359   0.59529   0.00000  Uiso   1.00
H1008  H     0.62964   0.51592   0.64266   0.00000  Uiso   1.00
C1009  C     0.75332   0.50001   0.74998   0.00000  Uiso   1.00
C1010  C     0.91334   0.49999   0.75002   0.00000  Uiso   1.00
C1011  C     0.75899   0.51868   0.52228   0.00000  Uiso   1.00
C1012  C     0.90769   0.48141   0.97772   0.00000  Uiso   1.00
C1013  C     0.68799   0.46172   0.73459   0.00000  Uiso   1.00
C1014  C     0.97867   0.53828   0.76541   0.00000  Uiso   1.00
C1015  C     0.97857   0.46170   0.73465   0.00000  Uiso   1.00
C1016  C     0.68810   0.53830   0.76534   0.00000  Uiso   1.00
C1017  C     0.95748   0.49998   0.75005   0.00000  Uiso   1.00
C1018  C     0.70919   0.50002   0.74994   0.00000  Uiso   1.00
C1019  C     0.86033   0.35733   0.77673   0.00000  Uiso   1.00
C1020  C     0.80634   0.64267   0.72327   0.00000  Uiso   1.00
C1021  C     0.80634   0.35728   0.72327   0.00000  Uiso   1.00
C1022  C     0.86033   0.64272   0.77673   0.00000  Uiso   1.00
C1023  C     0.83346   0.49996   0.66369   0.00000  Uiso   1.00
C1024  C     0.83321   0.50004   0.83631   0.00000  Uiso   1.00
C1025  C     0.87166   0.49350   0.90648   0.00000  Uiso   1.00
C1026  C     0.79501   0.50654   0.59352   0.00000  Uiso   1.00
C1027  C     0.83361   0.50018   0.88390   0.00000  Uiso   1.00
C1028  C     0.83305   0.49983   0.61610   0.00000  Uiso   1.00
C1029  C     0.79590   0.50787   0.90625   0.00000  Uiso   1.00
C1030  C     0.87077   0.49213   0.59375   0.00000  Uiso   1.00
C1031  C     0.79602   0.50884   0.95283   0.00000  Uiso   1.00
C1032  C     0.87065   0.49121   0.54717   0.00000  Uiso   1.00
C1033  C     0.83354   0.50025   0.97651   0.00000  Uiso   1.00
C1034  C     0.83314   0.49982   0.52349   0.00000  Uiso   1.00
C1035  C     0.87140   0.49205   0.95337   0.00000  Uiso   1.00
C1036  C     0.79527   0.50801   0.54663   0.00000  Uiso   1.00
C1037  C     0.75930   0.51872   0.97612   0.00000  Uiso   1.00
C1038  C     0.90738   0.48136   0.52388   0.00000  Uiso   1.00
H1039  H     0.73048   0.52686   0.95883   0.00000  Uiso   1.00
H1040  H     0.93620   0.47323   0.54117   0.00000  Uiso   1.00
H1041  H     0.73004   0.52777   0.53838   0.00000  Uiso   1.00
H1042  H     0.93664   0.47233   0.96162   0.00000  Uiso   1.00
H1043  H     0.70438   0.43219   0.72220   0.00000  Uiso   1.00
H1044  H     0.96229   0.56781   0.77779   0.00000  Uiso   1.00
H1045  H     0.96210   0.43216   0.72227   0.00000  Uiso   1.00
H1046  H     0.70457   0.56784   0.77772   0.00000  Uiso   1.00
H1047  H     0.88191   0.37551   0.79811   0.00000  Uiso   1.00
H1048  H     0.78476   0.62449   0.70189   0.00000  Uiso   1.00
H1049  H     0.78475   0.37542   0.70190   0.00000  Uiso   1.00
H1050  H     0.88192   0.62458   0.79810   0.00000  Uiso   1.00
N1051  N     0.83333   0.61907   0.75000   0.00000  Uiso   1.00
N1052  N     0.83333   0.38093   0.75000   0.00000  Uiso   1.00
O1053  O     0.77226   0.53821   0.75000   0.00000  Uiso   1.00
O1054  O     0.89441   0.46179   0.75001   0.00000  Uiso   1.00
O1055  O     0.89441   0.53821   0.75001   0.00000  Uiso   1.00
O1056  O     0.77226   0.46179   0.75000   0.00000  Uiso   1.00
O1057  O     0.83333   0.53823   0.68393   0.00000  Uiso   1.00
O1058  O     0.83334   0.46177   0.81608   0.00000  Uiso   1.00
O1059  O     0.83334   0.53823   0.81608   0.00000  Uiso   1.00
O1060  O     0.83333   0.46177   0.68393   0.00000  Uiso   1.00
Zn1061 Zn    0.83333   0.55104   0.75000   0.00000  Uiso   1.00
Zn1062 Zn    0.83333   0.44896   0.75000   0.00000  Uiso   1.00
C1063  C     0.91102   0.48925   0.88023   0.00000  Uiso   1.00
H1064  H     0.91167   0.46876   0.85011   0.00000  Uiso   1.00
O1065  O     0.94224   0.51056   0.89065   0.00000  Uiso   1.00
C1066  C     0.75565   0.51079   0.61977   0.00000  Uiso   1.00
H1067  H     0.75500   0.53127   0.64990   0.00000  Uiso   1.00
O1068  O     0.72442   0.48951   0.60934   0.00000  Uiso   1.00
N1069  N     0.75790   0.51521   0.88201   0.00000  Uiso   1.00
H1070  H     0.76048   0.53574   0.85433   0.00000  Uiso   1.00
C1071  C     0.73396   0.47464   0.87323   0.00000  Uiso   1.00
H1072  H     0.75137   0.45175   0.85046   0.00000  Uiso   1.00
H1073  H     0.70384   0.48388   0.85710   0.00000  Uiso   1.00
H1074  H     0.72711   0.45664   0.90494   0.00000  Uiso   1.00
N1075  N     0.90876   0.48471   0.61798   0.00000  Uiso   1.00
H1076  H     0.90618   0.46409   0.64559   0.00000  Uiso   1.00
C1077  C     0.93271   0.52525   0.62690   0.00000  Uiso   1.00
H1078  H     0.91545   0.54789   0.65008   0.00000  Uiso   1.00
H1079  H     0.93925   0.54359   0.59529   0.00000  Uiso   1.00
H1080  H     0.96298   0.51592   0.64266   0.00000  Uiso   1.00
C1081  C     0.08666   0.83334   0.74998   0.00000  Uiso   1.00
C1082  C     0.24668   0.83332   0.75002   0.00000  Uiso   1.00
C1083  C     0.09232   0.85201   0.52228   0.00000  Uiso   1.00
C1084  C     0.24102   0.81474   0.97772   0.00000  Uiso   1.00
C1085  C     0.02133   0.79506   0.73459   0.00000  Uiso   1.00
C1086  C     0.31201   0.87161   0.76541   0.00000  Uiso   1.00
C1087  C     0.31190   0.79503   0.73465   0.00000  Uiso   1.00
C1088  C     0.02143   0.87164   0.76534   0.00000  Uiso   1.00
C1089  C     0.29081   0.83331   0.75005   0.00000  Uiso   1.00
C1090  C     0.04252   0.83336   0.74994   0.00000  Uiso   1.00
C1091  C     0.19366   0.69067   0.77673   0.00000  Uiso   1.00
C1092  C     0.13967   0.97600   0.72327   0.00000  Uiso   1.00
C1093  C     0.13967   0.69062   0.72327   0.00000  Uiso   1.00
C1094  C     0.19366   0.97605   0.77673   0.00000  Uiso   1.00
C1095  C     0.16679   0.83329   0.66369   0.00000  Uiso   1.00
C1096  C     0.16654   0.83338   0.83631   0.00000  Uiso   1.00
C1097  C     0.20499   0.82683   0.90648   0.00000  Uiso   1.00
C1098  C     0.12835   0.83988   0.59352   0.00000  Uiso   1.00
C1099  C     0.16695   0.83352   0.88390   0.00000  Uiso   1.00
C1100  C     0.16639   0.83316   0.61610   0.00000  Uiso   1.00
C1101  C     0.12923   0.84121   0.90625   0.00000  Uiso   1.00
C1102  C     0.20410   0.82547   0.59375   0.00000  Uiso   1.00
C1103  C     0.12935   0.84217   0.95283   0.00000  Uiso   1.00
C1104  C     0.20398   0.82455   0.54717   0.00000  Uiso   1.00
C1105  C     0.16687   0.83358   0.97651   0.00000  Uiso   1.00
C1106  C     0.16647   0.83315   0.52349   0.00000  Uiso   1.00
C1107  C     0.20474   0.82538   0.95337   0.00000  Uiso   1.00
C1108  C     0.12860   0.84135   0.54663   0.00000  Uiso   1.00
C1109  C     0.09263   0.85205   0.97612   0.00000  Uiso   1.00
C1110  C     0.24071   0.81469   0.52388   0.00000  Uiso   1.00
H1111  H     0.06381   0.86019   0.95883   0.00000  Uiso   1.00
H1112  H     0.26954   0.80657   0.54117   0.00000  Uiso   1.00
H1113  H     0.06337   0.86111   0.53838   0.00000  Uiso   1.00
H1114  H     0.26997   0.80566   0.96162   0.00000  Uiso   1.00
H1115  H     0.03772   0.76552   0.72220   0.00000  Uiso   1.00
H1116  H     0.29562   0.90115   0.77779   0.00000  Uiso   1.00
H1117  H     0.29543   0.76550   0.72227   0.00000  Uiso   1.00
H1118  H     0.03790   0.90117   0.77772   0.00000  Uiso   1.00
H1119  H     0.21524   0.70885   0.79811   0.00000  Uiso   1.00
H1120  H     0.11809   0.95782   0.70189   0.00000  Uiso   1.00
H1121  H     0.11808   0.70875   0.70190   0.00000  Uiso   1.00
H1122  H     0.21525   0.95792   0.79810   0.00000  Uiso   1.00
N1123  N     0.16667   0.95240   0.75000   0.00000  Uiso   1.00
N1124  N     0.16667   0.71427   0.75000   0.00000  Uiso   1.00
O1125  O     0.10559   0.87154   0.75000   0.00000  Uiso   1.00
O1126  O     0.22774   0.79513   0.75001   0.00000  Uiso   1.00
O1127  O     0.22774   0.87154   0.75001   0.00000  Uiso   1.00
O1128  O     0.10559   0.79513   0.75000   0.00000  Uiso   1.00
O1129  O     0.16666   0.87156   0.68393   0.00000  Uiso   1.00
O1130  O     0.16667   0.79511   0.81608   0.00000  Uiso   1.00
O1131  O     0.16667   0.87156   0.81608   0.00000  Uiso   1.00
O1132  O     0.16666   0.79511   0.68393   0.00000  Uiso   1.00
Zn1133 Zn    0.16667   0.88437   0.75000   0.00000  Uiso   1.00
Zn1134 Zn    0.16667   0.78229   0.75000   0.00000  Uiso   1.00
C1135  C     0.24435   0.82259   0.88023   0.00000  Uiso   1.00
H1136  H     0.24501   0.80209   0.85011   0.00000  Uiso   1.00
O1137  O     0.27558   0.84389   0.89065   0.00000  Uiso   1.00
C1138  C     0.08899   0.84413   0.61977   0.00000  Uiso   1.00
H1139  H     0.08834   0.86461   0.64990   0.00000  Uiso   1.00
O1140  O     0.05775   0.82284   0.60934   0.00000  Uiso   1.00
N1141  N     0.09124   0.84855   0.88201   0.00000  Uiso   1.00
H1142  H     0.09381   0.86908   0.85433   0.00000  Uiso   1.00
C1143  C     0.06729   0.80797   0.87323   0.00000  Uiso   1.00
H1144  H     0.08470   0.78508   0.85046   0.00000  Uiso   1.00
H1145  H     0.03718   0.81721   0.85710   0.00000  Uiso   1.00
H1146  H     0.06044   0.78997   0.90494   0.00000  Uiso   1.00
N1147  N     0.24209   0.81805   0.61798   0.00000  Uiso   1.00
H1148  H     0.23951   0.79742   0.64559   0.00000  Uiso   1.00
C1149  C     0.26604   0.85859   0.62690   0.00000  Uiso   1.00
H1150  H     0.24879   0.88122   0.65008   0.00000  Uiso   1.00
H1151  H     0.27258   0.87692   0.59529   0.00000  Uiso   1.00
H1152  H     0.29631   0.84925   0.64266   0.00000  Uiso   1.00
C1153  C     0.41999   0.83334   0.74998   0.00000  Uiso   1.00
C1154  C     0.58001   0.83332   0.75002   0.00000  Uiso   1.00
C1155  C     0.42565   0.85201   0.52228   0.00000  Uiso   1.00
C1156  C     0.57436   0.81474   0.97772   0.00000  Uiso   1.00
C1157  C     0.35466   0.79506   0.73459   0.00000  Uiso   1.00
C1158  C     0.64534   0.87161   0.76541   0.00000  Uiso   1.00
C1159  C     0.64524   0.79503   0.73465   0.00000  Uiso   1.00
C1160  C     0.35476   0.87164   0.76534   0.00000  Uiso   1.00
C1161  C     0.62415   0.83331   0.75005   0.00000  Uiso   1.00
C1162  C     0.37585   0.83336   0.74994   0.00000  Uiso   1.00
C1163  C     0.52699   0.69067   0.77673   0.00000  Uiso   1.00
C1164  C     0.47301   0.97600   0.72327   0.00000  Uiso   1.00
C1165  C     0.47300   0.69062   0.72327   0.00000  Uiso   1.00
C1166  C     0.52700   0.97605   0.77673   0.00000  Uiso   1.00
C1167  C     0.50013   0.83329   0.66369   0.00000  Uiso   1.00
C1168  C     0.49988   0.83338   0.83631   0.00000  Uiso   1.00
C1169  C     0.53832   0.82683   0.90648   0.00000  Uiso   1.00
C1170  C     0.46168   0.83988   0.59352   0.00000  Uiso   1.00
C1171  C     0.50028   0.83352   0.88390   0.00000  Uiso   1.00
C1172  C     0.49972   0.83316   0.61610   0.00000  Uiso   1.00
C1173  C     0.46257   0.84121   0.90625   0.00000  Uiso   1.00
C1174  C     0.53743   0.82547   0.59375   0.00000  Uiso   1.00
C1175  C     0.46269   0.84217   0.95283   0.00000  Uiso   1.00
C1176  C     0.53732   0.82455   0.54717   0.00000  Uiso   1.00
C1177  C     0.50020   0.83358   0.97651   0.00000  Uiso   1.00
C1178  C     0.49980   0.83315   0.52349   0.00000  Uiso   1.00
C1179  C     0.53807   0.82538   0.95337   0.00000  Uiso   1.00
C1180  C     0.46194   0.84135   0.54663   0.00000  Uiso   1.00
C1181  C     0.42597   0.85205   0.97612   0.00000  Uiso   1.00
C1182  C     0.57404   0.81469   0.52388   0.00000  Uiso   1.00
H1183  H     0.39714   0.86019   0.95883   0.00000  Uiso   1.00
H1184  H     0.60287   0.80657   0.54117   0.00000  Uiso   1.00
H1185  H     0.39671   0.86111   0.53838   0.00000  Uiso   1.00
H1186  H     0.60331   0.80566   0.96162   0.00000  Uiso   1.00
H1187  H     0.37105   0.76552   0.72220   0.00000  Uiso   1.00
H1188  H     0.62895   0.90115   0.77779   0.00000  Uiso   1.00
H1189  H     0.62876   0.76550   0.72227   0.00000  Uiso   1.00
H1190  H     0.37124   0.90117   0.77772   0.00000  Uiso   1.00
H1191  H     0.54858   0.70885   0.79811   0.00000  Uiso   1.00
H1192  H     0.45142   0.95782   0.70189   0.00000  Uiso   1.00
H1193  H     0.45141   0.70875   0.70190   0.00000  Uiso   1.00
H1194  H     0.54859   0.95792   0.79810   0.00000  Uiso   1.00
N1195  N     0.50000   0.95240   0.75000   0.00000  Uiso   1.00
N1196  N     0.50000   0.71427   0.75000   0.00000  Uiso   1.00
O1197  O     0.43892   0.87154   0.75000   0.00000  Uiso   1.00
O1198  O     0.56108   0.79513   0.75001   0.00000  Uiso   1.00
O1199  O     0.56108   0.87154   0.75001   0.00000  Uiso   1.00
O1200  O     0.43892   0.79513   0.75000   0.00000  Uiso   1.00
O1201  O     0.49999   0.87156   0.68393   0.00000  Uiso   1.00
O1202  O     0.50001   0.79511   0.81608   0.00000  Uiso   1.00
O1203  O     0.50001   0.87156   0.81608   0.00000  Uiso   1.00
O1204  O     0.49999   0.79511   0.68393   0.00000  Uiso   1.00
Zn1205 Zn    0.50000   0.88437   0.75000   0.00000  Uiso   1.00
Zn1206 Zn    0.50000   0.78229   0.75000   0.00000  Uiso   1.00
C1207  C     0.57768   0.82259   0.88023   0.00000  Uiso   1.00
H1208  H     0.57834   0.80209   0.85011   0.00000  Uiso   1.00
O1209  O     0.60891   0.84389   0.89065   0.00000  Uiso   1.00
C1210  C     0.42232   0.84413   0.61977   0.00000  Uiso   1.00
H1211  H     0.42167   0.86461   0.64990   0.00000  Uiso   1.00
O1212  O     0.39109   0.82284   0.60934   0.00000  Uiso   1.00
N1213  N     0.42457   0.84855   0.88201   0.00000  Uiso   1.00
H1214  H     0.42714   0.86908   0.85433   0.00000  Uiso   1.00
C1215  C     0.40063   0.80797   0.87323   0.00000  Uiso   1.00
H1216  H     0.41803   0.78508   0.85046   0.00000  Uiso   1.00
H1217  H     0.37051   0.81721   0.85710   0.00000  Uiso   1.00
H1218  H     0.39377   0.78997   0.90494   0.00000  Uiso   1.00
N1219  N     0.57542   0.81805   0.61798   0.00000  Uiso   1.00
H1220  H     0.57284   0.79742   0.64559   0.00000  Uiso   1.00
C1221  C     0.59937   0.85859   0.62690   0.00000  Uiso   1.00
H1222  H     0.58212   0.88122   0.65008   0.00000  Uiso   1.00
H1223  H     0.60591   0.87692   0.59529   0.00000  Uiso   1.00
H1224  H     0.62964   0.84925   0.64266   0.00000  Uiso   1.00
C1225  C     0.75332   0.83334   0.74998   0.00000  Uiso   1.00
C1226  C     0.91334   0.83332   0.75002   0.00000  Uiso   1.00
C1227  C     0.75899   0.85201   0.52228   0.00000  Uiso   1.00
C1228  C     0.90769   0.81474   0.97772   0.00000  Uiso   1.00
C1229  C     0.68799   0.79506   0.73459   0.00000  Uiso   1.00
C1230  C     0.97867   0.87161   0.76541   0.00000  Uiso   1.00
C1231  C     0.97857   0.79503   0.73465   0.00000  Uiso   1.00
C1232  C     0.68810   0.87164   0.76534   0.00000  Uiso   1.00
C1233  C     0.95748   0.83331   0.75005   0.00000  Uiso   1.00
C1234  C     0.70919   0.83336   0.74994   0.00000  Uiso   1.00
C1235  C     0.86033   0.69067   0.77673   0.00000  Uiso   1.00
C1236  C     0.80634   0.97600   0.72327   0.00000  Uiso   1.00
C1237  C     0.80634   0.69062   0.72327   0.00000  Uiso   1.00
C1238  C     0.86033   0.97605   0.77673   0.00000  Uiso   1.00
C1239  C     0.83346   0.83329   0.66369   0.00000  Uiso   1.00
C1240  C     0.83321   0.83338   0.83631   0.00000  Uiso   1.00
C1241  C     0.87166   0.82683   0.90648   0.00000  Uiso   1.00
C1242  C     0.79501   0.83988   0.59352   0.00000  Uiso   1.00
C1243  C     0.83361   0.83352   0.88390   0.00000  Uiso   1.00
C1244  C     0.83305   0.83316   0.61610   0.00000  Uiso   1.00
C1245  C     0.79590   0.84121   0.90625   0.00000  Uiso   1.00
C1246  C     0.87077   0.82547   0.59375   0.00000  Uiso   1.00
C1247  C     0.79602   0.84217   0.95283   0.00000  Uiso   1.00
C1248  C     0.87065   0.82455   0.54717   0.00000  Uiso   1.00
C1249  C     0.83354   0.83358   0.97651   0.00000  Uiso   1.00
C1250  C     0.83314   0.83315   0.52349   0.00000  Uiso   1.00
C1251  C     0.87140   0.82538   0.95337   0.00000  Uiso   1.00
C1252  C     0.79527   0.84135   0.54663   0.00000  Uiso   1.00
C1253  C     0.75930   0.85205   0.97612   0.00000  Uiso   1.00
C1254  C     0.90738   0.81469   0.52388   0.00000  Uiso   1.00
H1255  H     0.73048   0.86019   0.95883   0.00000  Uiso   1.00
H1256  H     0.93620   0.80657   0.54117   0.00000  Uiso   1.00
H1257  H     0.73004   0.86111   0.53838   0.00000  Uiso   1.00
H1258  H     0.93664   0.80566   0.96162   0.00000  Uiso   1.00
H1259  H     0.70438   0.76552   0.72220   0.00000  Uiso   1.00
H1260  H     0.96229   0.90115   0.77779   0.00000  Uiso   1.00
H1261  H     0.96210   0.76550   0.72227   0.00000  Uiso   1.00
H1262  H     0.70457   0.90117   0.77772   0.00000  Uiso   1.00
H1263  H     0.88191   0.70885   0.79811   0.00000  Uiso   1.00
H1264  H     0.78476   0.95782   0.70189   0.00000  Uiso   1.00
H1265  H     0.78475   0.70875   0.70190   0.00000  Uiso   1.00
H1266  H     0.88192   0.95792   0.79810   0.00000  Uiso   1.00
N1267  N     0.83333   0.95240   0.75000   0.00000  Uiso   1.00
N1268  N     0.83333   0.71427   0.75000   0.00000  Uiso   1.00
O1269  O     0.77226   0.87154   0.75000   0.00000  Uiso   1.00
O1270  O     0.89441   0.79513   0.75001   0.00000  Uiso   1.00
O1271  O     0.89441   0.87154   0.75001   0.00000  Uiso   1.00
O1272  O     0.77226   0.79513   0.75000   0.00000  Uiso   1.00
O1273  O     0.83333   0.87156   0.68393   0.00000  Uiso   1.00
O1274  O     0.83334   0.79511   0.81608   0.00000  Uiso   1.00
O1275  O     0.83334   0.87156   0.81608   0.00000  Uiso   1.00
O1276  O     0.83333   0.79511   0.68393   0.00000  Uiso   1.00
Zn1277 Zn    0.83333   0.88437   0.75000   0.00000  Uiso   1.00
Zn1278 Zn    0.83333   0.78229   0.75000   0.00000  Uiso   1.00
C1279  C     0.91102   0.82259   0.88023   0.00000  Uiso   1.00
H1280  H     0.91167   0.80209   0.85011   0.00000  Uiso   1.00
O1281  O     0.94224   0.84389   0.89065   0.00000  Uiso   1.00
C1282  C     0.75565   0.84413   0.61977   0.00000  Uiso   1.00
H1283  H     0.75500   0.86461   0.64990   0.00000  Uiso   1.00
O1284  O     0.72442   0.82284   0.60934   0.00000  Uiso   1.00
N1285  N     0.75790   0.84855   0.88201   0.00000  Uiso   1.00
H1286  H     0.76048   0.86908   0.85433   0.00000  Uiso   1.00
C1287  C     0.73396   0.80797   0.87323   0.00000  Uiso   1.00
H1288  H     0.75137   0.78508   0.85046   0.00000  Uiso   1.00
H1289  H     0.70384   0.81721   0.85710   0.00000  Uiso   1.00
H1290  H     0.72711   0.78997   0.90494   0.00000  Uiso   1.00
N1291  N     0.90876   0.81805   0.61798   0.00000  Uiso   1.00
H1292  H     0.90618   0.79742   0.64559   0.00000  Uiso   1.00
C1293  C     0.93271   0.85859   0.62690   0.00000  Uiso   1.00
H1294  H     0.91545   0.88122   0.65008   0.00000  Uiso   1.00
H1295  H     0.93925   0.87692   0.59529   0.00000  Uiso   1.00
H1296  H     0.96298   0.84925   0.64266   0.00000  Uiso   1.00
loop_
_geom_bond_atom_site_label_1
_geom_bond_atom_site_label_2
_geom_bond_distance
_geom_bond_site_symmetry_2
_ccdc_geom_bond_type
C1     O48     1.281   .     A
C1     O45     1.282   .     A
C1     C10     1.414   .     S
C2     O47     1.281   .     A
C2     O46     1.282   .     A
C2     C9      1.414   .     S
C3     C28     1.404   .     A
C3     H33     1.080   .     S
C3     C677    1.381   1_554 S
C4     H34     1.080   .     S
C4     C27     1.404   .     A
C4     C678    1.381   .     S
C5     C10     1.396   .     A
C5     H35     1.084   .     S
C5     C151    1.370   1_455 S
C6     C9      1.396   .     A
C6     H36     1.084   .     S
C6     C80     1.370   .     S
C7     C9      1.396   .     A
C7     H37     1.084   .     S
C7     C77     1.370   .     S
C8     H38     1.084   .     S
C8     C10     1.396   .     A
C8     C150    1.370   1_455 S
C11    N44     1.366   .     A
C11    H39     1.082   .     S
C11    C446    1.417   1_545 S
C12    H40     1.082   .     S
C12    N43     1.366   .     A
C12    C229    1.417   .     S
C13    H41     1.082   .     S
C13    N44     1.367   .     A
C13    C444    1.417   1_545 S
C14    H42     1.082   .     S
C14    N43     1.367   .     A
C14    C227    1.417   .     S
C15    O52     1.281   .     A
C15    O49     1.282   .     A
C15    C20     1.423   .     S
C16    O51     1.281   .     A
C16    C19     1.423   .     S
C16    O50     1.282   .     A
C17    C55     1.494   .     S
C17    C19     1.404   .     A
C17    C27     1.403   .     A
C18    C58     1.494   .     S
C18    C28     1.403   .     A
C18    C20     1.404   .     A
C19    C21     1.402   .     A
C20    C22     1.402   .     A
C21    N61     1.430   .     S
C21    C23     1.393   .     A
C22    C24     1.393   .     A
C22    N67     1.430   .     S
C23    C29     1.400   .     A
C23    C25     1.415   .     A
C24    C26     1.415   .     A
C24    C30     1.400   .     A
C25    C27     1.420   .     A
C25    C674    1.405   .     S
C26    C28     1.420   .     A
C26    C673    1.405   1_554 S
C29    H31     1.083   .     S
C29    C651    1.381   .     S
C30    H32     1.083   .     S
C30    C652    1.381   1_554 S
N43    Zn53    2.010   .     S
N44    Zn54    2.010   .     S
O45    Zn53    1.993   .     S
O46    Zn54    1.993   .     S
O47    Zn53    1.993   .     S
O48    Zn54    1.993   .     S
O49    Zn53    2.011   .     S
O50    Zn54    2.011   .     S
O51    Zn53    2.012   .     S
O52    Zn54    2.012   .     S
C55    H56     1.085   .     S
C55    O57     1.221   .     D
C58    H59     1.085   .     S
C58    O60     1.221   .     D
N61    H62     1.031   .     S
N61    C63     1.447   .     S
C63    H65     1.111   .     S
C63    H66     1.111   .     S
C63    H64     1.111   .     S
N67    H68     1.031   .     S
N67    C69     1.447   .     S
C69    H72     1.111   .     S
C69    H71     1.111   .     S
C69    H70     1.111   .     S
C73    O120    1.281   .     A
C73    O117    1.282   .     A
C73    C82     1.414   .     S
C74    O119    1.281   .     A
C74    O118    1.282   .     A
C74    C81     1.414   .     S
C75    C100    1.404   .     A
C75    H105    1.080   .     S
C75    C749    1.381   1_554 S
C76    H106    1.080   .     S
C76    C99     1.404   .     A
C76    C750    1.381   .     S
C77    C82     1.396   .     A
C77    H107    1.084   .     S
C78    C81     1.396   .     A
C78    H108    1.084   .     S
C78    C152    1.370   .     S
C79    C81     1.396   .     A
C79    H109    1.084   .     S
C79    C149    1.370   .     S
C80    H110    1.084   .     S
C80    C82     1.396   .     A
C83    N116    1.366   .     A
C83    H111    1.082   .     S
C83    C518    1.417   1_545 S
C84    H112    1.082   .     S
C84    N115    1.366   .     A
C84    C301    1.417   .     S
C85    H113    1.082   .     S
C85    N116    1.367   .     A
C85    C516    1.417   1_545 S
C86    H114    1.082   .     S
C86    N115    1.367   .     A
C86    C299    1.417   .     S
C87    O124    1.281   .     A
C87    O121    1.282   .     A
C87    C92     1.423   .     S
C88    O123    1.281   .     A
C88    C91     1.423   .     S
C88    O122    1.282   .     A
C89    C127    1.494   .     S
C89    C91     1.404   .     A
C89    C99     1.403   .     A
C90    C130    1.494   .     S
C90    C100    1.403   .     A
C90    C92     1.404   .     A
C91    C93     1.402   .     A
C92    C94     1.402   .     A
C93    N133    1.430   .     S
C93    C95     1.393   .     A
C94    C96     1.393   .     A
C94    N139    1.430   .     S
C95    C101    1.400   .     A
C95    C97     1.415   .     A
C96    C98     1.415   .     A
C96    C102    1.400   .     A
C97    C99     1.420   .     A
C97    C746    1.405   .     S
C98    C100    1.420   .     A
C98    C745    1.405   1_554 S
C101   H103    1.083   .     S
C101   C723    1.381   .     S
C102   H104    1.083   .     S
C102   C724    1.381   1_554 S
N115   Zn125   2.010   .     S
N116   Zn126   2.010   .     S
O117   Zn125   1.993   .     S
O118   Zn126   1.993   .     S
O119   Zn125   1.993   .     S
O120   Zn126   1.993   .     S
O121   Zn125   2.011   .     S
O122   Zn126   2.011   .     S
O123   Zn125   2.012   .     S
O124   Zn126   2.012   .     S
C127   H128    1.085   .     S
C127   O129    1.221   .     D
C130   H131    1.085   .     S
C130   O132    1.221   .     D
N133   H134    1.031   .     S
N133   C135    1.447   .     S
C135   H137    1.111   .     S
C135   H138    1.111   .     S
C135   H136    1.111   .     S
N139   H140    1.031   .     S
N139   C141    1.447   .     S
C141   H144    1.111   .     S
C141   H143    1.111   .     S
C141   H142    1.111   .     S
C145   O192    1.281   .     A
C145   O189    1.282   .     A
C145   C154    1.414   .     S
C146   O191    1.281   .     A
C146   O190    1.282   .     A
C146   C153    1.414   .     S
C147   C172    1.404   .     A
C147   H177    1.080   .     S
C147   C821    1.381   1_554 S
C148   H178    1.080   .     S
C148   C171    1.404   .     A
C148   C822    1.381   .     S
C149   C154    1.396   .     A
C149   H179    1.084   .     S
C150   C153    1.396   .     A
C150   H180    1.084   .     S
C150   C8      1.370   1_655 S
C151   C153    1.396   .     A
C151   H181    1.084   .     S
C151   C5      1.370   1_655 S
C152   H182    1.084   .     S
C152   C154    1.396   .     A
C155   N188    1.366   .     A
C155   H183    1.082   .     S
C155   C590    1.417   1_545 S
C156   H184    1.082   .     S
C156   N187    1.366   .     A
C156   C373    1.417   .     S
C157   H185    1.082   .     S
C157   N188    1.367   .     A
C157   C588    1.417   1_545 S
C158   H186    1.082   .     S
C158   N187    1.367   .     A
C158   C371    1.417   .     S
C159   O196    1.281   .     A
C159   O193    1.282   .     A
C159   C164    1.423   .     S
C160   O195    1.281   .     A
C160   C163    1.423   .     S
C160   O194    1.282   .     A
C161   C199    1.494   .     S
C161   C163    1.404   .     A
C161   C171    1.403   .     A
C162   C202    1.494   .     S
C162   C172    1.403   .     A
C162   C164    1.404   .     A
C163   C165    1.402   .     A
C164   C166    1.402   .     A
C165   N205    1.430   .     S
C165   C167    1.393   .     A
C166   C168    1.393   .     A
C166   N211    1.430   .     S
C167   C173    1.400   .     A
C167   C169    1.415   .     A
C168   C170    1.415   .     A
C168   C174    1.400   .     A
C169   C171    1.420   .     A
C169   C818    1.405   .     S
C170   C172    1.420   .     A
C170   C817    1.405   1_554 S
C173   H175    1.083   .     S
C173   C795    1.381   .     S
C174   H176    1.083   .     S
C174   C796    1.381   1_554 S
N187   Zn197   2.010   .     S
N188   Zn198   2.010   .     S
O189   Zn197   1.993   .     S
O190   Zn198   1.993   .     S
O191   Zn197   1.993   .     S
O192   Zn198   1.993   .     S
O193   Zn197   2.011   .     S
O194   Zn198   2.011   .     S
O195   Zn197   2.012   .     S
O196   Zn198   2.012   .     S
C199   H200    1.085   .     S
C199   O201    1.221   .     D
C202   H203    1.085   .     S
C202   O204    1.221   .     D
N205   H206    1.031   .     S
N205   C207    1.447   .     S
C207   H209    1.111   .     S
C207   H210    1.111   .     S
C207   H208    1.111   .     S
N211   H212    1.031   .     S
N211   C213    1.447   .     S
C213   H216    1.111   .     S
C213   H215    1.111   .     S
C213   H214    1.111   .     S
C217   O264    1.281   .     A
C217   O261    1.282   .     A
C217   C226    1.414   .     S
C218   O263    1.281   .     A
C218   O262    1.282   .     A
C218   C225    1.414   .     S
C219   C244    1.404   .     A
C219   H249    1.080   .     S
C219   C893    1.381   1_554 S
C220   H250    1.080   .     S
C220   C243    1.404   .     A
C220   C894    1.381   .     S
C221   C226    1.396   .     A
C221   H251    1.084   .     S
C221   C367    1.370   1_455 S
C222   C225    1.396   .     A
C222   H252    1.084   .     S
C222   C296    1.370   .     S
C223   C225    1.396   .     A
C223   H253    1.084   .     S
C223   C293    1.370   .     S
C224   H254    1.084   .     S
C224   C226    1.396   .     A
C224   C366    1.370   1_455 S
C227   N260    1.366   .     A
C227   H255    1.082   .     S
C228   H256    1.082   .     S
C228   N259    1.366   .     A
C228   C445    1.417   .     S
C229   H257    1.082   .     S
C229   N260    1.367   .     A
C230   H258    1.082   .     S
C230   N259    1.367   .     A
C230   C443    1.417   .     S
C231   O268    1.281   .     A
C231   O265    1.282   .     A
C231   C236    1.423   .     S
C232   O267    1.281   .     A
C232   C235    1.423   .     S
C232   O266    1.282   .     A
C233   C271    1.494   .     S
C233   C235    1.404   .     A
C233   C243    1.403   .     A
C234   C274    1.494   .     S
C234   C244    1.403   .     A
C234   C236    1.404   .     A
C235   C237    1.402   .     A
C236   C238    1.402   .     A
C237   N277    1.430   .     S
C237   C239    1.393   .     A
C238   C240    1.393   .     A
C238   N283    1.430   .     S
C239   C245    1.400   .     A
C239   C241    1.415   .     A
C240   C242    1.415   .     A
C240   C246    1.400   .     A
C241   C243    1.420   .     A
C241   C890    1.405   .     S
C242   C244    1.420   .     A
C242   C889    1.405   1_554 S
C245   H247    1.083   .     S
C245   C867    1.381   .     S
C246   H248    1.083   .     S
C246   C868    1.381   1_554 S
N259   Zn269   2.010   .     S
N260   Zn270   2.010   .     S
O261   Zn269   1.993   .     S
O262   Zn270   1.993   .     S
O263   Zn269   1.993   .     S
O264   Zn270   1.993   .     S
O265   Zn269   2.011   .     S
O266   Zn270   2.011   .     S
O267   Zn269   2.012   .     S
O268   Zn270   2.012   .     S
C271   H272    1.085   .     S
C271   O273    1.221   .     D
C274   H275    1.085   .     S
C274   O276    1.221   .     D
N277   H278    1.031   .     S
N277   C279    1.447   .     S
C279   H281    1.111   .     S
C279   H282    1.111   .     S
C279   H280    1.111   .     S
N283   H284    1.031   .     S
N283   C285    1.447   .     S
C285   H288    1.111   .     S
C285   H287    1.111   .     S
C285   H286    1.111   .     S
C289   O336    1.281   .     A
C289   O333    1.282   .     A
C289   C298    1.414   .     S
C290   O335    1.281   .     A
C290   O334    1.282   .     A
C290   C297    1.414   .     S
C291   C316    1.404   .     A
C291   H321    1.080   .     S
C291   C965    1.381   1_554 S
C292   H322    1.080   .     S
C292   C315    1.404   .     A
C292   C966    1.381   .     S
C293   C298    1.396   .     A
C293   H323    1.084   .     S
C294   C297    1.396   .     A
C294   H324    1.084   .     S
C294   C368    1.370   .     S
C295   C297    1.396   .     A
C295   H325    1.084   .     S
C295   C365    1.370   .     S
C296   H326    1.084   .     S
C296   C298    1.396   .     A
C299   N332    1.366   .     A
C299   H327    1.082   .     S
C300   H328    1.082   .     S
C300   N331    1.366   .     A
C300   C517    1.417   .     S
C301   H329    1.082   .     S
C301   N332    1.367   .     A
C302   H330    1.082   .     S
C302   N331    1.367   .     A
C302   C515    1.417   .     S
C303   O340    1.281   .     A
C303   O337    1.282   .     A
C303   C308    1.423   .     S
C304   O339    1.281   .     A
C304   C307    1.423   .     S
C304   O338    1.282   .     A
C305   C343    1.494   .     S
C305   C307    1.404   .     A
C305   C315    1.403   .     A
C306   C346    1.494   .     S
C306   C316    1.403   .     A
C306   C308    1.404   .     A
C307   C309    1.402   .     A
C308   C310    1.402   .     A
C309   N349    1.430   .     S
C309   C311    1.393   .     A
C310   C312    1.393   .     A
C310   N355    1.430   .     S
C311   C317    1.400   .     A
C311   C313    1.415   .     A
C312   C314    1.415   .     A
C312   C318    1.400   .     A
C313   C315    1.420   .     A
C313   C962    1.405   .     S
C314   C316    1.420   .     A
C314   C961    1.405   1_554 S
C317   H319    1.083   .     S
C317   C939    1.381   .     S
C318   H320    1.083   .     S
C318   C940    1.381   1_554 S
N331   Zn341   2.010   .     S
N332   Zn342   2.010   .     S
O333   Zn341   1.993   .     S
O334   Zn342   1.993   .     S
O335   Zn341   1.993   .     S
O336   Zn342   1.993   .     S
O337   Zn341   2.011   .     S
O338   Zn342   2.011   .     S
O339   Zn341   2.012   .     S
O340   Zn342   2.012   .     S
C343   H344    1.085   .     S
C343   O345    1.221   .     D
C346   H347    1.085   .     S
C346   O348    1.221   .     D
N349   H350    1.031   .     S
N349   C351    1.447   .     S
C351   H353    1.111   .     S
C351   H354    1.111   .     S
C351   H352    1.111   .     S
N355   H356    1.031   .     S
N355   C357    1.447   .     S
C357   H360    1.111   .     S
C357   H359    1.111   .     S
C357   H358    1.111   .     S
C361   O408    1.281   .     A
C361   O405    1.282   .     A
C361   C370    1.414   .     S
C362   O407    1.281   .     A
C362   O406    1.282   .     A
C362   C369    1.414   .     S
C363   C388    1.404   .     A
C363   H393    1.080   .     S
C363   C1037   1.381   1_554 S
C364   H394    1.080   .     S
C364   C387    1.404   .     A
C364   C1038   1.381   .     S
C365   C370    1.396   .     A
C365   H395    1.084   .     S
C366   C369    1.396   .     A
C366   H396    1.084   .     S
C366   C224    1.370   1_655 S
C367   C369    1.396   .     A
C367   H397    1.084   .     S
C367   C221    1.370   1_655 S
C368   H398    1.084   .     S
C368   C370    1.396   .     A
C371   N404    1.366   .     A
C371   H399    1.082   .     S
C372   H400    1.082   .     S
C372   N403    1.366   .     A
C372   C589    1.417   .     S
C373   H401    1.082   .     S
C373   N404    1.367   .     A
C374   H402    1.082   .     S
C374   N403    1.367   .     A
C374   C587    1.417   .     S
C375   O412    1.281   .     A
C375   O409    1.282   .     A
C375   C380    1.423   .     S
C376   O411    1.281   .     A
C376   C379    1.423   .     S
C376   O410    1.282   .     A
C377   C415    1.494   .     S
C377   C379    1.404   .     A
C377   C387    1.403   .     A
C378   C418    1.494   .     S
C378   C388    1.403   .     A
C378   C380    1.404   .     A
C379   C381    1.402   .     A
C380   C382    1.402   .     A
C381   N421    1.430   .     S
C381   C383    1.393   .     A
C382   C384    1.393   .     A
C382   N427    1.430   .     S
C383   C389    1.400   .     A
C383   C385    1.415   .     A
C384   C386    1.415   .     A
C384   C390    1.400   .     A
C385   C387    1.420   .     A
C385   C1034   1.405   .     S
C386   C388    1.420   .     A
C386   C1033   1.405   1_554 S
C389   H391    1.083   .     S
C389   C1011   1.381   .     S
C390   H392    1.083   .     S
C390   C1012   1.381   1_554 S
N403   Zn413   2.010   .     S
N404   Zn414   2.010   .     S
O405   Zn413   1.993   .     S
O406   Zn414   1.993   .     S
O407   Zn413   1.993   .     S
O408   Zn414   1.993   .     S
O409   Zn413   2.011   .     S
O410   Zn414   2.011   .     S
O411   Zn413   2.012   .     S
O412   Zn414   2.012   .     S
C415   H416    1.085   .     S
C415   O417    1.221   .     D
C418   H419    1.085   .     S
C418   O420    1.221   .     D
N421   H422    1.031   .     S
N421   C423    1.447   .     S
C423   H425    1.111   .     S
C423   H426    1.111   .     S
C423   H424    1.111   .     S
N427   H428    1.031   .     S
N427   C429    1.447   .     S
C429   H432    1.111   .     S
C429   H431    1.111   .     S
C429   H430    1.111   .     S
C433   O480    1.281   .     A
C433   O477    1.282   .     A
C433   C442    1.414   .     S
C434   O479    1.281   .     A
C434   O478    1.282   .     A
C434   C441    1.414   .     S
C435   C460    1.404   .     A
C435   H465    1.080   .     S
C435   C1109   1.381   1_554 S
C436   H466    1.080   .     S
C436   C459    1.404   .     A
C436   C1110   1.381   .     S
C437   C442    1.396   .     A
C437   H467    1.084   .     S
C437   C583    1.370   1_455 S
C438   C441    1.396   .     A
C438   H468    1.084   .     S
C438   C512    1.370   .     S
C439   C441    1.396   .     A
C439   H469    1.084   .     S
C439   C509    1.370   .     S
C440   H470    1.084   .     S
C440   C442    1.396   .     A
C440   C582    1.370   1_455 S
C443   N476    1.366   .     A
C443   H471    1.082   .     S
C444   H472    1.082   .     S
C444   N475    1.366   .     A
C444   C13     1.417   1_565 S
C445   H473    1.082   .     S
C445   N476    1.367   .     A
C446   H474    1.082   .     S
C446   N475    1.367   .     A
C446   C11     1.417   1_565 S
C447   O484    1.281   .     A
C447   O481    1.282   .     A
C447   C452    1.423   .     S
C448   O483    1.281   .     A
C448   C451    1.423   .     S
C448   O482    1.282   .     A
C449   C487    1.494   .     S
C449   C451    1.404   .     A
C449   C459    1.403   .     A
C450   C490    1.494   .     S
C450   C460    1.403   .     A
C450   C452    1.404   .     A
C451   C453    1.402   .     A
C452   C454    1.402   .     A
C453   N493    1.430   .     S
C453   C455    1.393   .     A
C454   C456    1.393   .     A
C454   N499    1.430   .     S
C455   C461    1.400   .     A
C455   C457    1.415   .     A
C456   C458    1.415   .     A
C456   C462    1.400   .     A
C457   C459    1.420   .     A
C457   C1106   1.405   .     S
C458   C460    1.420   .     A
C458   C1105   1.405   1_554 S
C461   H463    1.083   .     S
C461   C1083   1.381   .     S
C462   H464    1.083   .     S
C462   C1084   1.381   1_554 S
N475   Zn485   2.010   .     S
N476   Zn486   2.010   .     S
O477   Zn485   1.993   .     S
O478   Zn486   1.993   .     S
O479   Zn485   1.993   .     S
O480   Zn486   1.993   .     S
O481   Zn485   2.011   .     S
O482   Zn486   2.011   .     S
O483   Zn485   2.012   .     S
O484   Zn486   2.012   .     S
C487   H488    1.085   .     S
C487   O489    1.221   .     D
C490   H491    1.085   .     S
C490   O492    1.221   .     D
N493   H494    1.031   .     S
N493   C495    1.447   .     S
C495   H497    1.111   .     S
C495   H498    1.111   .     S
C495   H496    1.111   .     S
N499   H500    1.031   .     S
N499   C501    1.447   .     S
C501   H504    1.111   .     S
C501   H503    1.111   .     S
C501   H502    1.111   .     S
C505   O552    1.281   .     A
C505   O549    1.282   .     A
C505   C514    1.414   .     S
C506   O551    1.281   .     A
C506   O550    1.282   .     A
C506   C513    1.414   .     S
C507   C532    1.404   .     A
C507   H537    1.080   .     S
C507   C1181   1.381   1_554 S
C508   H538    1.080   .     S
C508   C531    1.404   .     A
C508   C1182   1.381   .     S
C509   C514    1.396   .     A
C509   H539    1.084   .     S
C510   C513    1.396   .     A
C510   H540    1.084   .     S
C510   C584    1.370   .     S
C511   C513    1.396   .     A
C511   H541    1.084   .     S
C511   C581    1.370   .     S
C512   H542    1.084   .     S
C512   C514    1.396   .     A
C515   N548    1.366   .     A
C515   H543    1.082   .     S
C516   H544    1.082   .     S
C516   N547    1.366   .     A
C516   C85     1.417   1_565 S
C517   H545    1.082   .     S
C517   N548    1.367   .     A
C518   H546    1.082   .     S
C518   N547    1.367   .     A
C518   C83     1.417   1_565 S
C519   O556    1.281   .     A
C519   O553    1.282   .     A
C519   C524    1.423   .     S
C520   O555    1.281   .     A
C520   C523    1.423   .     S
C520   O554    1.282   .     A
C521   C559    1.494   .     S
C521   C523    1.404   .     A
C521   C531    1.403   .     A
C522   C562    1.494   .     S
C522   C532    1.403   .     A
C522   C524    1.404   .     A
C523   C525    1.402   .     A
C524   C526    1.402   .     A
C525   N565    1.430   .     S
C525   C527    1.393   .     A
C526   C528    1.393   .     A
C526   N571    1.430   .     S
C527   C533    1.400   .     A
C527   C529    1.415   .     A
C528   C530    1.415   .     A
C528   C534    1.400   .     A
C529   C531    1.420   .     A
C529   C1178   1.405   .     S
C530   C532    1.420   .     A
C530   C1177   1.405   1_554 S
C533   H535    1.083   .     S
C533   C1155   1.381   .     S
C534   H536    1.083   .     S
C534   C1156   1.381   1_554 S
N547   Zn557   2.010   .     S
N548   Zn558   2.010   .     S
O549   Zn557   1.993   .     S
O550   Zn558   1.993   .     S
O551   Zn557   1.993   .     S
O552   Zn558   1.993   .     S
O553   Zn557   2.011   .     S
O554   Zn558   2.011   .     S
O555   Zn557   2.012   .     S
O556   Zn558   2.012   .     S
C559   H560    1.085   .     S
C559   O561    1.221   .     D
C562   H563    1.085   .     S
C562   O564    1.221   .     D
N565   H566    1.031   .     S
N565   C567    1.447   .     S
C567   H569    1.111   .     S
C567   H570    1.111   .     S
C567   H568    1.111   .     S
N571   H572    1.031   .     S
N571   C573    1.447   .     S
C573   H576    1.111   .     S
C573   H575    1.111   .     S
C573   H574    1.111   .     S
C577   O624    1.281   .     A
C577   O621    1.282   .     A
C577   C586    1.414   .     S
C578   O623    1.281   .     A
C578   O622    1.282   .     A
C578   C585    1.414   .     S
C579   C604    1.404   .     A
C579   H609    1.080   .     S
C579   C1253   1.381   1_554 S
C580   H610    1.080   .     S
C580   C603    1.404   .     A
C580   C1254   1.381   .     S
C581   C586    1.396   .     A
C581   H611    1.084   .     S
C582   C585    1.396   .     A
C582   H612    1.084   .     S
C582   C440    1.370   1_655 S
C583   C585    1.396   .     A
C583   H613    1.084   .     S
C583   C437    1.370   1_655 S
C584   H614    1.084   .     S
C584   C586    1.396   .     A
C587   N620    1.366   .     A
C587   H615    1.082   .     S
C588   H616    1.082   .     S
C588   N619    1.366   .     A
C588   C157    1.417   1_565 S
C589   H617    1.082   .     S
C589   N620    1.367   .     A
C590   H618    1.082   .     S
C590   N619    1.367   .     A
C590   C155    1.417   1_565 S
C591   O628    1.281   .     A
C591   O625    1.282   .     A
C591   C596    1.423   .     S
C592   O627    1.281   .     A
C592   C595    1.423   .     S
C592   O626    1.282   .     A
C593   C631    1.494   .     S
C593   C595    1.404   .     A
C593   C603    1.403   .     A
C594   C634    1.494   .     S
C594   C604    1.403   .     A
C594   C596    1.404   .     A
C595   C597    1.402   .     A
C596   C598    1.402   .     A
C597   N637    1.430   .     S
C597   C599    1.393   .     A
C598   C600    1.393   .     A
C598   N643    1.430   .     S
C599   C605    1.400   .     A
C599   C601    1.415   .     A
C600   C602    1.415   .     A
C600   C606    1.400   .     A
C601   C603    1.420   .     A
C601   C1250   1.405   .     S
C602   C604    1.420   .     A
C602   C1249   1.405   1_554 S
C605   H607    1.083   .     S
C605   C1227   1.381   .     S
C606   H608    1.083   .     S
C606   C1228   1.381   1_554 S
N619   Zn629   2.010   .     S
N620   Zn630   2.010   .     S
O621   Zn629   1.993   .     S
O622   Zn630   1.993   .     S
O623   Zn629   1.993   .     S
O624   Zn630   1.993   .     S
O625   Zn629   2.011   .     S
O626   Zn630   2.011   .     S
O627   Zn629   2.012   .     S
O628   Zn630   2.012   .     S
C631   H632    1.085   .     S
C631   O633    1.221   .     D
C634   H635    1.085   .     S
C634   O636    1.221   .     D
N637   H638    1.031   .     S
N637   C639    1.447   .     S
C639   H641    1.111   .     S
C639   H642    1.111   .     S
C639   H640    1.111   .     S
N643   H644    1.031   .     S
N643   C645    1.447   .     S
C645   H648    1.111   .     S
C645   H647    1.111   .     S
C645   H646    1.111   .     S
C649   O696    1.281   .     A
C649   O693    1.282   .     A
C649   C658    1.414   .     S
C650   O695    1.281   .     A
C650   O694    1.282   .     A
C650   C657    1.414   .     S
C651   C676    1.404   .     A
C651   H681    1.080   .     S
C652   H682    1.080   .     S
C652   C675    1.404   .     A
C652   C30     1.381   1_556 S
C653   C658    1.396   .     A
C653   H683    1.084   .     S
C653   C799    1.370   1_455 S
C654   C657    1.396   .     A
C654   H684    1.084   .     S
C654   C728    1.370   .     S
C655   C657    1.396   .     A
C655   H685    1.084   .     S
C655   C725    1.370   .     S
C656   H686    1.084   .     S
C656   C658    1.396   .     A
C656   C798    1.370   1_455 S
C659   N692    1.366   .     A
C659   H687    1.082   .     S
C659   C1094   1.417   1_545 S
C660   H688    1.082   .     S
C660   N691    1.366   .     A
C660   C877    1.417   .     S
C661   H689    1.082   .     S
C661   N692    1.367   .     A
C661   C1092   1.417   1_545 S
C662   H690    1.082   .     S
C662   N691    1.367   .     A
C662   C875    1.417   .     S
C663   O700    1.281   .     A
C663   O697    1.282   .     A
C663   C668    1.423   .     S
C664   O699    1.281   .     A
C664   C667    1.423   .     S
C664   O698    1.282   .     A
C665   C703    1.494   .     S
C665   C667    1.404   .     A
C665   C675    1.403   .     A
C666   C706    1.494   .     S
C666   C676    1.403   .     A
C666   C668    1.404   .     A
C667   C669    1.402   .     A
C668   C670    1.402   .     A
C669   N709    1.430   .     S
C669   C671    1.393   .     A
C670   C672    1.393   .     A
C670   N715    1.430   .     S
C671   C677    1.400   .     A
C671   C673    1.415   .     A
C672   C674    1.415   .     A
C672   C678    1.400   .     A
C673   C675    1.420   .     A
C673   C26     1.405   1_556 S
C674   C676    1.420   .     A
C677   H679    1.083   .     S
C677   C3      1.381   1_556 S
C678   H680    1.083   .     S
N691   Zn701   2.010   .     S
N692   Zn702   2.010   .     S
O693   Zn701   1.993   .     S
O694   Zn702   1.993   .     S
O695   Zn701   1.993   .     S
O696   Zn702   1.993   .     S
O697   Zn701   2.011   .     S
O698   Zn702   2.011   .     S
O699   Zn701   2.012   .     S
O700   Zn702   2.012   .     S
C703   H704    1.085   .     S
C703   O705    1.221   .     D
C706   H707    1.085   .     S
C706   O708    1.221   .     D
N709   H710    1.031   .     S
N709   C711    1.447   .     S
C711   H713    1.111   .     S
C711   H714    1.111   .     S
C711   H712    1.111   .     S
N715   H716    1.031   .     S
N715   C717    1.447   .     S
C717   H720    1.111   .     S
C717   H719    1.111   .     S
C717   H718    1.111   .     S
C721   O768    1.281   .     A
C721   O765    1.282   .     A
C721   C730    1.414   .     S
C722   O767    1.281   .     A
C722   O766    1.282   .     A
C722   C729    1.414   .     S
C723   C748    1.404   .     A
C723   H753    1.080   .     S
C724   H754    1.080   .     S
C724   C747    1.404   .     A
C724   C102    1.381   1_556 S
C725   C730    1.396   .     A
C725   H755    1.084   .     S
C726   C729    1.396   .     A
C726   H756    1.084   .     S
C726   C800    1.370   .     S
C727   C729    1.396   .     A
C727   H757    1.084   .     S
C727   C797    1.370   .     S
C728   H758    1.084   .     S
C728   C730    1.396   .     A
C731   N764    1.366   .     A
C731   H759    1.082   .     S
C731   C1166   1.417   1_545 S
C732   H760    1.082   .     S
C732   N763    1.366   .     A
C732   C949    1.417   .     S
C733   H761    1.082   .     S
C733   N764    1.367   .     A
C733   C1164   1.417   1_545 S
C734   H762    1.082   .     S
C734   N763    1.367   .     A
C734   C947    1.417   .     S
C735   O772    1.281   .     A
C735   O769    1.282   .     A
C735   C740    1.423   .     S
C736   O771    1.281   .     A
C736   C739    1.423   .     S
C736   O770    1.282   .     A
C737   C775    1.494   .     S
C737   C739    1.404   .     A
C737   C747    1.403   .     A
C738   C778    1.494   .     S
C738   C748    1.403   .     A
C738   C740    1.404   .     A
C739   C741    1.402   .     A
C740   C742    1.402   .     A
C741   N781    1.430   .     S
C741   C743    1.393   .     A
C742   C744    1.393   .     A
C742   N787    1.430   .     S
C743   C749    1.400   .     A
C743   C745    1.415   .     A
C744   C746    1.415   .     A
C744   C750    1.400   .     A
C745   C747    1.420   .     A
C745   C98     1.405   1_556 S
C746   C748    1.420   .     A
C749   H751    1.083   .     S
C749   C75     1.381   1_556 S
C750   H752    1.083   .     S
N763   Zn773   2.010   .     S
N764   Zn774   2.010   .     S
O765   Zn773   1.993   .     S
O766   Zn774   1.993   .     S
O767   Zn773   1.993   .     S
O768   Zn774   1.993   .     S
O769   Zn773   2.011   .     S
O770   Zn774   2.011   .     S
O771   Zn773   2.012   .     S
O772   Zn774   2.012   .     S
C775   H776    1.085   .     S
C775   O777    1.221   .     D
C778   H779    1.085   .     S
C778   O780    1.221   .     D
N781   H782    1.031   .     S
N781   C783    1.447   .     S
C783   H785    1.111   .     S
C783   H786    1.111   .     S
C783   H784    1.111   .     S
N787   H788    1.031   .     S
N787   C789    1.447   .     S
C789   H792    1.111   .     S
C789   H791    1.111   .     S
C789   H790    1.111   .     S
C793   O840    1.281   .     A
C793   O837    1.282   .     A
C793   C802    1.414   .     S
C794   O839    1.281   .     A
C794   O838    1.282   .     A
C794   C801    1.414   .     S
C795   C820    1.404   .     A
C795   H825    1.080   .     S
C796   H826    1.080   .     S
C796   C819    1.404   .     A
C796   C174    1.381   1_556 S
C797   C802    1.396   .     A
C797   H827    1.084   .     S
C798   C801    1.396   .     A
C798   H828    1.084   .     S
C798   C656    1.370   1_655 S
C799   C801    1.396   .     A
C799   H829    1.084   .     S
C799   C653    1.370   1_655 S
C800   H830    1.084   .     S
C800   C802    1.396   .     A
C803   N836    1.366   .     A
C803   H831    1.082   .     S
C803   C1238   1.417   1_545 S
C804   H832    1.082   .     S
C804   N835    1.366   .     A
C804   C1021   1.417   .     S
C805   H833    1.082   .     S
C805   N836    1.367   .     A
C805   C1236   1.417   1_545 S
C806   H834    1.082   .     S
C806   N835    1.367   .     A
C806   C1019   1.417   .     S
C807   O844    1.281   .     A
C807   O841    1.282   .     A
C807   C812    1.423   .     S
C808   O843    1.281   .     A
C808   C811    1.423   .     S
C808   O842    1.282   .     A
C809   C847    1.494   .     S
C809   C811    1.404   .     A
C809   C819    1.403   .     A
C810   C850    1.494   .     S
C810   C820    1.403   .     A
C810   C812    1.404   .     A
C811   C813    1.402   .     A
C812   C814    1.402   .     A
C813   N853    1.430   .     S
C813   C815    1.393   .     A
C814   C816    1.393   .     A
C814   N859    1.430   .     S
C815   C821    1.400   .     A
C815   C817    1.415   .     A
C816   C818    1.415   .     A
C816   C822    1.400   .     A
C817   C819    1.420   .     A
C817   C170    1.405   1_556 S
C818   C820    1.420   .     A
C821   H823    1.083   .     S
C821   C147    1.381   1_556 S
C822   H824    1.083   .     S
N835   Zn845   2.010   .     S
N836   Zn846   2.010   .     S
O837   Zn845   1.993   .     S
O838   Zn846   1.993   .     S
O839   Zn845   1.993   .     S
O840   Zn846   1.993   .     S
O841   Zn845   2.011   .     S
O842   Zn846   2.011   .     S
O843   Zn845   2.012   .     S
O844   Zn846   2.012   .     S
C847   H848    1.085   .     S
C847   O849    1.221   .     D
C850   H851    1.085   .     S
C850   O852    1.221   .     D
N853   H854    1.031   .     S
N853   C855    1.447   .     S
C855   H857    1.111   .     S
C855   H858    1.111   .     S
C855   H856    1.111   .     S
N859   H860    1.031   .     S
N859   C861    1.447   .     S
C861   H864    1.111   .     S
C861   H863    1.111   .     S
C861   H862    1.111   .     S
C865   O912    1.281   .     A
C865   O909    1.282   .     A
C865   C874    1.414   .     S
C866   O911    1.281   .     A
C866   O910    1.282   .     A
C866   C873    1.414   .     S
C867   C892    1.404   .     A
C867   H897    1.080   .     S
C868   H898    1.080   .     S
C868   C891    1.404   .     A
C868   C246    1.381   1_556 S
C869   C874    1.396   .     A
C869   H899    1.084   .     S
C869   C1015   1.370   1_455 S
C870   C873    1.396   .     A
C870   H900    1.084   .     S
C870   C944    1.370   .     S
C871   C873    1.396   .     A
C871   H901    1.084   .     S
C871   C941    1.370   .     S
C872   H902    1.084   .     S
C872   C874    1.396   .     A
C872   C1014   1.370   1_455 S
C875   N908    1.366   .     A
C875   H903    1.082   .     S
C876   H904    1.082   .     S
C876   N907    1.366   .     A
C876   C1093   1.417   .     S
C877   H905    1.082   .     S
C877   N908    1.367   .     A
C878   H906    1.082   .     S
C878   N907    1.367   .     A
C878   C1091   1.417   .     S
C879   O916    1.281   .     A
C879   O913    1.282   .     A
C879   C884    1.423   .     S
C880   O915    1.281   .     A
C880   C883    1.423   .     S
C880   O914    1.282   .     A
C881   C919    1.494   .     S
C881   C883    1.404   .     A
C881   C891    1.403   .     A
C882   C922    1.494   .     S
C882   C892    1.403   .     A
C882   C884    1.404   .     A
C883   C885    1.402   .     A
C884   C886    1.402   .     A
C885   N925    1.430   .     S
C885   C887    1.393   .     A
C886   C888    1.393   .     A
C886   N931    1.430   .     S
C887   C893    1.400   .     A
C887   C889    1.415   .     A
C888   C890    1.415   .     A
C888   C894    1.400   .     A
C889   C891    1.420   .     A
C889   C242    1.405   1_556 S
C890   C892    1.420   .     A
C893   H895    1.083   .     S
C893   C219    1.381   1_556 S
C894   H896    1.083   .     S
N907   Zn917   2.010   .     S
N908   Zn918   2.010   .     S
O909   Zn917   1.993   .     S
O910   Zn918   1.993   .     S
O911   Zn917   1.993   .     S
O912   Zn918   1.993   .     S
O913   Zn917   2.011   .     S
O914   Zn918   2.011   .     S
O915   Zn917   2.012   .     S
O916   Zn918   2.012   .     S
C919   H920    1.085   .     S
C919   O921    1.221   .     D
C922   H923    1.085   .     S
C922   O924    1.221   .     D
N925   H926    1.031   .     S
N925   C927    1.447   .     S
C927   H929    1.111   .     S
C927   H930    1.111   .     S
C927   H928    1.111   .     S
N931   H932    1.031   .     S
N931   C933    1.447   .     S
C933   H936    1.111   .     S
C933   H935    1.111   .     S
C933   H934    1.111   .     S
C937   O984    1.281   .     A
C937   O981    1.282   .     A
C937   C946    1.414   .     S
C938   O983    1.281   .     A
C938   O982    1.282   .     A
C938   C945    1.414   .     S
C939   C964    1.404   .     A
C939   H969    1.080   .     S
C940   H970    1.080   .     S
C940   C963    1.404   .     A
C940   C318    1.381   1_556 S
C941   C946    1.396   .     A
C941   H971    1.084   .     S
C942   C945    1.396   .     A
C942   H972    1.084   .     S
C942   C1016   1.370   .     S
C943   C945    1.396   .     A
C943   H973    1.084   .     S
C943   C1013   1.370   .     S
C944   H974    1.084   .     S
C944   C946    1.396   .     A
C947   N980    1.366   .     A
C947   H975    1.082   .     S
C948   H976    1.082   .     S
C948   N979    1.366   .     A
C948   C1165   1.417   .     S
C949   H977    1.082   .     S
C949   N980    1.367   .     A
C950   H978    1.082   .     S
C950   N979    1.367   .     A
C950   C1163   1.417   .     S
C951   O988    1.281   .     A
C951   O985    1.282   .     A
C951   C956    1.423   .     S
C952   O987    1.281   .     A
C952   C955    1.423   .     S
C952   O986    1.282   .     A
C953   C991    1.494   .     S
C953   C955    1.404   .     A
C953   C963    1.403   .     A
C954   C994    1.494   .     S
C954   C964    1.403   .     A
C954   C956    1.404   .     A
C955   C957    1.402   .     A
C956   C958    1.402   .     A
C957   N997    1.430   .     S
C957   C959    1.393   .     A
C958   C960    1.393   .     A
C958   N1003   1.430   .     S
C959   C965    1.400   .     A
C959   C961    1.415   .     A
C960   C962    1.415   .     A
C960   C966    1.400   .     A
C961   C963    1.420   .     A
C961   C314    1.405   1_556 S
C962   C964    1.420   .     A
C965   H967    1.083   .     S
C965   C291    1.381   1_556 S
C966   H968    1.083   .     S
N979   Zn989   2.010   .     S
N980   Zn990   2.010   .     S
O981   Zn989   1.993   .     S
O982   Zn990   1.993   .     S
O983   Zn989   1.993   .     S
O984   Zn990   1.993   .     S
O985   Zn989   2.011   .     S
O986   Zn990   2.011   .     S
O987   Zn989   2.012   .     S
O988   Zn990   2.012   .     S
C991   H992    1.085   .     S
C991   O993    1.221   .     D
C994   H995    1.085   .     S
C994   O996    1.221   .     D
N997   H998    1.031   .     S
N997   C999    1.447   .     S
C999   H1001   1.111   .     S
C999   H1002   1.111   .     S
C999   H1000   1.111   .     S
N1003  H1004   1.031   .     S
N1003  C1005   1.447   .     S
C1005  H1008   1.111   .     S
C1005  H1007   1.111   .     S
C1005  H1006   1.111   .     S
C1009  O1056   1.281   .     A
C1009  O1053   1.282   .     A
C1009  C1018   1.414   .     S
C1010  O1055   1.281   .     A
C1010  O1054   1.282   .     A
C1010  C1017   1.414   .     S
C1011  C1036   1.404   .     A
C1011  H1041   1.080   .     S
C1012  H1042   1.080   .     S
C1012  C1035   1.404   .     A
C1012  C390    1.381   1_556 S
C1013  C1018   1.396   .     A
C1013  H1043   1.084   .     S
C1014  C1017   1.396   .     A
C1014  H1044   1.084   .     S
C1014  C872    1.370   1_655 S
C1015  C1017   1.396   .     A
C1015  H1045   1.084   .     S
C1015  C869    1.370   1_655 S
C1016  H1046   1.084   .     S
C1016  C1018   1.396   .     A
C1019  N1052   1.366   .     A
C1019  H1047   1.082   .     S
C1020  H1048   1.082   .     S
C1020  N1051   1.366   .     A
C1020  C1237   1.417   .     S
C1021  H1049   1.082   .     S
C1021  N1052   1.367   .     A
C1022  H1050   1.082   .     S
C1022  N1051   1.367   .     A
C1022  C1235   1.417   .     S
C1023  O1060   1.281   .     A
C1023  O1057   1.282   .     A
C1023  C1028   1.423   .     S
C1024  O1059   1.281   .     A
C1024  C1027   1.423   .     S
C1024  O1058   1.282   .     A
C1025  C1063   1.494   .     S
C1025  C1027   1.404   .     A
C1025  C1035   1.403   .     A
C1026  C1066   1.494   .     S
C1026  C1036   1.403   .     A
C1026  C1028   1.404   .     A
C1027  C1029   1.402   .     A
C1028  C1030   1.402   .     A
C1029  N1069   1.430   .     S
C1029  C1031   1.393   .     A
C1030  C1032   1.393   .     A
C1030  N1075   1.430   .     S
C1031  C1037   1.400   .     A
C1031  C1033   1.415   .     A
C1032  C1034   1.415   .     A
C1032  C1038   1.400   .     A
C1033  C1035   1.420   .     A
C1033  C386    1.405   1_556 S
C1034  C1036   1.420   .     A
C1037  H1039   1.083   .     S
C1037  C363    1.381   1_556 S
C1038  H1040   1.083   .     S
N1051  Zn1061  2.010   .     S
N1052  Zn1062  2.010   .     S
O1053  Zn1061  1.993   .     S
O1054  Zn1062  1.993   .     S
O1055  Zn1061  1.993   .     S
O1056  Zn1062  1.993   .     S
O1057  Zn1061  2.011   .     S
O1058  Zn1062  2.011   .     S
O1059  Zn1061  2.012   .     S
O1060  Zn1062  2.012   .     S
C1063  H1064   1.085   .     S
C1063  O1065   1.221   .     D
C1066  H1067   1.085   .     S
C1066  O1068   1.221   .     D
N1069  H1070   1.031   .     S
N1069  C1071   1.447   .     S
C1071  H1073   1.111   .     S
C1071  H1074   1.111   .     S
C1071  H1072   1.111   .     S
N1075  H1076   1.031   .     S
N1075  C1077   1.447   .     S
C1077  H1080   1.111   .     S
C1077  H1079   1.111   .     S
C1077  H1078   1.111   .     S
C1081  O1128   1.281   .     A
C1081  O1125   1.282   .     A
C1081  C1090   1.414   .     S
C1082  O1127   1.281   .     A
C1082  O1126   1.282   .     A
C1082  C1089   1.414   .     S
C1083  C1108   1.404   .     A
C1083  H1113   1.080   .     S
C1084  H1114   1.080   .     S
C1084  C1107   1.404   .     A
C1084  C462    1.381   1_556 S
C1085  C1090   1.396   .     A
C1085  H1115   1.084   .     S
C1085  C1231   1.370   1_455 S
C1086  C1089   1.396   .     A
C1086  H1116   1.084   .     S
C1086  C1160   1.370   .     S
C1087  C1089   1.396   .     A
C1087  H1117   1.084   .     S
C1087  C1157   1.370   .     S
C1088  H1118   1.084   .     S
C1088  C1090   1.396   .     A
C1088  C1230   1.370   1_455 S
C1091  N1124   1.366   .     A
C1091  H1119   1.082   .     S
C1092  H1120   1.082   .     S
C1092  N1123   1.366   .     A
C1092  C661    1.417   1_565 S
C1093  H1121   1.082   .     S
C1093  N1124   1.367   .     A
C1094  H1122   1.082   .     S
C1094  N1123   1.367   .     A
C1094  C659    1.417   1_565 S
C1095  O1132   1.281   .     A
C1095  O1129   1.282   .     A
C1095  C1100   1.423   .     S
C1096  O1131   1.281   .     A
C1096  C1099   1.423   .     S
C1096  O1130   1.282   .     A
C1097  C1135   1.494   .     S
C1097  C1099   1.404   .     A
C1097  C1107   1.403   .     A
C1098  C1138   1.494   .     S
C1098  C1108   1.403   .     A
C1098  C1100   1.404   .     A
C1099  C1101   1.402   .     A
C1100  C1102   1.402   .     A
C1101  N1141   1.430   .     S
C1101  C1103   1.393   .     A
C1102  C1104   1.393   .     A
C1102  N1147   1.430   .     S
C1103  C1109   1.400   .     A
C1103  C1105   1.415   .     A
C1104  C1106   1.415   .     A
C1104  C1110   1.400   .     A
C1105  C1107   1.420   .     A
C1105  C458    1.405   1_556 S
C1106  C1108   1.420   .     A
C1109  H1111   1.083   .     S
C1109  C435    1.381   1_556 S
C1110  H1112   1.083   .     S
N1123  Zn1133  2.010   .     S
N1124  Zn1134  2.010   .     S
O1125  Zn1133  1.993   .     S
O1126  Zn1134  1.993   .     S
O1127  Zn1133  1.993   .     S
O1128  Zn1134  1.993   .     S
O1129  Zn1133  2.011   .     S
O1130  Zn1134  2.011   .     S
O1131  Zn1133  2.012   .     S
O1132  Zn1134  2.012   .     S
C1135  H1136   1.085   .     S
C1135  O1137   1.221   .     D
C1138  H1139   1.085   .     S
C1138  O1140   1.221   .     D
N1141  H1142   1.031   .     S
N1141  C1143   1.447   .     S
C1143  H1145   1.111   .     S
C1143  H1146   1.111   .     S
C1143  H1144   1.111   .     S
N1147  H1148   1.031   .     S
N1147  C1149   1.447   .     S
C1149  H1152   1.111   .     S
C1149  H1151   1.111   .     S
C1149  H1150   1.111   .     S
C1153  O1200   1.281   .     A
C1153  O1197   1.282   .     A
C1153  C1162   1.414   .     S
C1154  O1199   1.281   .     A
C1154  O1198   1.282   .     A
C1154  C1161   1.414   .     S
C1155  C1180   1.404   .     A
C1155  H1185   1.080   .     S
C1156  H1186   1.080   .     S
C1156  C1179   1.404   .     A
C1156  C534    1.381   1_556 S
C1157  C1162   1.396   .     A
C1157  H1187   1.084   .     S
C1158  C1161   1.396   .     A
C1158  H1188   1.084   .     S
C1158  C1232   1.370   .     S
C1159  C1161   1.396   .     A
C1159  H1189   1.084   .     S
C1159  C1229   1.370   .     S
C1160  H1190   1.084   .     S
C1160  C1162   1.396   .     A
C1163  N1196   1.366   .     A
C1163  H1191   1.082   .     S
C1164  H1192   1.082   .     S
C1164  N1195   1.366   .     A
C1164  C733    1.417   1_565 S
C1165  H1193   1.082   .     S
C1165  N1196   1.367   .     A
C1166  H1194   1.082   .     S
C1166  N1195   1.367   .     A
C1166  C731    1.417   1_565 S
C1167  O1204   1.281   .     A
C1167  O1201   1.282   .     A
C1167  C1172   1.423   .     S
C1168  O1203   1.281   .     A
C1168  C1171   1.423   .     S
C1168  O1202   1.282   .     A
C1169  C1207   1.494   .     S
C1169  C1171   1.404   .     A
C1169  C1179   1.403   .     A
C1170  C1210   1.494   .     S
C1170  C1180   1.403   .     A
C1170  C1172   1.404   .     A
C1171  C1173   1.402   .     A
C1172  C1174   1.402   .     A
C1173  N1213   1.430   .     S
C1173  C1175   1.393   .     A
C1174  C1176   1.393   .     A
C1174  N1219   1.430   .     S
C1175  C1181   1.400   .     A
C1175  C1177   1.415   .     A
C1176  C1178   1.415   .     A
C1176  C1182   1.400   .     A
C1177  C1179   1.420   .     A
C1177  C530    1.405   1_556 S
C1178  C1180   1.420   .     A
C1181  H1183   1.083   .     S
C1181  C507    1.381   1_556 S
C1182  H1184   1.083   .     S
N1195  Zn1205  2.010   .     S
N1196  Zn1206  2.010   .     S
O1197  Zn1205  1.993   .     S
O1198  Zn1206  1.993   .     S
O1199  Zn1205  1.993   .     S
O1200  Zn1206  1.993   .     S
O1201  Zn1205  2.011   .     S
O1202  Zn1206  2.011   .     S
O1203  Zn1205  2.012   .     S
O1204  Zn1206  2.012   .     S
C1207  H1208   1.085   .     S
C1207  O1209   1.221   .     D
C1210  H1211   1.085   .     S
C1210  O1212   1.221   .     D
N1213  H1214   1.031   .     S
N1213  C1215   1.447   .     S
C1215  H1217   1.111   .     S
C1215  H1218   1.111   .     S
C1215  H1216   1.111   .     S
N1219  H1220   1.031   .     S
N1219  C1221   1.447   .     S
C1221  H1224   1.111   .     S
C1221  H1223   1.111   .     S
C1221  H1222   1.111   .     S
C1225  O1272   1.281   .     A
C1225  O1269   1.282   .     A
C1225  C1234   1.414   .     S
C1226  O1271   1.281   .     A
C1226  O1270   1.282   .     A
C1226  C1233   1.414   .     S
C1227  C1252   1.404   .     A
C1227  H1257   1.080   .     S
C1228  H1258   1.080   .     S
C1228  C1251   1.404   .     A
C1228  C606    1.381   1_556 S
C1229  C1234   1.396   .     A
C1229  H1259   1.084   .     S
C1230  C1233   1.396   .     A
C1230  H1260   1.084   .     S
C1230  C1088   1.370   1_655 S
C1231  C1233   1.396   .     A
C1231  H1261   1.084   .     S
C1231  C1085   1.370   1_655 S
C1232  H1262   1.084   .     S
C1232  C1234   1.396   .     A
C1235  N1268   1.366   .     A
C1235  H1263   1.082   .     S
C1236  H1264   1.082   .     S
C1236  N1267   1.366   .     A
C1236  C805    1.417   1_565 S
C1237  H1265   1.082   .     S
C1237  N1268   1.367   .     A
C1238  H1266   1.082   .     S
C1238  N1267   1.367   .     A
C1238  C803    1.417   1_565 S
C1239  O1276   1.281   .     A
C1239  O1273   1.282   .     A
C1239  C1244   1.423   .     S
C1240  O1275   1.281   .     A
C1240  C1243   1.423   .     S
C1240  O1274   1.282   .     A
C1241  C1279   1.494   .     S
C1241  C1243   1.404   .     A
C1241  C1251   1.403   .     A
C1242  C1282   1.494   .     S
C1242  C1252   1.403   .     A
C1242  C1244   1.404   .     A
C1243  C1245   1.402   .     A
C1244  C1246   1.402   .     A
C1245  N1285   1.430   .     S
C1245  C1247   1.393   .     A
C1246  C1248   1.393   .     A
C1246  N1291   1.430   .     S
C1247  C1253   1.400   .     A
C1247  C1249   1.415   .     A
C1248  C1250   1.415   .     A
C1248  C1254   1.400   .     A
C1249  C1251   1.420   .     A
C1249  C602    1.405   1_556 S
C1250  C1252   1.420   .     A
C1253  H1255   1.083   .     S
C1253  C579    1.381   1_556 S
C1254  H1256   1.083   .     S
N1267  Zn1277  2.010   .     S
N1268  Zn1278  2.010   .     S
O1269  Zn1277  1.993   .     S
O1270  Zn1278  1.993   .     S
O1271  Zn1277  1.993   .     S
O1272  Zn1278  1.993   .     S
O1273  Zn1277  2.011   .     S
O1274  Zn1278  2.011   .     S
O1275  Zn1277  2.012   .     S
O1276  Zn1278  2.012   .     S
C1279  H1280   1.085   .     S
C1279  O1281   1.221   .     D
C1282  H1283   1.085   .     S
C1282  O1284   1.221   .     D
N1285  H1286   1.031   .     S
N1285  C1287   1.447   .     S
C1287  H1289   1.111   .     S
C1287  H1290   1.111   .     S
C1287  H1288   1.111   .     S
N1291  H1292   1.031   .     S
N1291  C1293   1.447   .     S
C1293  H1296   1.111   .     S
C1293  H1295   1.111   .     S
C1293  H1294   1.111   .     S
