data_str_m3_o2_o5_pcu_sym.27
_audit_creation_date              2020-01-03
_audit_creation_method            'Materials Studio'
_symmetry_space_group_name_H-M    'P1'
_symmetry_Int_Tables_number       1
_symmetry_cell_setting            triclinic
loop_
_symmetry_equiv_pos_as_xyz
  x,y,z
_cell_length_a                    30.0483
_cell_length_b                    28.8011
_cell_length_c                    26.6173
_cell_angle_alpha                 90.0004
_cell_angle_beta                  94.5420
_cell_angle_gamma                 90.0087
loop_
_atom_site_label
_atom_site_type_symbol
_atom_site_fract_x
_atom_site_fract_y
_atom_site_fract_z
_atom_site_U_iso_or_equiv
_atom_site_adp_type
_atom_site_occupancy
O1     O     0.18453   0.28974   0.16667   0.00000  Uiso   1.00
O2     O     0.31547   0.21026   0.16666   0.00000  Uiso   1.00
O3     O     0.31547   0.28974   0.16666   0.00000  Uiso   1.00
O4     O     0.18453   0.21026   0.16667   0.00000  Uiso   1.00
C5     C     0.16407   0.24999   0.16895   0.00000  Uiso   1.00
C6     C     0.33597   0.24999   0.16447   0.00000  Uiso   1.00
O7     O     0.25000   0.28973   0.09511   0.00000  Uiso   1.00
O8     O     0.25000   0.21027   0.23822   0.00000  Uiso   1.00
O9     O     0.25000   0.28973   0.23822   0.00000  Uiso   1.00
O10    O     0.25000   0.21027   0.09511   0.00000  Uiso   1.00
C11    C     0.24116   0.05069   0.12285   0.00000  Uiso   1.00
C12    C     0.28020   0.44757   0.19840   0.00000  Uiso   1.00
C13    C     0.25881   0.05069   0.21049   0.00000  Uiso   1.00
C14    C     0.21978   0.44755   0.13493   0.00000  Uiso   1.00
C15    C     0.24971   0.25006   0.07302   0.00000  Uiso   1.00
C16    C     0.25031   0.25007   0.26031   0.00000  Uiso   1.00
Zn17   Zn    0.25000   0.30307   0.16667   0.00000  Uiso   1.00
Zn18   Zn    0.25000   0.19693   0.16667   0.00000  Uiso   1.00
N19    N     0.25000   0.12623   0.16667   0.00000  Uiso   1.00
N20    N     0.25000   0.37376   0.16667   0.00000  Uiso   1.00
C21    C     0.24997   0.02541   0.16667   0.00000  Uiso   1.00
C22    C     0.24998   0.47290   0.16667   0.00000  Uiso   1.00
C23    C     0.24991   0.25035   0.02185   0.00000  Uiso   1.00
C24    C     0.25012   0.25035   0.31149   0.00000  Uiso   1.00
C25    C     0.05048   0.29428   0.19433   0.00000  Uiso   1.00
C26    C     0.45727   0.22371   0.19111   0.00000  Uiso   1.00
C27    C     0.45017   0.29503   0.14299   0.00000  Uiso   1.00
C28    C     0.04251   0.22413   0.14427   0.00000  Uiso   1.00
H29    H     0.03480   0.32205   0.21403   0.00000  Uiso   1.00
H30    H     0.47867   0.19753   0.20986   0.00000  Uiso   1.00
H31    H     0.46623   0.32323   0.12436   0.00000  Uiso   1.00
H32    H     0.02084   0.19842   0.12509   0.00000  Uiso   1.00
C33    C     0.09677   0.28891   0.19867   0.00000  Uiso   1.00
C34    C     0.41187   0.21617   0.18439   0.00000  Uiso   1.00
C35    C     0.40391   0.28962   0.13733   0.00000  Uiso   1.00
C36    C     0.08795   0.21669   0.14951   0.00000  Uiso   1.00
C37    C     0.11598   0.25082   0.17387   0.00000  Uiso   1.00
C38    C     0.38421   0.25085   0.16044   0.00000  Uiso   1.00
C39    C     0.02394   0.26201   0.16727   0.00000  Uiso   1.00
C40    C     0.47628   0.26219   0.16970   0.00000  Uiso   1.00
C41    C     0.24125   0.10002   0.12228   0.00000  Uiso   1.00
C42    C     0.27885   0.39853   0.20001   0.00000  Uiso   1.00
C43    C     0.25878   0.10003   0.21105   0.00000  Uiso   1.00
C44    C     0.22115   0.39851   0.13332   0.00000  Uiso   1.00
H45    H     0.23460   0.03134   0.08815   0.00000  Uiso   1.00
H46    H     0.30531   0.46601   0.22201   0.00000  Uiso   1.00
H47    H     0.26537   0.03134   0.24519   0.00000  Uiso   1.00
H48    H     0.19466   0.46598   0.11132   0.00000  Uiso   1.00
C49    C     0.23091   0.11966   0.06965   0.00000  Uiso   1.00
C50    C     0.18304   0.13814   0.06199   0.00000  Uiso   1.00
C51    C     0.16940   0.14957   0.00695   0.00000  Uiso   1.00
H52    H     0.19097   0.17730   0.32676   0.00000  Uiso   1.00
H53    H     0.17176   0.11823   0.31632   0.00000  Uiso   1.00
H54    H     0.13434   0.16207   0.00336   0.00000  Uiso   1.00
H55    H     0.15977   0.11123   0.07443   0.00000  Uiso   1.00
H56    H     0.17932   0.16971   0.08465   0.00000  Uiso   1.00
H57    H     0.25730   0.14290   0.05847   0.00000  Uiso   1.00
H58    H     0.23320   0.09189   0.04094   0.00000  Uiso   1.00
C59    C     0.31099   0.37535   0.23891   0.00000  Uiso   1.00
C60    C     0.29607   0.37869   0.29267   0.00000  Uiso   1.00
C61    C     0.30631   0.42561   0.31794   0.00000  Uiso   1.00
H62    H     0.34108   0.43659   0.31278   0.00000  Uiso   1.00
H63    H     0.28258   0.45249   0.30257   0.00000  Uiso   1.00
H64    H     0.30265   0.42273   0.02567   0.00000  Uiso   1.00
H65    H     0.25984   0.37109   0.29193   0.00000  Uiso   1.00
H66    H     0.31388   0.35149   0.31614   0.00000  Uiso   1.00
H67    H     0.31435   0.33849   0.23127   0.00000  Uiso   1.00
H68    H     0.34504   0.39007   0.23716   0.00000  Uiso   1.00
C69    C     0.26928   0.11967   0.26364   0.00000  Uiso   1.00
C70    C     0.31715   0.13818   0.27112   0.00000  Uiso   1.00
C71    C     0.33091   0.14968   0.32612   0.00000  Uiso   1.00
H72    H     0.30933   0.17737   0.00635   0.00000  Uiso   1.00
H73    H     0.32865   0.11835   0.01679   0.00000  Uiso   1.00
H74    H     0.36595   0.16225   0.32958   0.00000  Uiso   1.00
H75    H     0.34038   0.11126   0.25863   0.00000  Uiso   1.00
H76    H     0.32083   0.16972   0.24841   0.00000  Uiso   1.00
H77    H     0.24294   0.14291   0.27493   0.00000  Uiso   1.00
H78    H     0.26708   0.09191   0.29238   0.00000  Uiso   1.00
C79    C     0.18902   0.37531   0.09440   0.00000  Uiso   1.00
C80    C     0.20395   0.37867   0.04066   0.00000  Uiso   1.00
C81    C     0.19368   0.42557   0.01537   0.00000  Uiso   1.00
H82    H     0.15890   0.43651   0.02051   0.00000  Uiso   1.00
H83    H     0.21739   0.45248   0.03075   0.00000  Uiso   1.00
H84    H     0.19737   0.42269   0.30764   0.00000  Uiso   1.00
H85    H     0.24018   0.37110   0.04140   0.00000  Uiso   1.00
H86    H     0.18617   0.35144   0.01718   0.00000  Uiso   1.00
H87    H     0.18566   0.33846   0.10204   0.00000  Uiso   1.00
H88    H     0.15496   0.39002   0.09615   0.00000  Uiso   1.00
C89    C     0.12386   0.32101   0.23262   0.00000  Uiso   1.00
H90    H     0.15714   0.31137   0.24774   0.00000  Uiso   1.00
O91    O     0.10894   0.35842   0.24490   0.00000  Uiso   1.00
C92    C     0.39651   0.17025   0.20045   0.00000  Uiso   1.00
H93    H     0.40785   0.15712   0.23749   0.00000  Uiso   1.00
O94    O     0.37482   0.14494   0.17095   0.00000  Uiso   1.00
C95    C     0.37747   0.32244   0.10364   0.00000  Uiso   1.00
H96    H     0.34461   0.31290   0.08704   0.00000  Uiso   1.00
O97    O     0.39246   0.36037   0.09325   0.00000  Uiso   1.00
C98    C     0.10314   0.17148   0.13132   0.00000  Uiso   1.00
H99    H     0.09196   0.15992   0.09360   0.00000  Uiso   1.00
O100   O     0.12456   0.14499   0.15972   0.00000  Uiso   1.00
O101   O     0.68453   0.28974   0.16667   0.00000  Uiso   1.00
O102   O     0.81547   0.21026   0.16666   0.00000  Uiso   1.00
O103   O     0.81547   0.28974   0.16666   0.00000  Uiso   1.00
O104   O     0.68453   0.21026   0.16667   0.00000  Uiso   1.00
C105   C     0.66407   0.24999   0.16895   0.00000  Uiso   1.00
C106   C     0.83597   0.24999   0.16447   0.00000  Uiso   1.00
O107   O     0.75000   0.28973   0.09511   0.00000  Uiso   1.00
O108   O     0.75000   0.21027   0.23822   0.00000  Uiso   1.00
O109   O     0.75000   0.28973   0.23822   0.00000  Uiso   1.00
O110   O     0.75000   0.21027   0.09511   0.00000  Uiso   1.00
C111   C     0.74116   0.05069   0.12285   0.00000  Uiso   1.00
C112   C     0.78020   0.44757   0.19840   0.00000  Uiso   1.00
C113   C     0.75881   0.05069   0.21049   0.00000  Uiso   1.00
C114   C     0.71978   0.44755   0.13493   0.00000  Uiso   1.00
C115   C     0.74971   0.25006   0.07302   0.00000  Uiso   1.00
C116   C     0.75031   0.25007   0.26031   0.00000  Uiso   1.00
Zn117  Zn    0.75000   0.30307   0.16667   0.00000  Uiso   1.00
Zn118  Zn    0.75000   0.19693   0.16667   0.00000  Uiso   1.00
N119   N     0.75000   0.12623   0.16667   0.00000  Uiso   1.00
N120   N     0.75000   0.37376   0.16667   0.00000  Uiso   1.00
C121   C     0.74997   0.02541   0.16667   0.00000  Uiso   1.00
C122   C     0.74998   0.47290   0.16667   0.00000  Uiso   1.00
C123   C     0.74991   0.25035   0.02185   0.00000  Uiso   1.00
C124   C     0.75012   0.25035   0.31149   0.00000  Uiso   1.00
C125   C     0.55048   0.29428   0.19433   0.00000  Uiso   1.00
C126   C     0.95727   0.22371   0.19111   0.00000  Uiso   1.00
C127   C     0.95017   0.29503   0.14299   0.00000  Uiso   1.00
C128   C     0.54251   0.22413   0.14427   0.00000  Uiso   1.00
H129   H     0.53480   0.32205   0.21403   0.00000  Uiso   1.00
H130   H     0.97867   0.19753   0.20986   0.00000  Uiso   1.00
H131   H     0.96623   0.32323   0.12436   0.00000  Uiso   1.00
H132   H     0.52084   0.19842   0.12509   0.00000  Uiso   1.00
C133   C     0.59677   0.28891   0.19867   0.00000  Uiso   1.00
C134   C     0.91187   0.21617   0.18439   0.00000  Uiso   1.00
C135   C     0.90391   0.28962   0.13733   0.00000  Uiso   1.00
C136   C     0.58795   0.21669   0.14951   0.00000  Uiso   1.00
C137   C     0.61598   0.25082   0.17387   0.00000  Uiso   1.00
C138   C     0.88421   0.25085   0.16044   0.00000  Uiso   1.00
C139   C     0.52394   0.26201   0.16727   0.00000  Uiso   1.00
C140   C     0.97628   0.26219   0.16970   0.00000  Uiso   1.00
C141   C     0.74125   0.10002   0.12228   0.00000  Uiso   1.00
C142   C     0.77885   0.39853   0.20001   0.00000  Uiso   1.00
C143   C     0.75878   0.10003   0.21105   0.00000  Uiso   1.00
C144   C     0.72115   0.39851   0.13332   0.00000  Uiso   1.00
H145   H     0.73460   0.03134   0.08815   0.00000  Uiso   1.00
H146   H     0.80531   0.46601   0.22201   0.00000  Uiso   1.00
H147   H     0.76537   0.03134   0.24519   0.00000  Uiso   1.00
H148   H     0.69466   0.46598   0.11132   0.00000  Uiso   1.00
C149   C     0.73091   0.11966   0.06965   0.00000  Uiso   1.00
C150   C     0.68304   0.13814   0.06199   0.00000  Uiso   1.00
C151   C     0.66940   0.14957   0.00695   0.00000  Uiso   1.00
H152   H     0.69097   0.17730   0.32676   0.00000  Uiso   1.00
H153   H     0.67176   0.11823   0.31632   0.00000  Uiso   1.00
H154   H     0.63434   0.16207   0.00336   0.00000  Uiso   1.00
H155   H     0.65977   0.11123   0.07443   0.00000  Uiso   1.00
H156   H     0.67932   0.16971   0.08465   0.00000  Uiso   1.00
H157   H     0.75730   0.14290   0.05847   0.00000  Uiso   1.00
H158   H     0.73320   0.09189   0.04094   0.00000  Uiso   1.00
C159   C     0.81099   0.37535   0.23891   0.00000  Uiso   1.00
C160   C     0.79607   0.37869   0.29267   0.00000  Uiso   1.00
C161   C     0.80631   0.42561   0.31794   0.00000  Uiso   1.00
H162   H     0.84108   0.43659   0.31278   0.00000  Uiso   1.00
H163   H     0.78258   0.45249   0.30257   0.00000  Uiso   1.00
H164   H     0.80265   0.42273   0.02567   0.00000  Uiso   1.00
H165   H     0.75984   0.37109   0.29193   0.00000  Uiso   1.00
H166   H     0.81388   0.35149   0.31614   0.00000  Uiso   1.00
H167   H     0.81435   0.33849   0.23127   0.00000  Uiso   1.00
H168   H     0.84504   0.39007   0.23716   0.00000  Uiso   1.00
C169   C     0.76928   0.11967   0.26364   0.00000  Uiso   1.00
C170   C     0.81715   0.13818   0.27112   0.00000  Uiso   1.00
C171   C     0.83091   0.14968   0.32612   0.00000  Uiso   1.00
H172   H     0.80933   0.17737   0.00635   0.00000  Uiso   1.00
H173   H     0.82865   0.11835   0.01679   0.00000  Uiso   1.00
H174   H     0.86595   0.16225   0.32958   0.00000  Uiso   1.00
H175   H     0.84038   0.11126   0.25863   0.00000  Uiso   1.00
H176   H     0.82083   0.16972   0.24841   0.00000  Uiso   1.00
H177   H     0.74294   0.14291   0.27493   0.00000  Uiso   1.00
H178   H     0.76708   0.09191   0.29238   0.00000  Uiso   1.00
C179   C     0.68902   0.37531   0.09440   0.00000  Uiso   1.00
C180   C     0.70395   0.37867   0.04066   0.00000  Uiso   1.00
C181   C     0.69368   0.42557   0.01537   0.00000  Uiso   1.00
H182   H     0.65890   0.43651   0.02051   0.00000  Uiso   1.00
H183   H     0.71739   0.45248   0.03075   0.00000  Uiso   1.00
H184   H     0.69737   0.42269   0.30764   0.00000  Uiso   1.00
H185   H     0.74018   0.37110   0.04140   0.00000  Uiso   1.00
H186   H     0.68617   0.35144   0.01718   0.00000  Uiso   1.00
H187   H     0.68566   0.33846   0.10204   0.00000  Uiso   1.00
H188   H     0.65496   0.39002   0.09615   0.00000  Uiso   1.00
C189   C     0.62386   0.32101   0.23262   0.00000  Uiso   1.00
H190   H     0.65714   0.31137   0.24774   0.00000  Uiso   1.00
O191   O     0.60894   0.35842   0.24490   0.00000  Uiso   1.00
C192   C     0.89651   0.17025   0.20045   0.00000  Uiso   1.00
H193   H     0.90785   0.15712   0.23749   0.00000  Uiso   1.00
O194   O     0.87482   0.14494   0.17095   0.00000  Uiso   1.00
C195   C     0.87747   0.32244   0.10364   0.00000  Uiso   1.00
H196   H     0.84461   0.31290   0.08704   0.00000  Uiso   1.00
O197   O     0.89246   0.36037   0.09325   0.00000  Uiso   1.00
C198   C     0.60314   0.17148   0.13132   0.00000  Uiso   1.00
H199   H     0.59196   0.15992   0.09360   0.00000  Uiso   1.00
O200   O     0.62456   0.14499   0.15972   0.00000  Uiso   1.00
O201   O     0.18453   0.78974   0.16667   0.00000  Uiso   1.00
O202   O     0.31547   0.71026   0.16666   0.00000  Uiso   1.00
O203   O     0.31547   0.78974   0.16666   0.00000  Uiso   1.00
O204   O     0.18453   0.71026   0.16667   0.00000  Uiso   1.00
C205   C     0.16407   0.74999   0.16895   0.00000  Uiso   1.00
C206   C     0.33597   0.74999   0.16447   0.00000  Uiso   1.00
O207   O     0.25000   0.78973   0.09511   0.00000  Uiso   1.00
O208   O     0.25000   0.71027   0.23822   0.00000  Uiso   1.00
O209   O     0.25000   0.78973   0.23822   0.00000  Uiso   1.00
O210   O     0.25000   0.71027   0.09511   0.00000  Uiso   1.00
C211   C     0.24116   0.55069   0.12285   0.00000  Uiso   1.00
C212   C     0.28020   0.94757   0.19840   0.00000  Uiso   1.00
C213   C     0.25881   0.55069   0.21049   0.00000  Uiso   1.00
C214   C     0.21978   0.94755   0.13493   0.00000  Uiso   1.00
C215   C     0.24971   0.75006   0.07302   0.00000  Uiso   1.00
C216   C     0.25031   0.75007   0.26031   0.00000  Uiso   1.00
Zn217  Zn    0.25000   0.80307   0.16667   0.00000  Uiso   1.00
Zn218  Zn    0.25000   0.69693   0.16667   0.00000  Uiso   1.00
N219   N     0.25000   0.62623   0.16667   0.00000  Uiso   1.00
N220   N     0.25000   0.87376   0.16667   0.00000  Uiso   1.00
C221   C     0.24997   0.52541   0.16667   0.00000  Uiso   1.00
C222   C     0.24998   0.97290   0.16667   0.00000  Uiso   1.00
C223   C     0.24991   0.75035   0.02185   0.00000  Uiso   1.00
C224   C     0.25012   0.75035   0.31149   0.00000  Uiso   1.00
C225   C     0.05048   0.79428   0.19433   0.00000  Uiso   1.00
C226   C     0.45727   0.72371   0.19111   0.00000  Uiso   1.00
C227   C     0.45017   0.79503   0.14299   0.00000  Uiso   1.00
C228   C     0.04251   0.72413   0.14427   0.00000  Uiso   1.00
H229   H     0.03480   0.82205   0.21403   0.00000  Uiso   1.00
H230   H     0.47867   0.69753   0.20986   0.00000  Uiso   1.00
H231   H     0.46623   0.82323   0.12436   0.00000  Uiso   1.00
H232   H     0.02084   0.69842   0.12509   0.00000  Uiso   1.00
C233   C     0.09677   0.78891   0.19867   0.00000  Uiso   1.00
C234   C     0.41187   0.71617   0.18439   0.00000  Uiso   1.00
C235   C     0.40391   0.78962   0.13733   0.00000  Uiso   1.00
C236   C     0.08795   0.71669   0.14951   0.00000  Uiso   1.00
C237   C     0.11598   0.75082   0.17387   0.00000  Uiso   1.00
C238   C     0.38421   0.75085   0.16044   0.00000  Uiso   1.00
C239   C     0.02394   0.76201   0.16727   0.00000  Uiso   1.00
C240   C     0.47628   0.76219   0.16970   0.00000  Uiso   1.00
C241   C     0.24125   0.60002   0.12228   0.00000  Uiso   1.00
C242   C     0.27885   0.89853   0.20001   0.00000  Uiso   1.00
C243   C     0.25878   0.60003   0.21105   0.00000  Uiso   1.00
C244   C     0.22115   0.89851   0.13332   0.00000  Uiso   1.00
H245   H     0.23460   0.53134   0.08815   0.00000  Uiso   1.00
H246   H     0.30531   0.96601   0.22201   0.00000  Uiso   1.00
H247   H     0.26537   0.53134   0.24519   0.00000  Uiso   1.00
H248   H     0.19466   0.96598   0.11132   0.00000  Uiso   1.00
C249   C     0.23091   0.61966   0.06965   0.00000  Uiso   1.00
C250   C     0.18304   0.63814   0.06199   0.00000  Uiso   1.00
C251   C     0.16940   0.64957   0.00695   0.00000  Uiso   1.00
H252   H     0.19097   0.67730   0.32676   0.00000  Uiso   1.00
H253   H     0.17176   0.61823   0.31632   0.00000  Uiso   1.00
H254   H     0.13434   0.66207   0.00336   0.00000  Uiso   1.00
H255   H     0.15977   0.61123   0.07443   0.00000  Uiso   1.00
H256   H     0.17932   0.66971   0.08465   0.00000  Uiso   1.00
H257   H     0.25730   0.64290   0.05847   0.00000  Uiso   1.00
H258   H     0.23320   0.59189   0.04094   0.00000  Uiso   1.00
C259   C     0.31099   0.87535   0.23891   0.00000  Uiso   1.00
C260   C     0.29607   0.87869   0.29267   0.00000  Uiso   1.00
C261   C     0.30631   0.92561   0.31794   0.00000  Uiso   1.00
H262   H     0.34108   0.93659   0.31278   0.00000  Uiso   1.00
H263   H     0.28258   0.95249   0.30257   0.00000  Uiso   1.00
H264   H     0.30265   0.92273   0.02567   0.00000  Uiso   1.00
H265   H     0.25984   0.87109   0.29193   0.00000  Uiso   1.00
H266   H     0.31388   0.85149   0.31614   0.00000  Uiso   1.00
H267   H     0.31435   0.83849   0.23127   0.00000  Uiso   1.00
H268   H     0.34504   0.89007   0.23716   0.00000  Uiso   1.00
C269   C     0.26928   0.61967   0.26364   0.00000  Uiso   1.00
C270   C     0.31715   0.63818   0.27112   0.00000  Uiso   1.00
C271   C     0.33091   0.64968   0.32612   0.00000  Uiso   1.00
H272   H     0.30933   0.67737   0.00635   0.00000  Uiso   1.00
H273   H     0.32865   0.61835   0.01679   0.00000  Uiso   1.00
H274   H     0.36595   0.66225   0.32958   0.00000  Uiso   1.00
H275   H     0.34038   0.61126   0.25863   0.00000  Uiso   1.00
H276   H     0.32083   0.66972   0.24841   0.00000  Uiso   1.00
H277   H     0.24294   0.64291   0.27493   0.00000  Uiso   1.00
H278   H     0.26708   0.59191   0.29238   0.00000  Uiso   1.00
C279   C     0.18902   0.87531   0.09440   0.00000  Uiso   1.00
C280   C     0.20395   0.87867   0.04066   0.00000  Uiso   1.00
C281   C     0.19368   0.92557   0.01537   0.00000  Uiso   1.00
H282   H     0.15890   0.93651   0.02051   0.00000  Uiso   1.00
H283   H     0.21739   0.95248   0.03075   0.00000  Uiso   1.00
H284   H     0.19737   0.92269   0.30764   0.00000  Uiso   1.00
H285   H     0.24018   0.87110   0.04140   0.00000  Uiso   1.00
H286   H     0.18617   0.85144   0.01718   0.00000  Uiso   1.00
H287   H     0.18566   0.83846   0.10204   0.00000  Uiso   1.00
H288   H     0.15496   0.89002   0.09615   0.00000  Uiso   1.00
C289   C     0.12386   0.82101   0.23262   0.00000  Uiso   1.00
H290   H     0.15714   0.81137   0.24774   0.00000  Uiso   1.00
O291   O     0.10894   0.85842   0.24490   0.00000  Uiso   1.00
C292   C     0.39651   0.67025   0.20045   0.00000  Uiso   1.00
H293   H     0.40785   0.65712   0.23749   0.00000  Uiso   1.00
O294   O     0.37482   0.64494   0.17095   0.00000  Uiso   1.00
C295   C     0.37747   0.82244   0.10364   0.00000  Uiso   1.00
H296   H     0.34461   0.81290   0.08704   0.00000  Uiso   1.00
O297   O     0.39246   0.86037   0.09325   0.00000  Uiso   1.00
C298   C     0.10314   0.67148   0.13132   0.00000  Uiso   1.00
H299   H     0.09196   0.65992   0.09360   0.00000  Uiso   1.00
O300   O     0.12456   0.64499   0.15972   0.00000  Uiso   1.00
O301   O     0.68453   0.78974   0.16667   0.00000  Uiso   1.00
O302   O     0.81547   0.71026   0.16666   0.00000  Uiso   1.00
O303   O     0.81547   0.78974   0.16666   0.00000  Uiso   1.00
O304   O     0.68453   0.71026   0.16667   0.00000  Uiso   1.00
C305   C     0.66407   0.74999   0.16895   0.00000  Uiso   1.00
C306   C     0.83597   0.74999   0.16447   0.00000  Uiso   1.00
O307   O     0.75000   0.78973   0.09511   0.00000  Uiso   1.00
O308   O     0.75000   0.71027   0.23822   0.00000  Uiso   1.00
O309   O     0.75000   0.78973   0.23822   0.00000  Uiso   1.00
O310   O     0.75000   0.71027   0.09511   0.00000  Uiso   1.00
C311   C     0.74116   0.55069   0.12285   0.00000  Uiso   1.00
C312   C     0.78020   0.94757   0.19840   0.00000  Uiso   1.00
C313   C     0.75881   0.55069   0.21049   0.00000  Uiso   1.00
C314   C     0.71978   0.94755   0.13493   0.00000  Uiso   1.00
C315   C     0.74971   0.75006   0.07302   0.00000  Uiso   1.00
C316   C     0.75031   0.75007   0.26031   0.00000  Uiso   1.00
Zn317  Zn    0.75000   0.80307   0.16667   0.00000  Uiso   1.00
Zn318  Zn    0.75000   0.69693   0.16667   0.00000  Uiso   1.00
N319   N     0.75000   0.62623   0.16667   0.00000  Uiso   1.00
N320   N     0.75000   0.87376   0.16667   0.00000  Uiso   1.00
C321   C     0.74997   0.52541   0.16667   0.00000  Uiso   1.00
C322   C     0.74998   0.97290   0.16667   0.00000  Uiso   1.00
C323   C     0.74991   0.75035   0.02185   0.00000  Uiso   1.00
C324   C     0.75012   0.75035   0.31149   0.00000  Uiso   1.00
C325   C     0.55048   0.79428   0.19433   0.00000  Uiso   1.00
C326   C     0.95727   0.72371   0.19111   0.00000  Uiso   1.00
C327   C     0.95017   0.79503   0.14299   0.00000  Uiso   1.00
C328   C     0.54251   0.72413   0.14427   0.00000  Uiso   1.00
H329   H     0.53480   0.82205   0.21403   0.00000  Uiso   1.00
H330   H     0.97867   0.69753   0.20986   0.00000  Uiso   1.00
H331   H     0.96623   0.82323   0.12436   0.00000  Uiso   1.00
H332   H     0.52084   0.69842   0.12509   0.00000  Uiso   1.00
C333   C     0.59677   0.78891   0.19867   0.00000  Uiso   1.00
C334   C     0.91187   0.71617   0.18439   0.00000  Uiso   1.00
C335   C     0.90391   0.78962   0.13733   0.00000  Uiso   1.00
C336   C     0.58795   0.71669   0.14951   0.00000  Uiso   1.00
C337   C     0.61598   0.75082   0.17387   0.00000  Uiso   1.00
C338   C     0.88421   0.75085   0.16044   0.00000  Uiso   1.00
C339   C     0.52394   0.76201   0.16727   0.00000  Uiso   1.00
C340   C     0.97628   0.76219   0.16970   0.00000  Uiso   1.00
C341   C     0.74125   0.60002   0.12228   0.00000  Uiso   1.00
C342   C     0.77885   0.89853   0.20001   0.00000  Uiso   1.00
C343   C     0.75878   0.60003   0.21105   0.00000  Uiso   1.00
C344   C     0.72115   0.89851   0.13332   0.00000  Uiso   1.00
H345   H     0.73460   0.53134   0.08815   0.00000  Uiso   1.00
H346   H     0.80531   0.96601   0.22201   0.00000  Uiso   1.00
H347   H     0.76537   0.53134   0.24519   0.00000  Uiso   1.00
H348   H     0.69466   0.96598   0.11132   0.00000  Uiso   1.00
C349   C     0.73091   0.61966   0.06965   0.00000  Uiso   1.00
C350   C     0.68304   0.63814   0.06199   0.00000  Uiso   1.00
C351   C     0.66940   0.64957   0.00695   0.00000  Uiso   1.00
H352   H     0.69097   0.67730   0.32676   0.00000  Uiso   1.00
H353   H     0.67176   0.61823   0.31632   0.00000  Uiso   1.00
H354   H     0.63434   0.66207   0.00336   0.00000  Uiso   1.00
H355   H     0.65977   0.61123   0.07443   0.00000  Uiso   1.00
H356   H     0.67932   0.66971   0.08465   0.00000  Uiso   1.00
H357   H     0.75730   0.64290   0.05847   0.00000  Uiso   1.00
H358   H     0.73320   0.59189   0.04094   0.00000  Uiso   1.00
C359   C     0.81099   0.87535   0.23891   0.00000  Uiso   1.00
C360   C     0.79607   0.87869   0.29267   0.00000  Uiso   1.00
C361   C     0.80631   0.92561   0.31794   0.00000  Uiso   1.00
H362   H     0.84108   0.93659   0.31278   0.00000  Uiso   1.00
H363   H     0.78258   0.95249   0.30257   0.00000  Uiso   1.00
H364   H     0.80265   0.92273   0.02567   0.00000  Uiso   1.00
H365   H     0.75984   0.87109   0.29193   0.00000  Uiso   1.00
H366   H     0.81388   0.85149   0.31614   0.00000  Uiso   1.00
H367   H     0.81435   0.83849   0.23127   0.00000  Uiso   1.00
H368   H     0.84504   0.89007   0.23716   0.00000  Uiso   1.00
C369   C     0.76928   0.61967   0.26364   0.00000  Uiso   1.00
C370   C     0.81715   0.63818   0.27112   0.00000  Uiso   1.00
C371   C     0.83091   0.64968   0.32612   0.00000  Uiso   1.00
H372   H     0.80933   0.67737   0.00635   0.00000  Uiso   1.00
H373   H     0.82865   0.61835   0.01679   0.00000  Uiso   1.00
H374   H     0.86595   0.66225   0.32958   0.00000  Uiso   1.00
H375   H     0.84038   0.61126   0.25863   0.00000  Uiso   1.00
H376   H     0.82083   0.66972   0.24841   0.00000  Uiso   1.00
H377   H     0.74294   0.64291   0.27493   0.00000  Uiso   1.00
H378   H     0.76708   0.59191   0.29238   0.00000  Uiso   1.00
C379   C     0.68902   0.87531   0.09440   0.00000  Uiso   1.00
C380   C     0.70395   0.87867   0.04066   0.00000  Uiso   1.00
C381   C     0.69368   0.92557   0.01537   0.00000  Uiso   1.00
H382   H     0.65890   0.93651   0.02051   0.00000  Uiso   1.00
H383   H     0.71739   0.95248   0.03075   0.00000  Uiso   1.00
H384   H     0.69737   0.92269   0.30764   0.00000  Uiso   1.00
H385   H     0.74018   0.87110   0.04140   0.00000  Uiso   1.00
H386   H     0.68617   0.85144   0.01718   0.00000  Uiso   1.00
H387   H     0.68566   0.83846   0.10204   0.00000  Uiso   1.00
H388   H     0.65496   0.89002   0.09615   0.00000  Uiso   1.00
C389   C     0.62386   0.82101   0.23262   0.00000  Uiso   1.00
H390   H     0.65714   0.81137   0.24774   0.00000  Uiso   1.00
O391   O     0.60894   0.85842   0.24490   0.00000  Uiso   1.00
C392   C     0.89651   0.67025   0.20045   0.00000  Uiso   1.00
H393   H     0.90785   0.65712   0.23749   0.00000  Uiso   1.00
O394   O     0.87482   0.64494   0.17095   0.00000  Uiso   1.00
C395   C     0.87747   0.82244   0.10364   0.00000  Uiso   1.00
H396   H     0.84461   0.81290   0.08704   0.00000  Uiso   1.00
O397   O     0.89246   0.86037   0.09325   0.00000  Uiso   1.00
C398   C     0.60314   0.67148   0.13132   0.00000  Uiso   1.00
H399   H     0.59196   0.65992   0.09360   0.00000  Uiso   1.00
O400   O     0.62456   0.64499   0.15972   0.00000  Uiso   1.00
O401   O     0.18453   0.28974   0.50000   0.00000  Uiso   1.00
O402   O     0.31547   0.21026   0.50000   0.00000  Uiso   1.00
O403   O     0.31547   0.28974   0.50000   0.00000  Uiso   1.00
O404   O     0.18453   0.21026   0.50000   0.00000  Uiso   1.00
C405   C     0.16407   0.24999   0.50229   0.00000  Uiso   1.00
C406   C     0.33597   0.24999   0.49781   0.00000  Uiso   1.00
O407   O     0.25000   0.28973   0.42845   0.00000  Uiso   1.00
O408   O     0.25000   0.21027   0.57155   0.00000  Uiso   1.00
O409   O     0.25000   0.28973   0.57155   0.00000  Uiso   1.00
O410   O     0.25000   0.21027   0.42845   0.00000  Uiso   1.00
C411   C     0.24116   0.05069   0.45618   0.00000  Uiso   1.00
C412   C     0.28020   0.44757   0.53173   0.00000  Uiso   1.00
C413   C     0.25881   0.05069   0.54382   0.00000  Uiso   1.00
C414   C     0.21978   0.44755   0.46827   0.00000  Uiso   1.00
C415   C     0.24971   0.25006   0.40635   0.00000  Uiso   1.00
C416   C     0.25031   0.25007   0.59365   0.00000  Uiso   1.00
Zn417  Zn    0.25000   0.30307   0.50000   0.00000  Uiso   1.00
Zn418  Zn    0.25000   0.19693   0.50000   0.00000  Uiso   1.00
N419   N     0.25000   0.12623   0.50000   0.00000  Uiso   1.00
N420   N     0.25000   0.37376   0.50000   0.00000  Uiso   1.00
C421   C     0.24997   0.02541   0.50001   0.00000  Uiso   1.00
C422   C     0.24998   0.47290   0.50000   0.00000  Uiso   1.00
C423   C     0.24991   0.25035   0.35518   0.00000  Uiso   1.00
C424   C     0.25012   0.25035   0.64482   0.00000  Uiso   1.00
C425   C     0.05048   0.29428   0.52766   0.00000  Uiso   1.00
C426   C     0.45727   0.22371   0.52445   0.00000  Uiso   1.00
C427   C     0.45017   0.29503   0.47632   0.00000  Uiso   1.00
C428   C     0.04251   0.22413   0.47761   0.00000  Uiso   1.00
H429   H     0.03480   0.32205   0.54737   0.00000  Uiso   1.00
H430   H     0.47867   0.19753   0.54319   0.00000  Uiso   1.00
H431   H     0.46623   0.32323   0.45769   0.00000  Uiso   1.00
H432   H     0.02084   0.19842   0.45842   0.00000  Uiso   1.00
C433   C     0.09677   0.28891   0.53200   0.00000  Uiso   1.00
C434   C     0.41187   0.21617   0.51772   0.00000  Uiso   1.00
C435   C     0.40391   0.28962   0.47066   0.00000  Uiso   1.00
C436   C     0.08795   0.21669   0.48285   0.00000  Uiso   1.00
C437   C     0.11598   0.25082   0.50720   0.00000  Uiso   1.00
C438   C     0.38421   0.25085   0.49377   0.00000  Uiso   1.00
C439   C     0.02394   0.26201   0.50060   0.00000  Uiso   1.00
C440   C     0.47628   0.26219   0.50303   0.00000  Uiso   1.00
C441   C     0.24125   0.10002   0.45561   0.00000  Uiso   1.00
C442   C     0.27885   0.39853   0.53334   0.00000  Uiso   1.00
C443   C     0.25878   0.10003   0.54438   0.00000  Uiso   1.00
C444   C     0.22115   0.39851   0.46665   0.00000  Uiso   1.00
H445   H     0.23460   0.03134   0.42148   0.00000  Uiso   1.00
H446   H     0.30531   0.46601   0.55534   0.00000  Uiso   1.00
H447   H     0.26537   0.03134   0.57853   0.00000  Uiso   1.00
H448   H     0.19466   0.46598   0.44465   0.00000  Uiso   1.00
C449   C     0.23091   0.11966   0.40299   0.00000  Uiso   1.00
C450   C     0.18304   0.13814   0.39532   0.00000  Uiso   1.00
C451   C     0.16940   0.14957   0.34028   0.00000  Uiso   1.00
H452   H     0.19097   0.17730   0.66010   0.00000  Uiso   1.00
H453   H     0.17176   0.11823   0.64966   0.00000  Uiso   1.00
H454   H     0.13434   0.16207   0.33669   0.00000  Uiso   1.00
H455   H     0.15977   0.11123   0.40776   0.00000  Uiso   1.00
H456   H     0.17932   0.16971   0.41798   0.00000  Uiso   1.00
H457   H     0.25730   0.14290   0.39180   0.00000  Uiso   1.00
H458   H     0.23320   0.09189   0.37427   0.00000  Uiso   1.00
C459   C     0.31099   0.37535   0.57225   0.00000  Uiso   1.00
C460   C     0.29607   0.37869   0.62600   0.00000  Uiso   1.00
C461   C     0.30631   0.42561   0.65127   0.00000  Uiso   1.00
H462   H     0.34108   0.43659   0.64611   0.00000  Uiso   1.00
H463   H     0.28258   0.45249   0.63590   0.00000  Uiso   1.00
H464   H     0.30265   0.42273   0.35901   0.00000  Uiso   1.00
H465   H     0.25984   0.37109   0.62527   0.00000  Uiso   1.00
H466   H     0.31388   0.35149   0.64947   0.00000  Uiso   1.00
H467   H     0.31435   0.33849   0.56461   0.00000  Uiso   1.00
H468   H     0.34504   0.39007   0.57049   0.00000  Uiso   1.00
C469   C     0.26928   0.11967   0.59698   0.00000  Uiso   1.00
C470   C     0.31715   0.13818   0.60445   0.00000  Uiso   1.00
C471   C     0.33091   0.14968   0.65945   0.00000  Uiso   1.00
H472   H     0.30933   0.17737   0.33969   0.00000  Uiso   1.00
H473   H     0.32865   0.11835   0.35012   0.00000  Uiso   1.00
H474   H     0.36595   0.16225   0.66292   0.00000  Uiso   1.00
H475   H     0.34038   0.11126   0.59196   0.00000  Uiso   1.00
H476   H     0.32083   0.16972   0.58174   0.00000  Uiso   1.00
H477   H     0.24294   0.14291   0.60826   0.00000  Uiso   1.00
H478   H     0.26708   0.09191   0.62572   0.00000  Uiso   1.00
C479   C     0.18902   0.37531   0.42774   0.00000  Uiso   1.00
C480   C     0.20395   0.37867   0.37399   0.00000  Uiso   1.00
C481   C     0.19368   0.42557   0.34870   0.00000  Uiso   1.00
H482   H     0.15890   0.43651   0.35384   0.00000  Uiso   1.00
H483   H     0.21739   0.45248   0.36409   0.00000  Uiso   1.00
H484   H     0.19737   0.42269   0.64098   0.00000  Uiso   1.00
H485   H     0.24018   0.37110   0.37473   0.00000  Uiso   1.00
H486   H     0.18617   0.35144   0.35052   0.00000  Uiso   1.00
H487   H     0.18566   0.33846   0.43537   0.00000  Uiso   1.00
H488   H     0.15496   0.39002   0.42948   0.00000  Uiso   1.00
C489   C     0.12386   0.32101   0.56595   0.00000  Uiso   1.00
H490   H     0.15714   0.31137   0.58108   0.00000  Uiso   1.00
O491   O     0.10894   0.35842   0.57824   0.00000  Uiso   1.00
C492   C     0.39651   0.17025   0.53378   0.00000  Uiso   1.00
H493   H     0.40785   0.15712   0.57082   0.00000  Uiso   1.00
O494   O     0.37482   0.14494   0.50428   0.00000  Uiso   1.00
C495   C     0.37747   0.32244   0.43697   0.00000  Uiso   1.00
H496   H     0.34461   0.31290   0.42037   0.00000  Uiso   1.00
O497   O     0.39246   0.36037   0.42659   0.00000  Uiso   1.00
C498   C     0.10314   0.17148   0.46465   0.00000  Uiso   1.00
H499   H     0.09196   0.15992   0.42694   0.00000  Uiso   1.00
O500   O     0.12456   0.14499   0.49306   0.00000  Uiso   1.00
O501   O     0.68453   0.28974   0.50000   0.00000  Uiso   1.00
O502   O     0.81547   0.21026   0.50000   0.00000  Uiso   1.00
O503   O     0.81547   0.28974   0.50000   0.00000  Uiso   1.00
O504   O     0.68453   0.21026   0.50000   0.00000  Uiso   1.00
C505   C     0.66407   0.24999   0.50229   0.00000  Uiso   1.00
C506   C     0.83597   0.24999   0.49781   0.00000  Uiso   1.00
O507   O     0.75000   0.28973   0.42845   0.00000  Uiso   1.00
O508   O     0.75000   0.21027   0.57155   0.00000  Uiso   1.00
O509   O     0.75000   0.28973   0.57155   0.00000  Uiso   1.00
O510   O     0.75000   0.21027   0.42845   0.00000  Uiso   1.00
C511   C     0.74116   0.05069   0.45618   0.00000  Uiso   1.00
C512   C     0.78020   0.44757   0.53173   0.00000  Uiso   1.00
C513   C     0.75881   0.05069   0.54382   0.00000  Uiso   1.00
C514   C     0.71978   0.44755   0.46827   0.00000  Uiso   1.00
C515   C     0.74971   0.25006   0.40635   0.00000  Uiso   1.00
C516   C     0.75031   0.25007   0.59365   0.00000  Uiso   1.00
Zn517  Zn    0.75000   0.30307   0.50000   0.00000  Uiso   1.00
Zn518  Zn    0.75000   0.19693   0.50000   0.00000  Uiso   1.00
N519   N     0.75000   0.12623   0.50000   0.00000  Uiso   1.00
N520   N     0.75000   0.37376   0.50000   0.00000  Uiso   1.00
C521   C     0.74997   0.02541   0.50001   0.00000  Uiso   1.00
C522   C     0.74998   0.47290   0.50000   0.00000  Uiso   1.00
C523   C     0.74991   0.25035   0.35518   0.00000  Uiso   1.00
C524   C     0.75012   0.25035   0.64482   0.00000  Uiso   1.00
C525   C     0.55048   0.29428   0.52766   0.00000  Uiso   1.00
C526   C     0.95727   0.22371   0.52445   0.00000  Uiso   1.00
C527   C     0.95017   0.29503   0.47632   0.00000  Uiso   1.00
C528   C     0.54251   0.22413   0.47761   0.00000  Uiso   1.00
H529   H     0.53480   0.32205   0.54737   0.00000  Uiso   1.00
H530   H     0.97867   0.19753   0.54319   0.00000  Uiso   1.00
H531   H     0.96623   0.32323   0.45769   0.00000  Uiso   1.00
H532   H     0.52084   0.19842   0.45842   0.00000  Uiso   1.00
C533   C     0.59677   0.28891   0.53200   0.00000  Uiso   1.00
C534   C     0.91187   0.21617   0.51772   0.00000  Uiso   1.00
C535   C     0.90391   0.28962   0.47066   0.00000  Uiso   1.00
C536   C     0.58795   0.21669   0.48285   0.00000  Uiso   1.00
C537   C     0.61598   0.25082   0.50720   0.00000  Uiso   1.00
C538   C     0.88421   0.25085   0.49377   0.00000  Uiso   1.00
C539   C     0.52394   0.26201   0.50060   0.00000  Uiso   1.00
C540   C     0.97628   0.26219   0.50303   0.00000  Uiso   1.00
C541   C     0.74125   0.10002   0.45561   0.00000  Uiso   1.00
C542   C     0.77885   0.39853   0.53334   0.00000  Uiso   1.00
C543   C     0.75878   0.10003   0.54438   0.00000  Uiso   1.00
C544   C     0.72115   0.39851   0.46665   0.00000  Uiso   1.00
H545   H     0.73460   0.03134   0.42148   0.00000  Uiso   1.00
H546   H     0.80531   0.46601   0.55534   0.00000  Uiso   1.00
H547   H     0.76537   0.03134   0.57853   0.00000  Uiso   1.00
H548   H     0.69466   0.46598   0.44465   0.00000  Uiso   1.00
C549   C     0.73091   0.11966   0.40299   0.00000  Uiso   1.00
C550   C     0.68304   0.13814   0.39532   0.00000  Uiso   1.00
C551   C     0.66940   0.14957   0.34028   0.00000  Uiso   1.00
H552   H     0.69097   0.17730   0.66010   0.00000  Uiso   1.00
H553   H     0.67176   0.11823   0.64966   0.00000  Uiso   1.00
H554   H     0.63434   0.16207   0.33669   0.00000  Uiso   1.00
H555   H     0.65977   0.11123   0.40776   0.00000  Uiso   1.00
H556   H     0.67932   0.16971   0.41798   0.00000  Uiso   1.00
H557   H     0.75730   0.14290   0.39180   0.00000  Uiso   1.00
H558   H     0.73320   0.09189   0.37427   0.00000  Uiso   1.00
C559   C     0.81099   0.37535   0.57225   0.00000  Uiso   1.00
C560   C     0.79607   0.37869   0.62600   0.00000  Uiso   1.00
C561   C     0.80631   0.42561   0.65127   0.00000  Uiso   1.00
H562   H     0.84108   0.43659   0.64611   0.00000  Uiso   1.00
H563   H     0.78258   0.45249   0.63590   0.00000  Uiso   1.00
H564   H     0.80265   0.42273   0.35901   0.00000  Uiso   1.00
H565   H     0.75984   0.37109   0.62527   0.00000  Uiso   1.00
H566   H     0.81388   0.35149   0.64947   0.00000  Uiso   1.00
H567   H     0.81435   0.33849   0.56461   0.00000  Uiso   1.00
H568   H     0.84504   0.39007   0.57049   0.00000  Uiso   1.00
C569   C     0.76928   0.11967   0.59698   0.00000  Uiso   1.00
C570   C     0.81715   0.13818   0.60445   0.00000  Uiso   1.00
C571   C     0.83091   0.14968   0.65945   0.00000  Uiso   1.00
H572   H     0.80933   0.17737   0.33969   0.00000  Uiso   1.00
H573   H     0.82865   0.11835   0.35012   0.00000  Uiso   1.00
H574   H     0.86595   0.16225   0.66292   0.00000  Uiso   1.00
H575   H     0.84038   0.11126   0.59196   0.00000  Uiso   1.00
H576   H     0.82083   0.16972   0.58174   0.00000  Uiso   1.00
H577   H     0.74294   0.14291   0.60826   0.00000  Uiso   1.00
H578   H     0.76708   0.09191   0.62572   0.00000  Uiso   1.00
C579   C     0.68902   0.37531   0.42774   0.00000  Uiso   1.00
C580   C     0.70395   0.37867   0.37399   0.00000  Uiso   1.00
C581   C     0.69368   0.42557   0.34870   0.00000  Uiso   1.00
H582   H     0.65890   0.43651   0.35384   0.00000  Uiso   1.00
H583   H     0.71739   0.45248   0.36409   0.00000  Uiso   1.00
H584   H     0.69737   0.42269   0.64098   0.00000  Uiso   1.00
H585   H     0.74018   0.37110   0.37473   0.00000  Uiso   1.00
H586   H     0.68617   0.35144   0.35052   0.00000  Uiso   1.00
H587   H     0.68566   0.33846   0.43537   0.00000  Uiso   1.00
H588   H     0.65496   0.39002   0.42948   0.00000  Uiso   1.00
C589   C     0.62386   0.32101   0.56595   0.00000  Uiso   1.00
H590   H     0.65714   0.31137   0.58108   0.00000  Uiso   1.00
O591   O     0.60894   0.35842   0.57824   0.00000  Uiso   1.00
C592   C     0.89651   0.17025   0.53378   0.00000  Uiso   1.00
H593   H     0.90785   0.15712   0.57082   0.00000  Uiso   1.00
O594   O     0.87482   0.14494   0.50428   0.00000  Uiso   1.00
C595   C     0.87747   0.32244   0.43697   0.00000  Uiso   1.00
H596   H     0.84461   0.31290   0.42037   0.00000  Uiso   1.00
O597   O     0.89246   0.36037   0.42659   0.00000  Uiso   1.00
C598   C     0.60314   0.17148   0.46465   0.00000  Uiso   1.00
H599   H     0.59196   0.15992   0.42694   0.00000  Uiso   1.00
O600   O     0.62456   0.14499   0.49306   0.00000  Uiso   1.00
O601   O     0.18453   0.78974   0.50000   0.00000  Uiso   1.00
O602   O     0.31547   0.71026   0.50000   0.00000  Uiso   1.00
O603   O     0.31547   0.78974   0.50000   0.00000  Uiso   1.00
O604   O     0.18453   0.71026   0.50000   0.00000  Uiso   1.00
C605   C     0.16407   0.74999   0.50229   0.00000  Uiso   1.00
C606   C     0.33597   0.74999   0.49781   0.00000  Uiso   1.00
O607   O     0.25000   0.78973   0.42845   0.00000  Uiso   1.00
O608   O     0.25000   0.71027   0.57155   0.00000  Uiso   1.00
O609   O     0.25000   0.78973   0.57155   0.00000  Uiso   1.00
O610   O     0.25000   0.71027   0.42845   0.00000  Uiso   1.00
C611   C     0.24116   0.55069   0.45618   0.00000  Uiso   1.00
C612   C     0.28020   0.94757   0.53173   0.00000  Uiso   1.00
C613   C     0.25881   0.55069   0.54382   0.00000  Uiso   1.00
C614   C     0.21978   0.94755   0.46827   0.00000  Uiso   1.00
C615   C     0.24971   0.75006   0.40635   0.00000  Uiso   1.00
C616   C     0.25031   0.75007   0.59365   0.00000  Uiso   1.00
Zn617  Zn    0.25000   0.80307   0.50000   0.00000  Uiso   1.00
Zn618  Zn    0.25000   0.69693   0.50000   0.00000  Uiso   1.00
N619   N     0.25000   0.62623   0.50000   0.00000  Uiso   1.00
N620   N     0.25000   0.87376   0.50000   0.00000  Uiso   1.00
C621   C     0.24997   0.52541   0.50001   0.00000  Uiso   1.00
C622   C     0.24998   0.97290   0.50000   0.00000  Uiso   1.00
C623   C     0.24991   0.75035   0.35518   0.00000  Uiso   1.00
C624   C     0.25012   0.75035   0.64482   0.00000  Uiso   1.00
C625   C     0.05048   0.79428   0.52766   0.00000  Uiso   1.00
C626   C     0.45727   0.72371   0.52445   0.00000  Uiso   1.00
C627   C     0.45017   0.79503   0.47632   0.00000  Uiso   1.00
C628   C     0.04251   0.72413   0.47761   0.00000  Uiso   1.00
H629   H     0.03480   0.82205   0.54737   0.00000  Uiso   1.00
H630   H     0.47867   0.69753   0.54319   0.00000  Uiso   1.00
H631   H     0.46623   0.82323   0.45769   0.00000  Uiso   1.00
H632   H     0.02084   0.69842   0.45842   0.00000  Uiso   1.00
C633   C     0.09677   0.78891   0.53200   0.00000  Uiso   1.00
C634   C     0.41187   0.71617   0.51772   0.00000  Uiso   1.00
C635   C     0.40391   0.78962   0.47066   0.00000  Uiso   1.00
C636   C     0.08795   0.71669   0.48285   0.00000  Uiso   1.00
C637   C     0.11598   0.75082   0.50720   0.00000  Uiso   1.00
C638   C     0.38421   0.75085   0.49377   0.00000  Uiso   1.00
C639   C     0.02394   0.76201   0.50060   0.00000  Uiso   1.00
C640   C     0.47628   0.76219   0.50303   0.00000  Uiso   1.00
C641   C     0.24125   0.60002   0.45561   0.00000  Uiso   1.00
C642   C     0.27885   0.89853   0.53334   0.00000  Uiso   1.00
C643   C     0.25878   0.60003   0.54438   0.00000  Uiso   1.00
C644   C     0.22115   0.89851   0.46665   0.00000  Uiso   1.00
H645   H     0.23460   0.53134   0.42148   0.00000  Uiso   1.00
H646   H     0.30531   0.96601   0.55534   0.00000  Uiso   1.00
H647   H     0.26537   0.53134   0.57853   0.00000  Uiso   1.00
H648   H     0.19466   0.96598   0.44465   0.00000  Uiso   1.00
C649   C     0.23091   0.61966   0.40299   0.00000  Uiso   1.00
C650   C     0.18304   0.63814   0.39532   0.00000  Uiso   1.00
C651   C     0.16940   0.64957   0.34028   0.00000  Uiso   1.00
H652   H     0.19097   0.67730   0.66010   0.00000  Uiso   1.00
H653   H     0.17176   0.61823   0.64966   0.00000  Uiso   1.00
H654   H     0.13434   0.66207   0.33669   0.00000  Uiso   1.00
H655   H     0.15977   0.61123   0.40776   0.00000  Uiso   1.00
H656   H     0.17932   0.66971   0.41798   0.00000  Uiso   1.00
H657   H     0.25730   0.64290   0.39180   0.00000  Uiso   1.00
H658   H     0.23320   0.59189   0.37427   0.00000  Uiso   1.00
C659   C     0.31099   0.87535   0.57225   0.00000  Uiso   1.00
C660   C     0.29607   0.87869   0.62600   0.00000  Uiso   1.00
C661   C     0.30631   0.92561   0.65127   0.00000  Uiso   1.00
H662   H     0.34108   0.93659   0.64611   0.00000  Uiso   1.00
H663   H     0.28258   0.95249   0.63590   0.00000  Uiso   1.00
H664   H     0.30265   0.92273   0.35901   0.00000  Uiso   1.00
H665   H     0.25984   0.87109   0.62527   0.00000  Uiso   1.00
H666   H     0.31388   0.85149   0.64947   0.00000  Uiso   1.00
H667   H     0.31435   0.83849   0.56461   0.00000  Uiso   1.00
H668   H     0.34504   0.89007   0.57049   0.00000  Uiso   1.00
C669   C     0.26928   0.61967   0.59698   0.00000  Uiso   1.00
C670   C     0.31715   0.63818   0.60445   0.00000  Uiso   1.00
C671   C     0.33091   0.64968   0.65945   0.00000  Uiso   1.00
H672   H     0.30933   0.67737   0.33969   0.00000  Uiso   1.00
H673   H     0.32865   0.61835   0.35012   0.00000  Uiso   1.00
H674   H     0.36595   0.66225   0.66292   0.00000  Uiso   1.00
H675   H     0.34038   0.61126   0.59196   0.00000  Uiso   1.00
H676   H     0.32083   0.66972   0.58174   0.00000  Uiso   1.00
H677   H     0.24294   0.64291   0.60826   0.00000  Uiso   1.00
H678   H     0.26708   0.59191   0.62572   0.00000  Uiso   1.00
C679   C     0.18902   0.87531   0.42774   0.00000  Uiso   1.00
C680   C     0.20395   0.87867   0.37399   0.00000  Uiso   1.00
C681   C     0.19368   0.92557   0.34870   0.00000  Uiso   1.00
H682   H     0.15890   0.93651   0.35384   0.00000  Uiso   1.00
H683   H     0.21739   0.95248   0.36409   0.00000  Uiso   1.00
H684   H     0.19737   0.92269   0.64098   0.00000  Uiso   1.00
H685   H     0.24018   0.87110   0.37473   0.00000  Uiso   1.00
H686   H     0.18617   0.85144   0.35052   0.00000  Uiso   1.00
H687   H     0.18566   0.83846   0.43537   0.00000  Uiso   1.00
H688   H     0.15496   0.89002   0.42948   0.00000  Uiso   1.00
C689   C     0.12386   0.82101   0.56595   0.00000  Uiso   1.00
H690   H     0.15714   0.81137   0.58108   0.00000  Uiso   1.00
O691   O     0.10894   0.85842   0.57824   0.00000  Uiso   1.00
C692   C     0.39651   0.67025   0.53378   0.00000  Uiso   1.00
H693   H     0.40785   0.65712   0.57082   0.00000  Uiso   1.00
O694   O     0.37482   0.64494   0.50428   0.00000  Uiso   1.00
C695   C     0.37747   0.82244   0.43697   0.00000  Uiso   1.00
H696   H     0.34461   0.81290   0.42037   0.00000  Uiso   1.00
O697   O     0.39246   0.86037   0.42659   0.00000  Uiso   1.00
C698   C     0.10314   0.67148   0.46465   0.00000  Uiso   1.00
H699   H     0.09196   0.65992   0.42694   0.00000  Uiso   1.00
O700   O     0.12456   0.64499   0.49306   0.00000  Uiso   1.00
O701   O     0.68453   0.78974   0.50000   0.00000  Uiso   1.00
O702   O     0.81547   0.71026   0.50000   0.00000  Uiso   1.00
O703   O     0.81547   0.78974   0.50000   0.00000  Uiso   1.00
O704   O     0.68453   0.71026   0.50000   0.00000  Uiso   1.00
C705   C     0.66407   0.74999   0.50229   0.00000  Uiso   1.00
C706   C     0.83597   0.74999   0.49781   0.00000  Uiso   1.00
O707   O     0.75000   0.78973   0.42845   0.00000  Uiso   1.00
O708   O     0.75000   0.71027   0.57155   0.00000  Uiso   1.00
O709   O     0.75000   0.78973   0.57155   0.00000  Uiso   1.00
O710   O     0.75000   0.71027   0.42845   0.00000  Uiso   1.00
C711   C     0.74116   0.55069   0.45618   0.00000  Uiso   1.00
C712   C     0.78020   0.94757   0.53173   0.00000  Uiso   1.00
C713   C     0.75881   0.55069   0.54382   0.00000  Uiso   1.00
C714   C     0.71978   0.94755   0.46827   0.00000  Uiso   1.00
C715   C     0.74971   0.75006   0.40635   0.00000  Uiso   1.00
C716   C     0.75031   0.75007   0.59365   0.00000  Uiso   1.00
Zn717  Zn    0.75000   0.80307   0.50000   0.00000  Uiso   1.00
Zn718  Zn    0.75000   0.69693   0.50000   0.00000  Uiso   1.00
N719   N     0.75000   0.62623   0.50000   0.00000  Uiso   1.00
N720   N     0.75000   0.87376   0.50000   0.00000  Uiso   1.00
C721   C     0.74997   0.52541   0.50001   0.00000  Uiso   1.00
C722   C     0.74998   0.97290   0.50000   0.00000  Uiso   1.00
C723   C     0.74991   0.75035   0.35518   0.00000  Uiso   1.00
C724   C     0.75012   0.75035   0.64482   0.00000  Uiso   1.00
C725   C     0.55048   0.79428   0.52766   0.00000  Uiso   1.00
C726   C     0.95727   0.72371   0.52445   0.00000  Uiso   1.00
C727   C     0.95017   0.79503   0.47632   0.00000  Uiso   1.00
C728   C     0.54251   0.72413   0.47761   0.00000  Uiso   1.00
H729   H     0.53480   0.82205   0.54737   0.00000  Uiso   1.00
H730   H     0.97867   0.69753   0.54319   0.00000  Uiso   1.00
H731   H     0.96623   0.82323   0.45769   0.00000  Uiso   1.00
H732   H     0.52084   0.69842   0.45842   0.00000  Uiso   1.00
C733   C     0.59677   0.78891   0.53200   0.00000  Uiso   1.00
C734   C     0.91187   0.71617   0.51772   0.00000  Uiso   1.00
C735   C     0.90391   0.78962   0.47066   0.00000  Uiso   1.00
C736   C     0.58795   0.71669   0.48285   0.00000  Uiso   1.00
C737   C     0.61598   0.75082   0.50720   0.00000  Uiso   1.00
C738   C     0.88421   0.75085   0.49377   0.00000  Uiso   1.00
C739   C     0.52394   0.76201   0.50060   0.00000  Uiso   1.00
C740   C     0.97628   0.76219   0.50303   0.00000  Uiso   1.00
C741   C     0.74125   0.60002   0.45561   0.00000  Uiso   1.00
C742   C     0.77885   0.89853   0.53334   0.00000  Uiso   1.00
C743   C     0.75878   0.60003   0.54438   0.00000  Uiso   1.00
C744   C     0.72115   0.89851   0.46665   0.00000  Uiso   1.00
H745   H     0.73460   0.53134   0.42148   0.00000  Uiso   1.00
H746   H     0.80531   0.96601   0.55534   0.00000  Uiso   1.00
H747   H     0.76537   0.53134   0.57853   0.00000  Uiso   1.00
H748   H     0.69466   0.96598   0.44465   0.00000  Uiso   1.00
C749   C     0.73091   0.61966   0.40299   0.00000  Uiso   1.00
C750   C     0.68304   0.63814   0.39532   0.00000  Uiso   1.00
C751   C     0.66940   0.64957   0.34028   0.00000  Uiso   1.00
H752   H     0.69097   0.67730   0.66010   0.00000  Uiso   1.00
H753   H     0.67176   0.61823   0.64966   0.00000  Uiso   1.00
H754   H     0.63434   0.66207   0.33669   0.00000  Uiso   1.00
H755   H     0.65977   0.61123   0.40776   0.00000  Uiso   1.00
H756   H     0.67932   0.66971   0.41798   0.00000  Uiso   1.00
H757   H     0.75730   0.64290   0.39180   0.00000  Uiso   1.00
H758   H     0.73320   0.59189   0.37427   0.00000  Uiso   1.00
C759   C     0.81099   0.87535   0.57225   0.00000  Uiso   1.00
C760   C     0.79607   0.87869   0.62600   0.00000  Uiso   1.00
C761   C     0.80631   0.92561   0.65127   0.00000  Uiso   1.00
H762   H     0.84108   0.93659   0.64611   0.00000  Uiso   1.00
H763   H     0.78258   0.95249   0.63590   0.00000  Uiso   1.00
H764   H     0.80265   0.92273   0.35901   0.00000  Uiso   1.00
H765   H     0.75984   0.87109   0.62527   0.00000  Uiso   1.00
H766   H     0.81388   0.85149   0.64947   0.00000  Uiso   1.00
H767   H     0.81435   0.83849   0.56461   0.00000  Uiso   1.00
H768   H     0.84504   0.89007   0.57049   0.00000  Uiso   1.00
C769   C     0.76928   0.61967   0.59698   0.00000  Uiso   1.00
C770   C     0.81715   0.63818   0.60445   0.00000  Uiso   1.00
C771   C     0.83091   0.64968   0.65945   0.00000  Uiso   1.00
H772   H     0.80933   0.67737   0.33969   0.00000  Uiso   1.00
H773   H     0.82865   0.61835   0.35012   0.00000  Uiso   1.00
H774   H     0.86595   0.66225   0.66292   0.00000  Uiso   1.00
H775   H     0.84038   0.61126   0.59196   0.00000  Uiso   1.00
H776   H     0.82083   0.66972   0.58174   0.00000  Uiso   1.00
H777   H     0.74294   0.64291   0.60826   0.00000  Uiso   1.00
H778   H     0.76708   0.59191   0.62572   0.00000  Uiso   1.00
C779   C     0.68902   0.87531   0.42774   0.00000  Uiso   1.00
C780   C     0.70395   0.87867   0.37399   0.00000  Uiso   1.00
C781   C     0.69368   0.92557   0.34870   0.00000  Uiso   1.00
H782   H     0.65890   0.93651   0.35384   0.00000  Uiso   1.00
H783   H     0.71739   0.95248   0.36409   0.00000  Uiso   1.00
H784   H     0.69737   0.92269   0.64098   0.00000  Uiso   1.00
H785   H     0.74018   0.87110   0.37473   0.00000  Uiso   1.00
H786   H     0.68617   0.85144   0.35052   0.00000  Uiso   1.00
H787   H     0.68566   0.83846   0.43537   0.00000  Uiso   1.00
H788   H     0.65496   0.89002   0.42948   0.00000  Uiso   1.00
C789   C     0.62386   0.82101   0.56595   0.00000  Uiso   1.00
H790   H     0.65714   0.81137   0.58108   0.00000  Uiso   1.00
O791   O     0.60894   0.85842   0.57824   0.00000  Uiso   1.00
C792   C     0.89651   0.67025   0.53378   0.00000  Uiso   1.00
H793   H     0.90785   0.65712   0.57082   0.00000  Uiso   1.00
O794   O     0.87482   0.64494   0.50428   0.00000  Uiso   1.00
C795   C     0.87747   0.82244   0.43697   0.00000  Uiso   1.00
H796   H     0.84461   0.81290   0.42037   0.00000  Uiso   1.00
O797   O     0.89246   0.86037   0.42659   0.00000  Uiso   1.00
C798   C     0.60314   0.67148   0.46465   0.00000  Uiso   1.00
H799   H     0.59196   0.65992   0.42694   0.00000  Uiso   1.00
O800   O     0.62456   0.64499   0.49306   0.00000  Uiso   1.00
O801   O     0.18453   0.28974   0.83334   0.00000  Uiso   1.00
O802   O     0.31547   0.21026   0.83333   0.00000  Uiso   1.00
O803   O     0.31547   0.28974   0.83333   0.00000  Uiso   1.00
O804   O     0.18453   0.21026   0.83334   0.00000  Uiso   1.00
C805   C     0.16407   0.24999   0.83562   0.00000  Uiso   1.00
C806   C     0.33597   0.24999   0.83114   0.00000  Uiso   1.00
O807   O     0.25000   0.28973   0.76178   0.00000  Uiso   1.00
O808   O     0.25000   0.21027   0.90489   0.00000  Uiso   1.00
O809   O     0.25000   0.28973   0.90489   0.00000  Uiso   1.00
O810   O     0.25000   0.21027   0.76178   0.00000  Uiso   1.00
C811   C     0.24116   0.05069   0.78952   0.00000  Uiso   1.00
C812   C     0.28020   0.44757   0.86507   0.00000  Uiso   1.00
C813   C     0.25881   0.05069   0.87716   0.00000  Uiso   1.00
C814   C     0.21978   0.44755   0.80160   0.00000  Uiso   1.00
C815   C     0.24971   0.25006   0.73969   0.00000  Uiso   1.00
C816   C     0.25031   0.25007   0.92698   0.00000  Uiso   1.00
Zn817  Zn    0.25000   0.30307   0.83333   0.00000  Uiso   1.00
Zn818  Zn    0.25000   0.19693   0.83333   0.00000  Uiso   1.00
N819   N     0.25000   0.12623   0.83333   0.00000  Uiso   1.00
N820   N     0.25000   0.37376   0.83333   0.00000  Uiso   1.00
C821   C     0.24997   0.02541   0.83334   0.00000  Uiso   1.00
C822   C     0.24998   0.47290   0.83334   0.00000  Uiso   1.00
C823   C     0.24991   0.25035   0.68852   0.00000  Uiso   1.00
C824   C     0.25012   0.25035   0.97815   0.00000  Uiso   1.00
C825   C     0.05048   0.29428   0.86100   0.00000  Uiso   1.00
C826   C     0.45727   0.22371   0.85778   0.00000  Uiso   1.00
C827   C     0.45017   0.29503   0.80966   0.00000  Uiso   1.00
C828   C     0.04251   0.22413   0.81094   0.00000  Uiso   1.00
H829   H     0.03480   0.32205   0.88070   0.00000  Uiso   1.00
H830   H     0.47867   0.19753   0.87652   0.00000  Uiso   1.00
H831   H     0.46623   0.32323   0.79103   0.00000  Uiso   1.00
H832   H     0.02084   0.19842   0.79175   0.00000  Uiso   1.00
C833   C     0.09677   0.28891   0.86534   0.00000  Uiso   1.00
C834   C     0.41187   0.21617   0.85106   0.00000  Uiso   1.00
C835   C     0.40391   0.28962   0.80399   0.00000  Uiso   1.00
C836   C     0.08795   0.21669   0.81618   0.00000  Uiso   1.00
C837   C     0.11598   0.25082   0.84053   0.00000  Uiso   1.00
C838   C     0.38421   0.25085   0.82710   0.00000  Uiso   1.00
C839   C     0.02394   0.26201   0.83394   0.00000  Uiso   1.00
C840   C     0.47628   0.26219   0.83636   0.00000  Uiso   1.00
C841   C     0.24125   0.10002   0.78894   0.00000  Uiso   1.00
C842   C     0.27885   0.39853   0.86668   0.00000  Uiso   1.00
C843   C     0.25878   0.10003   0.87772   0.00000  Uiso   1.00
C844   C     0.22115   0.39851   0.79999   0.00000  Uiso   1.00
H845   H     0.23460   0.03134   0.75481   0.00000  Uiso   1.00
H846   H     0.30531   0.46601   0.88868   0.00000  Uiso   1.00
H847   H     0.26537   0.03134   0.91186   0.00000  Uiso   1.00
H848   H     0.19466   0.46598   0.77799   0.00000  Uiso   1.00
C849   C     0.23091   0.11966   0.73632   0.00000  Uiso   1.00
C850   C     0.18304   0.13814   0.72866   0.00000  Uiso   1.00
C851   C     0.16940   0.14957   0.67361   0.00000  Uiso   1.00
H852   H     0.19097   0.17730   0.99343   0.00000  Uiso   1.00
H853   H     0.17176   0.11823   0.98299   0.00000  Uiso   1.00
H854   H     0.13434   0.16207   0.67002   0.00000  Uiso   1.00
H855   H     0.15977   0.11123   0.74110   0.00000  Uiso   1.00
H856   H     0.17932   0.16971   0.75131   0.00000  Uiso   1.00
H857   H     0.25730   0.14290   0.72513   0.00000  Uiso   1.00
H858   H     0.23320   0.09189   0.70760   0.00000  Uiso   1.00
C859   C     0.31099   0.37535   0.90558   0.00000  Uiso   1.00
C860   C     0.29607   0.37869   0.95933   0.00000  Uiso   1.00
C861   C     0.30631   0.42561   0.98461   0.00000  Uiso   1.00
H862   H     0.34108   0.43659   0.97945   0.00000  Uiso   1.00
H863   H     0.28258   0.45249   0.96923   0.00000  Uiso   1.00
H864   H     0.30265   0.42273   0.69234   0.00000  Uiso   1.00
H865   H     0.25984   0.37109   0.95860   0.00000  Uiso   1.00
H866   H     0.31388   0.35149   0.98281   0.00000  Uiso   1.00
H867   H     0.31435   0.33849   0.89794   0.00000  Uiso   1.00
H868   H     0.34504   0.39007   0.90382   0.00000  Uiso   1.00
C869   C     0.26928   0.11967   0.93031   0.00000  Uiso   1.00
C870   C     0.31715   0.13818   0.93779   0.00000  Uiso   1.00
C871   C     0.33091   0.14968   0.99279   0.00000  Uiso   1.00
H872   H     0.30933   0.17737   0.67302   0.00000  Uiso   1.00
H873   H     0.32865   0.11835   0.68345   0.00000  Uiso   1.00
H874   H     0.36595   0.16225   0.99625   0.00000  Uiso   1.00
H875   H     0.34038   0.11126   0.92530   0.00000  Uiso   1.00
H876   H     0.32083   0.16972   0.91507   0.00000  Uiso   1.00
H877   H     0.24294   0.14291   0.94159   0.00000  Uiso   1.00
H878   H     0.26708   0.09191   0.95905   0.00000  Uiso   1.00
C879   C     0.18902   0.37531   0.76107   0.00000  Uiso   1.00
C880   C     0.20395   0.37867   0.70732   0.00000  Uiso   1.00
C881   C     0.19368   0.42557   0.68204   0.00000  Uiso   1.00
H882   H     0.15890   0.43651   0.68718   0.00000  Uiso   1.00
H883   H     0.21739   0.45248   0.69742   0.00000  Uiso   1.00
H884   H     0.19737   0.42269   0.97431   0.00000  Uiso   1.00
H885   H     0.24018   0.37110   0.70807   0.00000  Uiso   1.00
H886   H     0.18617   0.35144   0.68385   0.00000  Uiso   1.00
H887   H     0.18566   0.33846   0.76871   0.00000  Uiso   1.00
H888   H     0.15496   0.39002   0.76282   0.00000  Uiso   1.00
C889   C     0.12386   0.32101   0.89928   0.00000  Uiso   1.00
H890   H     0.15714   0.31137   0.91441   0.00000  Uiso   1.00
O891   O     0.10894   0.35842   0.91157   0.00000  Uiso   1.00
C892   C     0.39651   0.17025   0.86711   0.00000  Uiso   1.00
H893   H     0.40785   0.15712   0.90415   0.00000  Uiso   1.00
O894   O     0.37482   0.14494   0.83762   0.00000  Uiso   1.00
C895   C     0.37747   0.32244   0.77030   0.00000  Uiso   1.00
H896   H     0.34461   0.31290   0.75371   0.00000  Uiso   1.00
O897   O     0.39246   0.36037   0.75992   0.00000  Uiso   1.00
C898   C     0.10314   0.17148   0.79799   0.00000  Uiso   1.00
H899   H     0.09196   0.15992   0.76027   0.00000  Uiso   1.00
O900   O     0.12456   0.14499   0.82639   0.00000  Uiso   1.00
O901   O     0.68453   0.28974   0.83334   0.00000  Uiso   1.00
O902   O     0.81547   0.21026   0.83333   0.00000  Uiso   1.00
O903   O     0.81547   0.28974   0.83333   0.00000  Uiso   1.00
O904   O     0.68453   0.21026   0.83334   0.00000  Uiso   1.00
C905   C     0.66407   0.24999   0.83562   0.00000  Uiso   1.00
C906   C     0.83597   0.24999   0.83114   0.00000  Uiso   1.00
O907   O     0.75000   0.28973   0.76178   0.00000  Uiso   1.00
O908   O     0.75000   0.21027   0.90489   0.00000  Uiso   1.00
O909   O     0.75000   0.28973   0.90489   0.00000  Uiso   1.00
O910   O     0.75000   0.21027   0.76178   0.00000  Uiso   1.00
C911   C     0.74116   0.05069   0.78952   0.00000  Uiso   1.00
C912   C     0.78020   0.44757   0.86507   0.00000  Uiso   1.00
C913   C     0.75881   0.05069   0.87716   0.00000  Uiso   1.00
C914   C     0.71978   0.44755   0.80160   0.00000  Uiso   1.00
C915   C     0.74971   0.25006   0.73969   0.00000  Uiso   1.00
C916   C     0.75031   0.25007   0.92698   0.00000  Uiso   1.00
Zn917  Zn    0.75000   0.30307   0.83333   0.00000  Uiso   1.00
Zn918  Zn    0.75000   0.19693   0.83333   0.00000  Uiso   1.00
N919   N     0.75000   0.12623   0.83333   0.00000  Uiso   1.00
N920   N     0.75000   0.37376   0.83333   0.00000  Uiso   1.00
C921   C     0.74997   0.02541   0.83334   0.00000  Uiso   1.00
C922   C     0.74998   0.47290   0.83334   0.00000  Uiso   1.00
C923   C     0.74991   0.25035   0.68852   0.00000  Uiso   1.00
C924   C     0.75012   0.25035   0.97815   0.00000  Uiso   1.00
C925   C     0.55048   0.29428   0.86100   0.00000  Uiso   1.00
C926   C     0.95727   0.22371   0.85778   0.00000  Uiso   1.00
C927   C     0.95017   0.29503   0.80966   0.00000  Uiso   1.00
C928   C     0.54251   0.22413   0.81094   0.00000  Uiso   1.00
H929   H     0.53480   0.32205   0.88070   0.00000  Uiso   1.00
H930   H     0.97867   0.19753   0.87652   0.00000  Uiso   1.00
H931   H     0.96623   0.32323   0.79103   0.00000  Uiso   1.00
H932   H     0.52084   0.19842   0.79175   0.00000  Uiso   1.00
C933   C     0.59677   0.28891   0.86534   0.00000  Uiso   1.00
C934   C     0.91187   0.21617   0.85106   0.00000  Uiso   1.00
C935   C     0.90391   0.28962   0.80399   0.00000  Uiso   1.00
C936   C     0.58795   0.21669   0.81618   0.00000  Uiso   1.00
C937   C     0.61598   0.25082   0.84053   0.00000  Uiso   1.00
C938   C     0.88421   0.25085   0.82710   0.00000  Uiso   1.00
C939   C     0.52394   0.26201   0.83394   0.00000  Uiso   1.00
C940   C     0.97628   0.26219   0.83636   0.00000  Uiso   1.00
C941   C     0.74125   0.10002   0.78894   0.00000  Uiso   1.00
C942   C     0.77885   0.39853   0.86668   0.00000  Uiso   1.00
C943   C     0.75878   0.10003   0.87772   0.00000  Uiso   1.00
C944   C     0.72115   0.39851   0.79999   0.00000  Uiso   1.00
H945   H     0.73460   0.03134   0.75481   0.00000  Uiso   1.00
H946   H     0.80531   0.46601   0.88868   0.00000  Uiso   1.00
H947   H     0.76537   0.03134   0.91186   0.00000  Uiso   1.00
H948   H     0.69466   0.46598   0.77799   0.00000  Uiso   1.00
C949   C     0.73091   0.11966   0.73632   0.00000  Uiso   1.00
C950   C     0.68304   0.13814   0.72866   0.00000  Uiso   1.00
C951   C     0.66940   0.14957   0.67361   0.00000  Uiso   1.00
H952   H     0.69097   0.17730   0.99343   0.00000  Uiso   1.00
H953   H     0.67176   0.11823   0.98299   0.00000  Uiso   1.00
H954   H     0.63434   0.16207   0.67002   0.00000  Uiso   1.00
H955   H     0.65977   0.11123   0.74110   0.00000  Uiso   1.00
H956   H     0.67932   0.16971   0.75131   0.00000  Uiso   1.00
H957   H     0.75730   0.14290   0.72513   0.00000  Uiso   1.00
H958   H     0.73320   0.09189   0.70760   0.00000  Uiso   1.00
C959   C     0.81099   0.37535   0.90558   0.00000  Uiso   1.00
C960   C     0.79607   0.37869   0.95933   0.00000  Uiso   1.00
C961   C     0.80631   0.42561   0.98461   0.00000  Uiso   1.00
H962   H     0.84108   0.43659   0.97945   0.00000  Uiso   1.00
H963   H     0.78258   0.45249   0.96923   0.00000  Uiso   1.00
H964   H     0.80265   0.42273   0.69234   0.00000  Uiso   1.00
H965   H     0.75984   0.37109   0.95860   0.00000  Uiso   1.00
H966   H     0.81388   0.35149   0.98281   0.00000  Uiso   1.00
H967   H     0.81435   0.33849   0.89794   0.00000  Uiso   1.00
H968   H     0.84504   0.39007   0.90382   0.00000  Uiso   1.00
C969   C     0.76928   0.11967   0.93031   0.00000  Uiso   1.00
C970   C     0.81715   0.13818   0.93779   0.00000  Uiso   1.00
C971   C     0.83091   0.14968   0.99279   0.00000  Uiso   1.00
H972   H     0.80933   0.17737   0.67302   0.00000  Uiso   1.00
H973   H     0.82865   0.11835   0.68345   0.00000  Uiso   1.00
H974   H     0.86595   0.16225   0.99625   0.00000  Uiso   1.00
H975   H     0.84038   0.11126   0.92530   0.00000  Uiso   1.00
H976   H     0.82083   0.16972   0.91507   0.00000  Uiso   1.00
H977   H     0.74294   0.14291   0.94159   0.00000  Uiso   1.00
H978   H     0.76708   0.09191   0.95905   0.00000  Uiso   1.00
C979   C     0.68902   0.37531   0.76107   0.00000  Uiso   1.00
C980   C     0.70395   0.37867   0.70732   0.00000  Uiso   1.00
C981   C     0.69368   0.42557   0.68204   0.00000  Uiso   1.00
H982   H     0.65890   0.43651   0.68718   0.00000  Uiso   1.00
H983   H     0.71739   0.45248   0.69742   0.00000  Uiso   1.00
H984   H     0.69737   0.42269   0.97431   0.00000  Uiso   1.00
H985   H     0.74018   0.37110   0.70807   0.00000  Uiso   1.00
H986   H     0.68617   0.35144   0.68385   0.00000  Uiso   1.00
H987   H     0.68566   0.33846   0.76871   0.00000  Uiso   1.00
H988   H     0.65496   0.39002   0.76282   0.00000  Uiso   1.00
C989   C     0.62386   0.32101   0.89928   0.00000  Uiso   1.00
H990   H     0.65714   0.31137   0.91441   0.00000  Uiso   1.00
O991   O     0.60894   0.35842   0.91157   0.00000  Uiso   1.00
C992   C     0.89651   0.17025   0.86711   0.00000  Uiso   1.00
H993   H     0.90785   0.15712   0.90415   0.00000  Uiso   1.00
O994   O     0.87482   0.14494   0.83762   0.00000  Uiso   1.00
C995   C     0.87747   0.32244   0.77030   0.00000  Uiso   1.00
H996   H     0.84461   0.31290   0.75371   0.00000  Uiso   1.00
O997   O     0.89246   0.36037   0.75992   0.00000  Uiso   1.00
C998   C     0.60314   0.17148   0.79799   0.00000  Uiso   1.00
H999   H     0.59196   0.15992   0.76027   0.00000  Uiso   1.00
O1000  O     0.62456   0.14499   0.82639   0.00000  Uiso   1.00
O1001  O     0.18453   0.78974   0.83334   0.00000  Uiso   1.00
O1002  O     0.31547   0.71026   0.83333   0.00000  Uiso   1.00
O1003  O     0.31547   0.78974   0.83333   0.00000  Uiso   1.00
O1004  O     0.18453   0.71026   0.83334   0.00000  Uiso   1.00
C1005  C     0.16407   0.74999   0.83562   0.00000  Uiso   1.00
C1006  C     0.33597   0.74999   0.83114   0.00000  Uiso   1.00
O1007  O     0.25000   0.78973   0.76178   0.00000  Uiso   1.00
O1008  O     0.25000   0.71027   0.90489   0.00000  Uiso   1.00
O1009  O     0.25000   0.78973   0.90489   0.00000  Uiso   1.00
O1010  O     0.25000   0.71027   0.76178   0.00000  Uiso   1.00
C1011  C     0.24116   0.55069   0.78952   0.00000  Uiso   1.00
C1012  C     0.28020   0.94757   0.86507   0.00000  Uiso   1.00
C1013  C     0.25881   0.55069   0.87716   0.00000  Uiso   1.00
C1014  C     0.21978   0.94755   0.80160   0.00000  Uiso   1.00
C1015  C     0.24971   0.75006   0.73969   0.00000  Uiso   1.00
C1016  C     0.25031   0.75007   0.92698   0.00000  Uiso   1.00
Zn1017 Zn    0.25000   0.80307   0.83333   0.00000  Uiso   1.00
Zn1018 Zn    0.25000   0.69693   0.83333   0.00000  Uiso   1.00
N1019  N     0.25000   0.62623   0.83333   0.00000  Uiso   1.00
N1020  N     0.25000   0.87376   0.83333   0.00000  Uiso   1.00
C1021  C     0.24997   0.52541   0.83334   0.00000  Uiso   1.00
C1022  C     0.24998   0.97290   0.83334   0.00000  Uiso   1.00
C1023  C     0.24991   0.75035   0.68852   0.00000  Uiso   1.00
C1024  C     0.25012   0.75035   0.97815   0.00000  Uiso   1.00
C1025  C     0.05048   0.79428   0.86100   0.00000  Uiso   1.00
C1026  C     0.45727   0.72371   0.85778   0.00000  Uiso   1.00
C1027  C     0.45017   0.79503   0.80966   0.00000  Uiso   1.00
C1028  C     0.04251   0.72413   0.81094   0.00000  Uiso   1.00
H1029  H     0.03480   0.82205   0.88070   0.00000  Uiso   1.00
H1030  H     0.47867   0.69753   0.87652   0.00000  Uiso   1.00
H1031  H     0.46623   0.82323   0.79103   0.00000  Uiso   1.00
H1032  H     0.02084   0.69842   0.79175   0.00000  Uiso   1.00
C1033  C     0.09677   0.78891   0.86534   0.00000  Uiso   1.00
C1034  C     0.41187   0.71617   0.85106   0.00000  Uiso   1.00
C1035  C     0.40391   0.78962   0.80399   0.00000  Uiso   1.00
C1036  C     0.08795   0.71669   0.81618   0.00000  Uiso   1.00
C1037  C     0.11598   0.75082   0.84053   0.00000  Uiso   1.00
C1038  C     0.38421   0.75085   0.82710   0.00000  Uiso   1.00
C1039  C     0.02394   0.76201   0.83394   0.00000  Uiso   1.00
C1040  C     0.47628   0.76219   0.83636   0.00000  Uiso   1.00
C1041  C     0.24125   0.60002   0.78894   0.00000  Uiso   1.00
C1042  C     0.27885   0.89853   0.86668   0.00000  Uiso   1.00
C1043  C     0.25878   0.60003   0.87772   0.00000  Uiso   1.00
C1044  C     0.22115   0.89851   0.79999   0.00000  Uiso   1.00
H1045  H     0.23460   0.53134   0.75481   0.00000  Uiso   1.00
H1046  H     0.30531   0.96601   0.88868   0.00000  Uiso   1.00
H1047  H     0.26537   0.53134   0.91186   0.00000  Uiso   1.00
H1048  H     0.19466   0.96598   0.77799   0.00000  Uiso   1.00
C1049  C     0.23091   0.61966   0.73632   0.00000  Uiso   1.00
C1050  C     0.18304   0.63814   0.72866   0.00000  Uiso   1.00
C1051  C     0.16940   0.64957   0.67361   0.00000  Uiso   1.00
H1052  H     0.19097   0.67730   0.99343   0.00000  Uiso   1.00
H1053  H     0.17176   0.61823   0.98299   0.00000  Uiso   1.00
H1054  H     0.13434   0.66207   0.67002   0.00000  Uiso   1.00
H1055  H     0.15977   0.61123   0.74110   0.00000  Uiso   1.00
H1056  H     0.17932   0.66971   0.75131   0.00000  Uiso   1.00
H1057  H     0.25730   0.64290   0.72513   0.00000  Uiso   1.00
H1058  H     0.23320   0.59189   0.70760   0.00000  Uiso   1.00
C1059  C     0.31099   0.87535   0.90558   0.00000  Uiso   1.00
C1060  C     0.29607   0.87869   0.95933   0.00000  Uiso   1.00
C1061  C     0.30631   0.92561   0.98461   0.00000  Uiso   1.00
H1062  H     0.34108   0.93659   0.97945   0.00000  Uiso   1.00
H1063  H     0.28258   0.95249   0.96923   0.00000  Uiso   1.00
H1064  H     0.30265   0.92273   0.69234   0.00000  Uiso   1.00
H1065  H     0.25984   0.87109   0.95860   0.00000  Uiso   1.00
H1066  H     0.31388   0.85149   0.98281   0.00000  Uiso   1.00
H1067  H     0.31435   0.83849   0.89794   0.00000  Uiso   1.00
H1068  H     0.34504   0.89007   0.90382   0.00000  Uiso   1.00
C1069  C     0.26928   0.61967   0.93031   0.00000  Uiso   1.00
C1070  C     0.31715   0.63818   0.93779   0.00000  Uiso   1.00
C1071  C     0.33091   0.64968   0.99279   0.00000  Uiso   1.00
H1072  H     0.30933   0.67737   0.67302   0.00000  Uiso   1.00
H1073  H     0.32865   0.61835   0.68345   0.00000  Uiso   1.00
H1074  H     0.36595   0.66225   0.99625   0.00000  Uiso   1.00
H1075  H     0.34038   0.61126   0.92530   0.00000  Uiso   1.00
H1076  H     0.32083   0.66972   0.91507   0.00000  Uiso   1.00
H1077  H     0.24294   0.64291   0.94159   0.00000  Uiso   1.00
H1078  H     0.26708   0.59191   0.95905   0.00000  Uiso   1.00
C1079  C     0.18902   0.87531   0.76107   0.00000  Uiso   1.00
C1080  C     0.20395   0.87867   0.70732   0.00000  Uiso   1.00
C1081  C     0.19368   0.92557   0.68204   0.00000  Uiso   1.00
H1082  H     0.15890   0.93651   0.68718   0.00000  Uiso   1.00
H1083  H     0.21739   0.95248   0.69742   0.00000  Uiso   1.00
H1084  H     0.19737   0.92269   0.97431   0.00000  Uiso   1.00
H1085  H     0.24018   0.87110   0.70807   0.00000  Uiso   1.00
H1086  H     0.18617   0.85144   0.68385   0.00000  Uiso   1.00
H1087  H     0.18566   0.83846   0.76871   0.00000  Uiso   1.00
H1088  H     0.15496   0.89002   0.76282   0.00000  Uiso   1.00
C1089  C     0.12386   0.82101   0.89928   0.00000  Uiso   1.00
H1090  H     0.15714   0.81137   0.91441   0.00000  Uiso   1.00
O1091  O     0.10894   0.85842   0.91157   0.00000  Uiso   1.00
C1092  C     0.39651   0.67025   0.86711   0.00000  Uiso   1.00
H1093  H     0.40785   0.65712   0.90415   0.00000  Uiso   1.00
O1094  O     0.37482   0.64494   0.83762   0.00000  Uiso   1.00
C1095  C     0.37747   0.82244   0.77030   0.00000  Uiso   1.00
H1096  H     0.34461   0.81290   0.75371   0.00000  Uiso   1.00
O1097  O     0.39246   0.86037   0.75992   0.00000  Uiso   1.00
C1098  C     0.10314   0.67148   0.79799   0.00000  Uiso   1.00
H1099  H     0.09196   0.65992   0.76027   0.00000  Uiso   1.00
O1100  O     0.12456   0.64499   0.82639   0.00000  Uiso   1.00
O1101  O     0.68453   0.78974   0.83334   0.00000  Uiso   1.00
O1102  O     0.81547   0.71026   0.83333   0.00000  Uiso   1.00
O1103  O     0.81547   0.78974   0.83333   0.00000  Uiso   1.00
O1104  O     0.68453   0.71026   0.83334   0.00000  Uiso   1.00
C1105  C     0.66407   0.74999   0.83562   0.00000  Uiso   1.00
C1106  C     0.83597   0.74999   0.83114   0.00000  Uiso   1.00
O1107  O     0.75000   0.78973   0.76178   0.00000  Uiso   1.00
O1108  O     0.75000   0.71027   0.90489   0.00000  Uiso   1.00
O1109  O     0.75000   0.78973   0.90489   0.00000  Uiso   1.00
O1110  O     0.75000   0.71027   0.76178   0.00000  Uiso   1.00
C1111  C     0.74116   0.55069   0.78952   0.00000  Uiso   1.00
C1112  C     0.78020   0.94757   0.86507   0.00000  Uiso   1.00
C1113  C     0.75881   0.55069   0.87716   0.00000  Uiso   1.00
C1114  C     0.71978   0.94755   0.80160   0.00000  Uiso   1.00
C1115  C     0.74971   0.75006   0.73969   0.00000  Uiso   1.00
C1116  C     0.75031   0.75007   0.92698   0.00000  Uiso   1.00
Zn1117 Zn    0.75000   0.80307   0.83333   0.00000  Uiso   1.00
Zn1118 Zn    0.75000   0.69693   0.83333   0.00000  Uiso   1.00
N1119  N     0.75000   0.62623   0.83333   0.00000  Uiso   1.00
N1120  N     0.75000   0.87376   0.83333   0.00000  Uiso   1.00
C1121  C     0.74997   0.52541   0.83334   0.00000  Uiso   1.00
C1122  C     0.74998   0.97290   0.83334   0.00000  Uiso   1.00
C1123  C     0.74991   0.75035   0.68852   0.00000  Uiso   1.00
C1124  C     0.75012   0.75035   0.97815   0.00000  Uiso   1.00
C1125  C     0.55048   0.79428   0.86100   0.00000  Uiso   1.00
C1126  C     0.95727   0.72371   0.85778   0.00000  Uiso   1.00
C1127  C     0.95017   0.79503   0.80966   0.00000  Uiso   1.00
C1128  C     0.54251   0.72413   0.81094   0.00000  Uiso   1.00
H1129  H     0.53480   0.82205   0.88070   0.00000  Uiso   1.00
H1130  H     0.97867   0.69753   0.87652   0.00000  Uiso   1.00
H1131  H     0.96623   0.82323   0.79103   0.00000  Uiso   1.00
H1132  H     0.52084   0.69842   0.79175   0.00000  Uiso   1.00
C1133  C     0.59677   0.78891   0.86534   0.00000  Uiso   1.00
C1134  C     0.91187   0.71617   0.85106   0.00000  Uiso   1.00
C1135  C     0.90391   0.78962   0.80399   0.00000  Uiso   1.00
C1136  C     0.58795   0.71669   0.81618   0.00000  Uiso   1.00
C1137  C     0.61598   0.75082   0.84053   0.00000  Uiso   1.00
C1138  C     0.88421   0.75085   0.82710   0.00000  Uiso   1.00
C1139  C     0.52394   0.76201   0.83394   0.00000  Uiso   1.00
C1140  C     0.97628   0.76219   0.83636   0.00000  Uiso   1.00
C1141  C     0.74125   0.60002   0.78894   0.00000  Uiso   1.00
C1142  C     0.77885   0.89853   0.86668   0.00000  Uiso   1.00
C1143  C     0.75878   0.60003   0.87772   0.00000  Uiso   1.00
C1144  C     0.72115   0.89851   0.79999   0.00000  Uiso   1.00
H1145  H     0.73460   0.53134   0.75481   0.00000  Uiso   1.00
H1146  H     0.80531   0.96601   0.88868   0.00000  Uiso   1.00
H1147  H     0.76537   0.53134   0.91186   0.00000  Uiso   1.00
H1148  H     0.69466   0.96598   0.77799   0.00000  Uiso   1.00
C1149  C     0.73091   0.61966   0.73632   0.00000  Uiso   1.00
C1150  C     0.68304   0.63814   0.72866   0.00000  Uiso   1.00
C1151  C     0.66940   0.64957   0.67361   0.00000  Uiso   1.00
H1152  H     0.69097   0.67730   0.99343   0.00000  Uiso   1.00
H1153  H     0.67176   0.61823   0.98299   0.00000  Uiso   1.00
H1154  H     0.63434   0.66207   0.67002   0.00000  Uiso   1.00
H1155  H     0.65977   0.61123   0.74110   0.00000  Uiso   1.00
H1156  H     0.67932   0.66971   0.75131   0.00000  Uiso   1.00
H1157  H     0.75730   0.64290   0.72513   0.00000  Uiso   1.00
H1158  H     0.73320   0.59189   0.70760   0.00000  Uiso   1.00
C1159  C     0.81099   0.87535   0.90558   0.00000  Uiso   1.00
C1160  C     0.79607   0.87869   0.95933   0.00000  Uiso   1.00
C1161  C     0.80631   0.92561   0.98461   0.00000  Uiso   1.00
H1162  H     0.84108   0.93659   0.97945   0.00000  Uiso   1.00
H1163  H     0.78258   0.95249   0.96923   0.00000  Uiso   1.00
H1164  H     0.80265   0.92273   0.69234   0.00000  Uiso   1.00
H1165  H     0.75984   0.87109   0.95860   0.00000  Uiso   1.00
H1166  H     0.81388   0.85149   0.98281   0.00000  Uiso   1.00
H1167  H     0.81435   0.83849   0.89794   0.00000  Uiso   1.00
H1168  H     0.84504   0.89007   0.90382   0.00000  Uiso   1.00
C1169  C     0.76928   0.61967   0.93031   0.00000  Uiso   1.00
C1170  C     0.81715   0.63818   0.93779   0.00000  Uiso   1.00
C1171  C     0.83091   0.64968   0.99279   0.00000  Uiso   1.00
H1172  H     0.80933   0.67737   0.67302   0.00000  Uiso   1.00
H1173  H     0.82865   0.61835   0.68345   0.00000  Uiso   1.00
H1174  H     0.86595   0.66225   0.99625   0.00000  Uiso   1.00
H1175  H     0.84038   0.61126   0.92530   0.00000  Uiso   1.00
H1176  H     0.82083   0.66972   0.91507   0.00000  Uiso   1.00
H1177  H     0.74294   0.64291   0.94159   0.00000  Uiso   1.00
H1178  H     0.76708   0.59191   0.95905   0.00000  Uiso   1.00
C1179  C     0.68902   0.87531   0.76107   0.00000  Uiso   1.00
C1180  C     0.70395   0.87867   0.70732   0.00000  Uiso   1.00
C1181  C     0.69368   0.92557   0.68204   0.00000  Uiso   1.00
H1182  H     0.65890   0.93651   0.68718   0.00000  Uiso   1.00
H1183  H     0.71739   0.95248   0.69742   0.00000  Uiso   1.00
H1184  H     0.69737   0.92269   0.97431   0.00000  Uiso   1.00
H1185  H     0.74018   0.87110   0.70807   0.00000  Uiso   1.00
H1186  H     0.68617   0.85144   0.68385   0.00000  Uiso   1.00
H1187  H     0.68566   0.83846   0.76871   0.00000  Uiso   1.00
H1188  H     0.65496   0.89002   0.76282   0.00000  Uiso   1.00
C1189  C     0.62386   0.82101   0.89928   0.00000  Uiso   1.00
H1190  H     0.65714   0.81137   0.91441   0.00000  Uiso   1.00
O1191  O     0.60894   0.85842   0.91157   0.00000  Uiso   1.00
C1192  C     0.89651   0.67025   0.86711   0.00000  Uiso   1.00
H1193  H     0.90785   0.65712   0.90415   0.00000  Uiso   1.00
O1194  O     0.87482   0.64494   0.83762   0.00000  Uiso   1.00
C1195  C     0.87747   0.82244   0.77030   0.00000  Uiso   1.00
H1196  H     0.84461   0.81290   0.75371   0.00000  Uiso   1.00
O1197  O     0.89246   0.86037   0.75992   0.00000  Uiso   1.00
C1198  C     0.60314   0.67148   0.79799   0.00000  Uiso   1.00
H1199  H     0.59196   0.65992   0.76027   0.00000  Uiso   1.00
O1200  O     0.62456   0.64499   0.82639   0.00000  Uiso   1.00
loop_
_geom_bond_atom_site_label_1
_geom_bond_atom_site_label_2
_geom_bond_distance
_geom_bond_site_symmetry_2
_ccdc_geom_bond_type
O1     C5      1.303   .     A
O1     Zn17    2.004   .     S
O2     Zn18    2.004   .     S
O2     C6      1.303   .     A
O3     C6      1.304   .     A
O3     Zn17    2.004   .     S
O4     Zn18    2.004   .     S
O4     C5      1.303   .     A
C5     C37     1.461   .     S
C6     C38     1.462   .     S
O7     Zn17    1.943   .     S
O7     C15     1.285   .     A
O8     Zn18    1.943   .     S
O8     C16     1.288   .     A
O9     C16     1.285   .     A
O9     Zn17    1.943   .     S
O10    C15     1.288   .     A
O10    Zn18    1.943   .     S
C11    C41     1.421   .     A
C11    C21     1.383   .     A
C11    H45     1.083   .     S
C12    C22     1.396   .     A
C12    C42     1.414   .     A
C12    H46     1.082   .     S
C13    H47     1.083   .     S
C13    C21     1.383   .     A
C13    C43     1.421   .     A
C14    H48     1.082   .     S
C14    C44     1.414   .     A
C14    C22     1.396   .     A
C15    C23     1.363   .     S
C16    C24     1.363   .     S
Zn17   N20     2.036   .     S
Zn18   N19     2.036   .     S
N19    C43     1.409   .     A
N19    C41     1.409   .     A
N20    C44     1.388   .     A
N20    C42     1.388   .     A
C21    C222    1.512   1_545 S
C22    C221    1.512   .     S
C23    C824    1.164   1_554 S
C24    C423    1.164   .     S
C25    H29     1.084   .     S
C25    C39     1.388   .     A
C25    C33     1.395   .     A
C26    C34     1.379   .     A
C26    H30     1.086   .     S
C26    C40     1.389   .     A
C27    H31     1.084   .     S
C27    C35     1.395   .     A
C27    C40     1.388   .     A
C28    H32     1.086   .     S
C28    C39     1.390   .     A
C28    C36     1.378   .     A
C33    C89     1.489   .     S
C33    C37     1.426   .     A
C34    C92     1.475   .     S
C34    C38     1.418   .     A
C35    C38     1.426   .     A
C35    C95     1.489   .     S
C36    C37     1.417   .     A
C36    C98     1.474   .     S
C39    C140    1.439   1_455 S
C40    C139    1.439   .     S
C41    C49     1.520   .     S
C42    C59     1.514   .     S
C43    C69     1.520   .     S
C44    C79     1.514   .     S
C49    H57     1.097   .     S
C49    H58     1.112   .     S
C49    C50     1.532   .     S
C50    C51     1.526   .     S
C50    H55     1.112   .     S
C50    H56     1.102   .     S
C51    H54     1.110   .     S
C51    H852    1.106   1_554 S
C51    H853    1.111   1_554 S
H52    C451    1.106   .     S
H53    C451    1.111   .     S
C59    C60     1.536   .     S
C59    H68     1.112   .     S
C59    H67     1.087   .     S
C60    H66     1.113   .     S
C60    C61     1.530   .     S
C60    H65     1.109   .     S
C61    H63     1.109   .     S
C61    H62     1.110   .     S
C61    H464    1.110   .     S
H64    C861    1.110   1_554 S
C69    H77     1.097   .     S
C69    C70     1.532   .     S
C69    H78     1.112   .     S
C70    C71     1.526   .     S
C70    H76     1.102   .     S
C70    H75     1.112   .     S
C71    H74     1.110   .     S
C71    H472    1.106   .     S
C71    H473    1.111   .     S
H72    C871    1.106   1_554 S
H73    C871    1.111   1_554 S
C79    H87     1.087   .     S
C79    H88     1.112   .     S
C79    C80     1.536   .     S
C80    H86     1.113   .     S
C80    H85     1.109   .     S
C80    C81     1.530   .     S
C81    H82     1.110   .     S
C81    H83     1.109   .     S
C81    H884    1.110   1_554 S
H84    C481    1.110   .     S
C89    O91     1.221   .     D
C89    H90     1.084   .     S
C92    O94     1.221   .     D
C92    H93     1.085   .     S
C95    H96     1.085   .     S
C95    O97     1.222   .     D
C98    H99     1.085   .     S
C98    O100    1.221   .     D
O101   C105    1.303   .     A
O101   Zn117   2.004   .     S
O102   Zn118   2.004   .     S
O102   C106    1.303   .     A
O103   C106    1.304   .     A
O103   Zn117   2.004   .     S
O104   Zn118   2.004   .     S
O104   C105    1.303   .     A
C105   C137    1.461   .     S
C106   C138    1.462   .     S
O107   Zn117   1.943   .     S
O107   C115    1.285   .     A
O108   Zn118   1.943   .     S
O108   C116    1.288   .     A
O109   C116    1.285   .     A
O109   Zn117   1.943   .     S
O110   C115    1.288   .     A
O110   Zn118   1.943   .     S
C111   C141    1.421   .     A
C111   C121    1.383   .     A
C111   H145    1.083   .     S
C112   C122    1.396   .     A
C112   C142    1.414   .     A
C112   H146    1.082   .     S
C113   H147    1.083   .     S
C113   C121    1.383   .     A
C113   C143    1.421   .     A
C114   H148    1.082   .     S
C114   C144    1.414   .     A
C114   C122    1.396   .     A
C115   C123    1.363   .     S
C116   C124    1.363   .     S
Zn117  N120    2.036   .     S
Zn118  N119    2.036   .     S
N119   C143    1.409   .     A
N119   C141    1.409   .     A
N120   C144    1.388   .     A
N120   C142    1.388   .     A
C121   C322    1.512   1_545 S
C122   C321    1.512   .     S
C123   C924    1.164   1_554 S
C124   C523    1.164   .     S
C125   H129    1.084   .     S
C125   C139    1.388   .     A
C125   C133    1.395   .     A
C126   C134    1.379   .     A
C126   H130    1.086   .     S
C126   C140    1.389   .     A
C127   H131    1.084   .     S
C127   C135    1.395   .     A
C127   C140    1.388   .     A
C128   H132    1.086   .     S
C128   C139    1.390   .     A
C128   C136    1.378   .     A
C133   C189    1.489   .     S
C133   C137    1.426   .     A
C134   C192    1.475   .     S
C134   C138    1.418   .     A
C135   C138    1.426   .     A
C135   C195    1.489   .     S
C136   C137    1.417   .     A
C136   C198    1.474   .     S
C140   C39     1.439   1_655 S
C141   C149    1.520   .     S
C142   C159    1.514   .     S
C143   C169    1.520   .     S
C144   C179    1.514   .     S
C149   H157    1.097   .     S
C149   H158    1.112   .     S
C149   C150    1.532   .     S
C150   C151    1.526   .     S
C150   H155    1.112   .     S
C150   H156    1.102   .     S
C151   H154    1.110   .     S
C151   H952    1.106   1_554 S
C151   H953    1.111   1_554 S
H152   C551    1.106   .     S
H153   C551    1.111   .     S
C159   C160    1.536   .     S
C159   H168    1.112   .     S
C159   H167    1.087   .     S
C160   H166    1.113   .     S
C160   C161    1.530   .     S
C160   H165    1.109   .     S
C161   H163    1.109   .     S
C161   H162    1.110   .     S
C161   H564    1.110   .     S
H164   C961    1.110   1_554 S
C169   H177    1.097   .     S
C169   C170    1.532   .     S
C169   H178    1.112   .     S
C170   C171    1.526   .     S
C170   H176    1.102   .     S
C170   H175    1.112   .     S
C171   H174    1.110   .     S
C171   H572    1.106   .     S
C171   H573    1.111   .     S
H172   C971    1.106   1_554 S
H173   C971    1.111   1_554 S
C179   H187    1.087   .     S
C179   H188    1.112   .     S
C179   C180    1.536   .     S
C180   H186    1.113   .     S
C180   H185    1.109   .     S
C180   C181    1.530   .     S
C181   H182    1.110   .     S
C181   H183    1.109   .     S
C181   H984    1.110   1_554 S
H184   C581    1.110   .     S
C189   O191    1.221   .     D
C189   H190    1.084   .     S
C192   O194    1.221   .     D
C192   H193    1.085   .     S
C195   H196    1.085   .     S
C195   O197    1.222   .     D
C198   H199    1.085   .     S
C198   O200    1.221   .     D
O201   C205    1.303   .     A
O201   Zn217   2.004   .     S
O202   Zn218   2.004   .     S
O202   C206    1.303   .     A
O203   C206    1.304   .     A
O203   Zn217   2.004   .     S
O204   Zn218   2.004   .     S
O204   C205    1.303   .     A
C205   C237    1.461   .     S
C206   C238    1.462   .     S
O207   Zn217   1.943   .     S
O207   C215    1.285   .     A
O208   Zn218   1.943   .     S
O208   C216    1.288   .     A
O209   C216    1.285   .     A
O209   Zn217   1.943   .     S
O210   C215    1.288   .     A
O210   Zn218   1.943   .     S
C211   C241    1.421   .     A
C211   C221    1.383   .     A
C211   H245    1.083   .     S
C212   C222    1.396   .     A
C212   C242    1.414   .     A
C212   H246    1.082   .     S
C213   H247    1.083   .     S
C213   C221    1.383   .     A
C213   C243    1.421   .     A
C214   H248    1.082   .     S
C214   C244    1.414   .     A
C214   C222    1.396   .     A
C215   C223    1.363   .     S
C216   C224    1.363   .     S
Zn217  N220    2.036   .     S
Zn218  N219    2.036   .     S
N219   C243    1.409   .     A
N219   C241    1.409   .     A
N220   C244    1.388   .     A
N220   C242    1.388   .     A
C222   C21     1.512   1_565 S
C223   C1024   1.164   1_554 S
C224   C623    1.164   .     S
C225   H229    1.084   .     S
C225   C239    1.388   .     A
C225   C233    1.395   .     A
C226   C234    1.379   .     A
C226   H230    1.086   .     S
C226   C240    1.389   .     A
C227   H231    1.084   .     S
C227   C235    1.395   .     A
C227   C240    1.388   .     A
C228   H232    1.086   .     S
C228   C239    1.390   .     A
C228   C236    1.378   .     A
C233   C289    1.489   .     S
C233   C237    1.426   .     A
C234   C292    1.475   .     S
C234   C238    1.418   .     A
C235   C238    1.426   .     A
C235   C295    1.489   .     S
C236   C237    1.417   .     A
C236   C298    1.474   .     S
C239   C340    1.439   1_455 S
C240   C339    1.439   .     S
C241   C249    1.520   .     S
C242   C259    1.514   .     S
C243   C269    1.520   .     S
C244   C279    1.514   .     S
C249   H257    1.097   .     S
C249   H258    1.112   .     S
C249   C250    1.532   .     S
C250   C251    1.526   .     S
C250   H255    1.112   .     S
C250   H256    1.102   .     S
C251   H254    1.110   .     S
C251   H1052   1.106   1_554 S
C251   H1053   1.111   1_554 S
H252   C651    1.106   .     S
H253   C651    1.111   .     S
C259   C260    1.536   .     S
C259   H268    1.112   .     S
C259   H267    1.087   .     S
C260   H266    1.113   .     S
C260   C261    1.530   .     S
C260   H265    1.109   .     S
C261   H263    1.109   .     S
C261   H262    1.110   .     S
C261   H664    1.110   .     S
H264   C1061   1.110   1_554 S
C269   H277    1.097   .     S
C269   C270    1.532   .     S
C269   H278    1.112   .     S
C270   C271    1.526   .     S
C270   H276    1.102   .     S
C270   H275    1.112   .     S
C271   H274    1.110   .     S
C271   H672    1.106   .     S
C271   H673    1.111   .     S
H272   C1071   1.106   1_554 S
H273   C1071   1.111   1_554 S
C279   H287    1.087   .     S
C279   H288    1.112   .     S
C279   C280    1.536   .     S
C280   H286    1.113   .     S
C280   H285    1.109   .     S
C280   C281    1.530   .     S
C281   H282    1.110   .     S
C281   H283    1.109   .     S
C281   H1084   1.110   1_554 S
H284   C681    1.110   .     S
C289   O291    1.221   .     D
C289   H290    1.084   .     S
C292   O294    1.221   .     D
C292   H293    1.085   .     S
C295   H296    1.085   .     S
C295   O297    1.222   .     D
C298   H299    1.085   .     S
C298   O300    1.221   .     D
O301   C305    1.303   .     A
O301   Zn317   2.004   .     S
O302   Zn318   2.004   .     S
O302   C306    1.303   .     A
O303   C306    1.304   .     A
O303   Zn317   2.004   .     S
O304   Zn318   2.004   .     S
O304   C305    1.303   .     A
C305   C337    1.461   .     S
C306   C338    1.462   .     S
O307   Zn317   1.943   .     S
O307   C315    1.285   .     A
O308   Zn318   1.943   .     S
O308   C316    1.288   .     A
O309   C316    1.285   .     A
O309   Zn317   1.943   .     S
O310   C315    1.288   .     A
O310   Zn318   1.943   .     S
C311   C341    1.421   .     A
C311   C321    1.383   .     A
C311   H345    1.083   .     S
C312   C322    1.396   .     A
C312   C342    1.414   .     A
C312   H346    1.082   .     S
C313   H347    1.083   .     S
C313   C321    1.383   .     A
C313   C343    1.421   .     A
C314   H348    1.082   .     S
C314   C344    1.414   .     A
C314   C322    1.396   .     A
C315   C323    1.363   .     S
C316   C324    1.363   .     S
Zn317  N320    2.036   .     S
Zn318  N319    2.036   .     S
N319   C343    1.409   .     A
N319   C341    1.409   .     A
N320   C344    1.388   .     A
N320   C342    1.388   .     A
C322   C121    1.512   1_565 S
C323   C1124   1.164   1_554 S
C324   C723    1.164   .     S
C325   H329    1.084   .     S
C325   C339    1.388   .     A
C325   C333    1.395   .     A
C326   C334    1.379   .     A
C326   H330    1.086   .     S
C326   C340    1.389   .     A
C327   H331    1.084   .     S
C327   C335    1.395   .     A
C327   C340    1.388   .     A
C328   H332    1.086   .     S
C328   C339    1.390   .     A
C328   C336    1.378   .     A
C333   C389    1.489   .     S
C333   C337    1.426   .     A
C334   C392    1.475   .     S
C334   C338    1.418   .     A
C335   C338    1.426   .     A
C335   C395    1.489   .     S
C336   C337    1.417   .     A
C336   C398    1.474   .     S
C340   C239    1.439   1_655 S
C341   C349    1.520   .     S
C342   C359    1.514   .     S
C343   C369    1.520   .     S
C344   C379    1.514   .     S
C349   H357    1.097   .     S
C349   H358    1.112   .     S
C349   C350    1.532   .     S
C350   C351    1.526   .     S
C350   H355    1.112   .     S
C350   H356    1.102   .     S
C351   H354    1.110   .     S
C351   H1152   1.106   1_554 S
C351   H1153   1.111   1_554 S
H352   C751    1.106   .     S
H353   C751    1.111   .     S
C359   C360    1.536   .     S
C359   H368    1.112   .     S
C359   H367    1.087   .     S
C360   H366    1.113   .     S
C360   C361    1.530   .     S
C360   H365    1.109   .     S
C361   H363    1.109   .     S
C361   H362    1.110   .     S
C361   H764    1.110   .     S
H364   C1161   1.110   1_554 S
C369   H377    1.097   .     S
C369   C370    1.532   .     S
C369   H378    1.112   .     S
C370   C371    1.526   .     S
C370   H376    1.102   .     S
C370   H375    1.112   .     S
C371   H374    1.110   .     S
C371   H772    1.106   .     S
C371   H773    1.111   .     S
H372   C1171   1.106   1_554 S
H373   C1171   1.111   1_554 S
C379   H387    1.087   .     S
C379   H388    1.112   .     S
C379   C380    1.536   .     S
C380   H386    1.113   .     S
C380   H385    1.109   .     S
C380   C381    1.530   .     S
C381   H382    1.110   .     S
C381   H383    1.109   .     S
C381   H1184   1.110   1_554 S
H384   C781    1.110   .     S
C389   O391    1.221   .     D
C389   H390    1.084   .     S
C392   O394    1.221   .     D
C392   H393    1.085   .     S
C395   H396    1.085   .     S
C395   O397    1.222   .     D
C398   H399    1.085   .     S
C398   O400    1.221   .     D
O401   C405    1.303   .     A
O401   Zn417   2.004   .     S
O402   Zn418   2.004   .     S
O402   C406    1.303   .     A
O403   C406    1.304   .     A
O403   Zn417   2.004   .     S
O404   Zn418   2.004   .     S
O404   C405    1.303   .     A
C405   C437    1.461   .     S
C406   C438    1.462   .     S
O407   Zn417   1.943   .     S
O407   C415    1.285   .     A
O408   Zn418   1.943   .     S
O408   C416    1.288   .     A
O409   C416    1.285   .     A
O409   Zn417   1.943   .     S
O410   C415    1.288   .     A
O410   Zn418   1.943   .     S
C411   C441    1.421   .     A
C411   C421    1.383   .     A
C411   H445    1.083   .     S
C412   C422    1.396   .     A
C412   C442    1.414   .     A
C412   H446    1.082   .     S
C413   H447    1.083   .     S
C413   C421    1.383   .     A
C413   C443    1.421   .     A
C414   H448    1.082   .     S
C414   C444    1.414   .     A
C414   C422    1.396   .     A
C415   C423    1.363   .     S
C416   C424    1.363   .     S
Zn417  N420    2.036   .     S
Zn418  N419    2.036   .     S
N419   C443    1.409   .     A
N419   C441    1.409   .     A
N420   C444    1.388   .     A
N420   C442    1.388   .     A
C421   C622    1.512   1_545 S
C422   C621    1.512   .     S
C424   C823    1.164   .     S
C425   H429    1.084   .     S
C425   C439    1.388   .     A
C425   C433    1.395   .     A
C426   C434    1.379   .     A
C426   H430    1.086   .     S
C426   C440    1.389   .     A
C427   H431    1.084   .     S
C427   C435    1.395   .     A
C427   C440    1.388   .     A
C428   H432    1.086   .     S
C428   C439    1.390   .     A
C428   C436    1.378   .     A
C433   C489    1.489   .     S
C433   C437    1.426   .     A
C434   C492    1.475   .     S
C434   C438    1.418   .     A
C435   C438    1.426   .     A
C435   C495    1.489   .     S
C436   C437    1.417   .     A
C436   C498    1.474   .     S
C439   C540    1.439   1_455 S
C440   C539    1.439   .     S
C441   C449    1.520   .     S
C442   C459    1.514   .     S
C443   C469    1.520   .     S
C444   C479    1.514   .     S
C449   H457    1.097   .     S
C449   H458    1.112   .     S
C449   C450    1.532   .     S
C450   C451    1.526   .     S
C450   H455    1.112   .     S
C450   H456    1.102   .     S
C451   H454    1.110   .     S
H452   C851    1.106   .     S
H453   C851    1.111   .     S
C459   C460    1.536   .     S
C459   H468    1.112   .     S
C459   H467    1.087   .     S
C460   H466    1.113   .     S
C460   C461    1.530   .     S
C460   H465    1.109   .     S
C461   H463    1.109   .     S
C461   H462    1.110   .     S
C461   H864    1.110   .     S
C469   H477    1.097   .     S
C469   C470    1.532   .     S
C469   H478    1.112   .     S
C470   C471    1.526   .     S
C470   H476    1.102   .     S
C470   H475    1.112   .     S
C471   H474    1.110   .     S
C471   H872    1.106   .     S
C471   H873    1.111   .     S
C479   H487    1.087   .     S
C479   H488    1.112   .     S
C479   C480    1.536   .     S
C480   H486    1.113   .     S
C480   H485    1.109   .     S
C480   C481    1.530   .     S
C481   H482    1.110   .     S
C481   H483    1.109   .     S
H484   C881    1.110   .     S
C489   O491    1.221   .     D
C489   H490    1.084   .     S
C492   O494    1.221   .     D
C492   H493    1.085   .     S
C495   H496    1.085   .     S
C495   O497    1.222   .     D
C498   H499    1.085   .     S
C498   O500    1.221   .     D
O501   C505    1.303   .     A
O501   Zn517   2.004   .     S
O502   Zn518   2.004   .     S
O502   C506    1.303   .     A
O503   C506    1.304   .     A
O503   Zn517   2.004   .     S
O504   Zn518   2.004   .     S
O504   C505    1.303   .     A
C505   C537    1.461   .     S
C506   C538    1.462   .     S
O507   Zn517   1.943   .     S
O507   C515    1.285   .     A
O508   Zn518   1.943   .     S
O508   C516    1.288   .     A
O509   C516    1.285   .     A
O509   Zn517   1.943   .     S
O510   C515    1.288   .     A
O510   Zn518   1.943   .     S
C511   C541    1.421   .     A
C511   C521    1.383   .     A
C511   H545    1.083   .     S
C512   C522    1.396   .     A
C512   C542    1.414   .     A
C512   H546    1.082   .     S
C513   H547    1.083   .     S
C513   C521    1.383   .     A
C513   C543    1.421   .     A
C514   H548    1.082   .     S
C514   C544    1.414   .     A
C514   C522    1.396   .     A
C515   C523    1.363   .     S
C516   C524    1.363   .     S
Zn517  N520    2.036   .     S
Zn518  N519    2.036   .     S
N519   C543    1.409   .     A
N519   C541    1.409   .     A
N520   C544    1.388   .     A
N520   C542    1.388   .     A
C521   C722    1.512   1_545 S
C522   C721    1.512   .     S
C524   C923    1.164   .     S
C525   H529    1.084   .     S
C525   C539    1.388   .     A
C525   C533    1.395   .     A
C526   C534    1.379   .     A
C526   H530    1.086   .     S
C526   C540    1.389   .     A
C527   H531    1.084   .     S
C527   C535    1.395   .     A
C527   C540    1.388   .     A
C528   H532    1.086   .     S
C528   C539    1.390   .     A
C528   C536    1.378   .     A
C533   C589    1.489   .     S
C533   C537    1.426   .     A
C534   C592    1.475   .     S
C534   C538    1.418   .     A
C535   C538    1.426   .     A
C535   C595    1.489   .     S
C536   C537    1.417   .     A
C536   C598    1.474   .     S
C540   C439    1.439   1_655 S
C541   C549    1.520   .     S
C542   C559    1.514   .     S
C543   C569    1.520   .     S
C544   C579    1.514   .     S
C549   H557    1.097   .     S
C549   H558    1.112   .     S
C549   C550    1.532   .     S
C550   C551    1.526   .     S
C550   H555    1.112   .     S
C550   H556    1.102   .     S
C551   H554    1.110   .     S
H552   C951    1.106   .     S
H553   C951    1.111   .     S
C559   C560    1.536   .     S
C559   H568    1.112   .     S
C559   H567    1.087   .     S
C560   H566    1.113   .     S
C560   C561    1.530   .     S
C560   H565    1.109   .     S
C561   H563    1.109   .     S
C561   H562    1.110   .     S
C561   H964    1.110   .     S
C569   H577    1.097   .     S
C569   C570    1.532   .     S
C569   H578    1.112   .     S
C570   C571    1.526   .     S
C570   H576    1.102   .     S
C570   H575    1.112   .     S
C571   H574    1.110   .     S
C571   H972    1.106   .     S
C571   H973    1.111   .     S
C579   H587    1.087   .     S
C579   H588    1.112   .     S
C579   C580    1.536   .     S
C580   H586    1.113   .     S
C580   H585    1.109   .     S
C580   C581    1.530   .     S
C581   H582    1.110   .     S
C581   H583    1.109   .     S
H584   C981    1.110   .     S
C589   O591    1.221   .     D
C589   H590    1.084   .     S
C592   O594    1.221   .     D
C592   H593    1.085   .     S
C595   H596    1.085   .     S
C595   O597    1.222   .     D
C598   H599    1.085   .     S
C598   O600    1.221   .     D
O601   C605    1.303   .     A
O601   Zn617   2.004   .     S
O602   Zn618   2.004   .     S
O602   C606    1.303   .     A
O603   C606    1.304   .     A
O603   Zn617   2.004   .     S
O604   Zn618   2.004   .     S
O604   C605    1.303   .     A
C605   C637    1.461   .     S
C606   C638    1.462   .     S
O607   Zn617   1.943   .     S
O607   C615    1.285   .     A
O608   Zn618   1.943   .     S
O608   C616    1.288   .     A
O609   C616    1.285   .     A
O609   Zn617   1.943   .     S
O610   C615    1.288   .     A
O610   Zn618   1.943   .     S
C611   C641    1.421   .     A
C611   C621    1.383   .     A
C611   H645    1.083   .     S
C612   C622    1.396   .     A
C612   C642    1.414   .     A
C612   H646    1.082   .     S
C613   H647    1.083   .     S
C613   C621    1.383   .     A
C613   C643    1.421   .     A
C614   H648    1.082   .     S
C614   C644    1.414   .     A
C614   C622    1.396   .     A
C615   C623    1.363   .     S
C616   C624    1.363   .     S
Zn617  N620    2.036   .     S
Zn618  N619    2.036   .     S
N619   C643    1.409   .     A
N619   C641    1.409   .     A
N620   C644    1.388   .     A
N620   C642    1.388   .     A
C622   C421    1.512   1_565 S
C624   C1023   1.164   .     S
C625   H629    1.084   .     S
C625   C639    1.388   .     A
C625   C633    1.395   .     A
C626   C634    1.379   .     A
C626   H630    1.086   .     S
C626   C640    1.389   .     A
C627   H631    1.084   .     S
C627   C635    1.395   .     A
C627   C640    1.388   .     A
C628   H632    1.086   .     S
C628   C639    1.390   .     A
C628   C636    1.378   .     A
C633   C689    1.489   .     S
C633   C637    1.426   .     A
C634   C692    1.475   .     S
C634   C638    1.418   .     A
C635   C638    1.426   .     A
C635   C695    1.489   .     S
C636   C637    1.417   .     A
C636   C698    1.474   .     S
C639   C740    1.439   1_455 S
C640   C739    1.439   .     S
C641   C649    1.520   .     S
C642   C659    1.514   .     S
C643   C669    1.520   .     S
C644   C679    1.514   .     S
C649   H657    1.097   .     S
C649   H658    1.112   .     S
C649   C650    1.532   .     S
C650   C651    1.526   .     S
C650   H655    1.112   .     S
C650   H656    1.102   .     S
C651   H654    1.110   .     S
H652   C1051   1.106   .     S
H653   C1051   1.111   .     S
C659   C660    1.536   .     S
C659   H668    1.112   .     S
C659   H667    1.087   .     S
C660   H666    1.113   .     S
C660   C661    1.530   .     S
C660   H665    1.109   .     S
C661   H663    1.109   .     S
C661   H662    1.110   .     S
C661   H1064   1.110   .     S
C669   H677    1.097   .     S
C669   C670    1.532   .     S
C669   H678    1.112   .     S
C670   C671    1.526   .     S
C670   H676    1.102   .     S
C670   H675    1.112   .     S
C671   H674    1.110   .     S
C671   H1072   1.106   .     S
C671   H1073   1.111   .     S
C679   H687    1.087   .     S
C679   H688    1.112   .     S
C679   C680    1.536   .     S
C680   H686    1.113   .     S
C680   H685    1.109   .     S
C680   C681    1.530   .     S
C681   H682    1.110   .     S
C681   H683    1.109   .     S
H684   C1081   1.110   .     S
C689   O691    1.221   .     D
C689   H690    1.084   .     S
C692   O694    1.221   .     D
C692   H693    1.085   .     S
C695   H696    1.085   .     S
C695   O697    1.222   .     D
C698   H699    1.085   .     S
C698   O700    1.221   .     D
O701   C705    1.303   .     A
O701   Zn717   2.004   .     S
O702   Zn718   2.004   .     S
O702   C706    1.303   .     A
O703   C706    1.304   .     A
O703   Zn717   2.004   .     S
O704   Zn718   2.004   .     S
O704   C705    1.303   .     A
C705   C737    1.461   .     S
C706   C738    1.462   .     S
O707   Zn717   1.943   .     S
O707   C715    1.285   .     A
O708   Zn718   1.943   .     S
O708   C716    1.288   .     A
O709   C716    1.285   .     A
O709   Zn717   1.943   .     S
O710   C715    1.288   .     A
O710   Zn718   1.943   .     S
C711   C741    1.421   .     A
C711   C721    1.383   .     A
C711   H745    1.083   .     S
C712   C722    1.396   .     A
C712   C742    1.414   .     A
C712   H746    1.082   .     S
C713   H747    1.083   .     S
C713   C721    1.383   .     A
C713   C743    1.421   .     A
C714   H748    1.082   .     S
C714   C744    1.414   .     A
C714   C722    1.396   .     A
C715   C723    1.363   .     S
C716   C724    1.363   .     S
Zn717  N720    2.036   .     S
Zn718  N719    2.036   .     S
N719   C743    1.409   .     A
N719   C741    1.409   .     A
N720   C744    1.388   .     A
N720   C742    1.388   .     A
C722   C521    1.512   1_565 S
C724   C1123   1.164   .     S
C725   H729    1.084   .     S
C725   C739    1.388   .     A
C725   C733    1.395   .     A
C726   C734    1.379   .     A
C726   H730    1.086   .     S
C726   C740    1.389   .     A
C727   H731    1.084   .     S
C727   C735    1.395   .     A
C727   C740    1.388   .     A
C728   H732    1.086   .     S
C728   C739    1.390   .     A
C728   C736    1.378   .     A
C733   C789    1.489   .     S
C733   C737    1.426   .     A
C734   C792    1.475   .     S
C734   C738    1.418   .     A
C735   C738    1.426   .     A
C735   C795    1.489   .     S
C736   C737    1.417   .     A
C736   C798    1.474   .     S
C740   C639    1.439   1_655 S
C741   C749    1.520   .     S
C742   C759    1.514   .     S
C743   C769    1.520   .     S
C744   C779    1.514   .     S
C749   H757    1.097   .     S
C749   H758    1.112   .     S
C749   C750    1.532   .     S
C750   C751    1.526   .     S
C750   H755    1.112   .     S
C750   H756    1.102   .     S
C751   H754    1.110   .     S
H752   C1151   1.106   .     S
H753   C1151   1.111   .     S
C759   C760    1.536   .     S
C759   H768    1.112   .     S
C759   H767    1.087   .     S
C760   H766    1.113   .     S
C760   C761    1.530   .     S
C760   H765    1.109   .     S
C761   H763    1.109   .     S
C761   H762    1.110   .     S
C761   H1164   1.110   .     S
C769   H777    1.097   .     S
C769   C770    1.532   .     S
C769   H778    1.112   .     S
C770   C771    1.526   .     S
C770   H776    1.102   .     S
C770   H775    1.112   .     S
C771   H774    1.110   .     S
C771   H1172   1.106   .     S
C771   H1173   1.111   .     S
C779   H787    1.087   .     S
C779   H788    1.112   .     S
C779   C780    1.536   .     S
C780   H786    1.113   .     S
C780   H785    1.109   .     S
C780   C781    1.530   .     S
C781   H782    1.110   .     S
C781   H783    1.109   .     S
H784   C1181   1.110   .     S
C789   O791    1.221   .     D
C789   H790    1.084   .     S
C792   O794    1.221   .     D
C792   H793    1.085   .     S
C795   H796    1.085   .     S
C795   O797    1.222   .     D
C798   H799    1.085   .     S
C798   O800    1.221   .     D
O801   C805    1.303   .     A
O801   Zn817   2.004   .     S
O802   Zn818   2.004   .     S
O802   C806    1.303   .     A
O803   C806    1.304   .     A
O803   Zn817   2.004   .     S
O804   Zn818   2.004   .     S
O804   C805    1.303   .     A
C805   C837    1.461   .     S
C806   C838    1.462   .     S
O807   Zn817   1.943   .     S
O807   C815    1.285   .     A
O808   Zn818   1.943   .     S
O808   C816    1.288   .     A
O809   C816    1.285   .     A
O809   Zn817   1.943   .     S
O810   C815    1.288   .     A
O810   Zn818   1.943   .     S
C811   C841    1.421   .     A
C811   C821    1.383   .     A
C811   H845    1.083   .     S
C812   C822    1.396   .     A
C812   C842    1.414   .     A
C812   H846    1.082   .     S
C813   H847    1.083   .     S
C813   C821    1.383   .     A
C813   C843    1.421   .     A
C814   H848    1.082   .     S
C814   C844    1.414   .     A
C814   C822    1.396   .     A
C815   C823    1.363   .     S
C816   C824    1.363   .     S
Zn817  N820    2.036   .     S
Zn818  N819    2.036   .     S
N819   C843    1.409   .     A
N819   C841    1.409   .     A
N820   C844    1.388   .     A
N820   C842    1.388   .     A
C821   C1022   1.512   1_545 S
C822   C1021   1.512   .     S
C824   C23     1.164   1_556 S
C825   H829    1.084   .     S
C825   C839    1.388   .     A
C825   C833    1.395   .     A
C826   C834    1.379   .     A
C826   H830    1.086   .     S
C826   C840    1.389   .     A
C827   H831    1.084   .     S
C827   C835    1.395   .     A
C827   C840    1.388   .     A
C828   H832    1.086   .     S
C828   C839    1.390   .     A
C828   C836    1.378   .     A
C833   C889    1.489   .     S
C833   C837    1.426   .     A
C834   C892    1.475   .     S
C834   C838    1.418   .     A
C835   C838    1.426   .     A
C835   C895    1.489   .     S
C836   C837    1.417   .     A
C836   C898    1.474   .     S
C839   C940    1.439   1_455 S
C840   C939    1.439   .     S
C841   C849    1.520   .     S
C842   C859    1.514   .     S
C843   C869    1.520   .     S
C844   C879    1.514   .     S
C849   H857    1.097   .     S
C849   H858    1.112   .     S
C849   C850    1.532   .     S
C850   C851    1.526   .     S
C850   H855    1.112   .     S
C850   H856    1.102   .     S
C851   H854    1.110   .     S
H852   C51     1.106   1_556 S
H853   C51     1.111   1_556 S
C859   C860    1.536   .     S
C859   H868    1.112   .     S
C859   H867    1.087   .     S
C860   H866    1.113   .     S
C860   C861    1.530   .     S
C860   H865    1.109   .     S
C861   H863    1.109   .     S
C861   H862    1.110   .     S
C861   H64     1.110   1_556 S
C869   H877    1.097   .     S
C869   C870    1.532   .     S
C869   H878    1.112   .     S
C870   C871    1.526   .     S
C870   H876    1.102   .     S
C870   H875    1.112   .     S
C871   H874    1.110   .     S
C871   H72     1.106   1_556 S
C871   H73     1.111   1_556 S
C879   H887    1.087   .     S
C879   H888    1.112   .     S
C879   C880    1.536   .     S
C880   H886    1.113   .     S
C880   H885    1.109   .     S
C880   C881    1.530   .     S
C881   H882    1.110   .     S
C881   H883    1.109   .     S
H884   C81     1.110   1_556 S
C889   O891    1.221   .     D
C889   H890    1.084   .     S
C892   O894    1.221   .     D
C892   H893    1.085   .     S
C895   H896    1.085   .     S
C895   O897    1.222   .     D
C898   H899    1.085   .     S
C898   O900    1.221   .     D
O901   C905    1.303   .     A
O901   Zn917   2.004   .     S
O902   Zn918   2.004   .     S
O902   C906    1.303   .     A
O903   C906    1.304   .     A
O903   Zn917   2.004   .     S
O904   Zn918   2.004   .     S
O904   C905    1.303   .     A
C905   C937    1.461   .     S
C906   C938    1.462   .     S
O907   Zn917   1.943   .     S
O907   C915    1.285   .     A
O908   Zn918   1.943   .     S
O908   C916    1.288   .     A
O909   C916    1.285   .     A
O909   Zn917   1.943   .     S
O910   C915    1.288   .     A
O910   Zn918   1.943   .     S
C911   C941    1.421   .     A
C911   C921    1.383   .     A
C911   H945    1.083   .     S
C912   C922    1.396   .     A
C912   C942    1.414   .     A
C912   H946    1.082   .     S
C913   H947    1.083   .     S
C913   C921    1.383   .     A
C913   C943    1.421   .     A
C914   H948    1.082   .     S
C914   C944    1.414   .     A
C914   C922    1.396   .     A
C915   C923    1.363   .     S
C916   C924    1.363   .     S
Zn917  N920    2.036   .     S
Zn918  N919    2.036   .     S
N919   C943    1.409   .     A
N919   C941    1.409   .     A
N920   C944    1.388   .     A
N920   C942    1.388   .     A
C921   C1122   1.512   1_545 S
C922   C1121   1.512   .     S
C924   C123    1.164   1_556 S
C925   H929    1.084   .     S
C925   C939    1.388   .     A
C925   C933    1.395   .     A
C926   C934    1.379   .     A
C926   H930    1.086   .     S
C926   C940    1.389   .     A
C927   H931    1.084   .     S
C927   C935    1.395   .     A
C927   C940    1.388   .     A
C928   H932    1.086   .     S
C928   C939    1.390   .     A
C928   C936    1.378   .     A
C933   C989    1.489   .     S
C933   C937    1.426   .     A
C934   C992    1.475   .     S
C934   C938    1.418   .     A
C935   C938    1.426   .     A
C935   C995    1.489   .     S
C936   C937    1.417   .     A
C936   C998    1.474   .     S
C940   C839    1.439   1_655 S
C941   C949    1.520   .     S
C942   C959    1.514   .     S
C943   C969    1.520   .     S
C944   C979    1.514   .     S
C949   H957    1.097   .     S
C949   H958    1.112   .     S
C949   C950    1.532   .     S
C950   C951    1.526   .     S
C950   H955    1.112   .     S
C950   H956    1.102   .     S
C951   H954    1.110   .     S
H952   C151    1.106   1_556 S
H953   C151    1.111   1_556 S
C959   C960    1.536   .     S
C959   H968    1.112   .     S
C959   H967    1.087   .     S
C960   H966    1.113   .     S
C960   C961    1.530   .     S
C960   H965    1.109   .     S
C961   H963    1.109   .     S
C961   H962    1.110   .     S
C961   H164    1.110   1_556 S
C969   H977    1.097   .     S
C969   C970    1.532   .     S
C969   H978    1.112   .     S
C970   C971    1.526   .     S
C970   H976    1.102   .     S
C970   H975    1.112   .     S
C971   H974    1.110   .     S
C971   H172    1.106   1_556 S
C971   H173    1.111   1_556 S
C979   H987    1.087   .     S
C979   H988    1.112   .     S
C979   C980    1.536   .     S
C980   H986    1.113   .     S
C980   H985    1.109   .     S
C980   C981    1.530   .     S
C981   H982    1.110   .     S
C981   H983    1.109   .     S
H984   C181    1.110   1_556 S
C989   O991    1.221   .     D
C989   H990    1.084   .     S
C992   O994    1.221   .     D
C992   H993    1.085   .     S
C995   H996    1.085   .     S
C995   O997    1.222   .     D
C998   H999    1.085   .     S
C998   O1000   1.221   .     D
O1001  C1005   1.303   .     A
O1001  Zn1017  2.004   .     S
O1002  Zn1018  2.004   .     S
O1002  C1006   1.303   .     A
O1003  C1006   1.304   .     A
O1003  Zn1017  2.004   .     S
O1004  Zn1018  2.004   .     S
O1004  C1005   1.303   .     A
C1005  C1037   1.461   .     S
C1006  C1038   1.462   .     S
O1007  Zn1017  1.943   .     S
O1007  C1015   1.285   .     A
O1008  Zn1018  1.943   .     S
O1008  C1016   1.288   .     A
O1009  C1016   1.285   .     A
O1009  Zn1017  1.943   .     S
O1010  C1015   1.288   .     A
O1010  Zn1018  1.943   .     S
C1011  C1041   1.421   .     A
C1011  C1021   1.383   .     A
C1011  H1045   1.083   .     S
C1012  C1022   1.396   .     A
C1012  C1042   1.414   .     A
C1012  H1046   1.082   .     S
C1013  H1047   1.083   .     S
C1013  C1021   1.383   .     A
C1013  C1043   1.421   .     A
C1014  H1048   1.082   .     S
C1014  C1044   1.414   .     A
C1014  C1022   1.396   .     A
C1015  C1023   1.363   .     S
C1016  C1024   1.363   .     S
Zn1017 N1020   2.036   .     S
Zn1018 N1019   2.036   .     S
N1019  C1043   1.409   .     A
N1019  C1041   1.409   .     A
N1020  C1044   1.388   .     A
N1020  C1042   1.388   .     A
C1022  C821    1.512   1_565 S
C1024  C223    1.164   1_556 S
C1025  H1029   1.084   .     S
C1025  C1039   1.388   .     A
C1025  C1033   1.395   .     A
C1026  C1034   1.379   .     A
C1026  H1030   1.086   .     S
C1026  C1040   1.389   .     A
C1027  H1031   1.084   .     S
C1027  C1035   1.395   .     A
C1027  C1040   1.388   .     A
C1028  H1032   1.086   .     S
C1028  C1039   1.390   .     A
C1028  C1036   1.378   .     A
C1033  C1089   1.489   .     S
C1033  C1037   1.426   .     A
C1034  C1092   1.475   .     S
C1034  C1038   1.418   .     A
C1035  C1038   1.426   .     A
C1035  C1095   1.489   .     S
C1036  C1037   1.417   .     A
C1036  C1098   1.474   .     S
C1039  C1140   1.439   1_455 S
C1040  C1139   1.439   .     S
C1041  C1049   1.520   .     S
C1042  C1059   1.514   .     S
C1043  C1069   1.520   .     S
C1044  C1079   1.514   .     S
C1049  H1057   1.097   .     S
C1049  H1058   1.112   .     S
C1049  C1050   1.532   .     S
C1050  C1051   1.526   .     S
C1050  H1055   1.112   .     S
C1050  H1056   1.102   .     S
C1051  H1054   1.110   .     S
H1052  C251    1.106   1_556 S
H1053  C251    1.111   1_556 S
C1059  C1060   1.536   .     S
C1059  H1068   1.112   .     S
C1059  H1067   1.087   .     S
C1060  H1066   1.113   .     S
C1060  C1061   1.530   .     S
C1060  H1065   1.109   .     S
C1061  H1063   1.109   .     S
C1061  H1062   1.110   .     S
C1061  H264    1.110   1_556 S
C1069  H1077   1.097   .     S
C1069  C1070   1.532   .     S
C1069  H1078   1.112   .     S
C1070  C1071   1.526   .     S
C1070  H1076   1.102   .     S
C1070  H1075   1.112   .     S
C1071  H1074   1.110   .     S
C1071  H272    1.106   1_556 S
C1071  H273    1.111   1_556 S
C1079  H1087   1.087   .     S
C1079  H1088   1.112   .     S
C1079  C1080   1.536   .     S
C1080  H1086   1.113   .     S
C1080  H1085   1.109   .     S
C1080  C1081   1.530   .     S
C1081  H1082   1.110   .     S
C1081  H1083   1.109   .     S
H1084  C281    1.110   1_556 S
C1089  O1091   1.221   .     D
C1089  H1090   1.084   .     S
C1092  O1094   1.221   .     D
C1092  H1093   1.085   .     S
C1095  H1096   1.085   .     S
C1095  O1097   1.222   .     D
C1098  H1099   1.085   .     S
C1098  O1100   1.221   .     D
O1101  C1105   1.303   .     A
O1101  Zn1117  2.004   .     S
O1102  Zn1118  2.004   .     S
O1102  C1106   1.303   .     A
O1103  C1106   1.304   .     A
O1103  Zn1117  2.004   .     S
O1104  Zn1118  2.004   .     S
O1104  C1105   1.303   .     A
C1105  C1137   1.461   .     S
C1106  C1138   1.462   .     S
O1107  Zn1117  1.943   .     S
O1107  C1115   1.285   .     A
O1108  Zn1118  1.943   .     S
O1108  C1116   1.288   .     A
O1109  C1116   1.285   .     A
O1109  Zn1117  1.943   .     S
O1110  C1115   1.288   .     A
O1110  Zn1118  1.943   .     S
C1111  C1141   1.421   .     A
C1111  C1121   1.383   .     A
C1111  H1145   1.083   .     S
C1112  C1122   1.396   .     A
C1112  C1142   1.414   .     A
C1112  H1146   1.082   .     S
C1113  H1147   1.083   .     S
C1113  C1121   1.383   .     A
C1113  C1143   1.421   .     A
C1114  H1148   1.082   .     S
C1114  C1144   1.414   .     A
C1114  C1122   1.396   .     A
C1115  C1123   1.363   .     S
C1116  C1124   1.363   .     S
Zn1117 N1120   2.036   .     S
Zn1118 N1119   2.036   .     S
N1119  C1143   1.409   .     A
N1119  C1141   1.409   .     A
N1120  C1144   1.388   .     A
N1120  C1142   1.388   .     A
C1122  C921    1.512   1_565 S
C1124  C323    1.164   1_556 S
C1125  H1129   1.084   .     S
C1125  C1139   1.388   .     A
C1125  C1133   1.395   .     A
C1126  C1134   1.379   .     A
C1126  H1130   1.086   .     S
C1126  C1140   1.389   .     A
C1127  H1131   1.084   .     S
C1127  C1135   1.395   .     A
C1127  C1140   1.388   .     A
C1128  H1132   1.086   .     S
C1128  C1139   1.390   .     A
C1128  C1136   1.378   .     A
C1133  C1189   1.489   .     S
C1133  C1137   1.426   .     A
C1134  C1192   1.475   .     S
C1134  C1138   1.418   .     A
C1135  C1138   1.426   .     A
C1135  C1195   1.489   .     S
C1136  C1137   1.417   .     A
C1136  C1198   1.474   .     S
C1140  C1039   1.439   1_655 S
C1141  C1149   1.520   .     S
C1142  C1159   1.514   .     S
C1143  C1169   1.520   .     S
C1144  C1179   1.514   .     S
C1149  H1157   1.097   .     S
C1149  H1158   1.112   .     S
C1149  C1150   1.532   .     S
C1150  C1151   1.526   .     S
C1150  H1155   1.112   .     S
C1150  H1156   1.102   .     S
C1151  H1154   1.110   .     S
H1152  C351    1.106   1_556 S
H1153  C351    1.111   1_556 S
C1159  C1160   1.536   .     S
C1159  H1168   1.112   .     S
C1159  H1167   1.087   .     S
C1160  H1166   1.113   .     S
C1160  C1161   1.530   .     S
C1160  H1165   1.109   .     S
C1161  H1163   1.109   .     S
C1161  H1162   1.110   .     S
C1161  H364    1.110   1_556 S
C1169  H1177   1.097   .     S
C1169  C1170   1.532   .     S
C1169  H1178   1.112   .     S
C1170  C1171   1.526   .     S
C1170  H1176   1.102   .     S
C1170  H1175   1.112   .     S
C1171  H1174   1.110   .     S
C1171  H372    1.106   1_556 S
C1171  H373    1.111   1_556 S
C1179  H1187   1.087   .     S
C1179  H1188   1.112   .     S
C1179  C1180   1.536   .     S
C1180  H1186   1.113   .     S
C1180  H1185   1.109   .     S
C1180  C1181   1.530   .     S
C1181  H1182   1.110   .     S
C1181  H1183   1.109   .     S
H1184  C381    1.110   1_556 S
C1189  O1191   1.221   .     D
C1189  H1190   1.084   .     S
C1192  O1194   1.221   .     D
C1192  H1193   1.085   .     S
C1195  H1196   1.085   .     S
C1195  O1197   1.222   .     D
C1198  H1199   1.085   .     S
C1198  O1200   1.221   .     D
