data_str_m3_o2_o10_pcu_sym.168
_audit_creation_date              2020-01-03
_audit_creation_method            'Materials Studio'
_symmetry_space_group_name_H-M    'P1'
_symmetry_Int_Tables_number       1
_symmetry_cell_setting            triclinic
loop_
_symmetry_equiv_pos_as_xyz
  x,y,z
_cell_length_a                    25.7231
_cell_length_b                    29.7959
_cell_length_c                    28.6686
_cell_angle_alpha                 91.1918
_cell_angle_beta                  98.0715
_cell_angle_gamma                 90.9521
loop_
_atom_site_label
_atom_site_type_symbol
_atom_site_fract_x
_atom_site_fract_y
_atom_site_fract_z
_atom_site_U_iso_or_equiv
_atom_site_adp_type
_atom_site_occupancy
O1     O     0.16667   0.18454   0.28974   0.00000  Uiso   1.00
O2     O     0.16666   0.31547   0.21026   0.00000  Uiso   1.00
O3     O     0.16667   0.18453   0.21026   0.00000  Uiso   1.00
O4     O     0.16666   0.31547   0.28974   0.00000  Uiso   1.00
C5     C     0.16593   0.16394   0.24922   0.00000  Uiso   1.00
C6     C     0.16602   0.33586   0.25025   0.00000  Uiso   1.00
O7     O     0.09058   0.25000   0.28045   0.00000  Uiso   1.00
O8     O     0.24275   0.25000   0.21956   0.00000  Uiso   1.00
O9     O     0.09058   0.25000   0.20097   0.00000  Uiso   1.00
O10    O     0.24275   0.25001   0.29904   0.00000  Uiso   1.00
C11    C     0.06731   0.24812   0.23822   0.00000  Uiso   1.00
C12    C     0.26603   0.24984   0.26191   0.00000  Uiso   1.00
Zn13   Zn    0.16667   0.25001   0.30307   0.00000  Uiso   1.00
Zn14   Zn    0.16667   0.25000   0.19693   0.00000  Uiso   1.00
C15    C     0.01378   0.23546   0.23560   0.00000  Uiso   1.00
C16    C     0.32027   0.25766   0.26585   0.00000  Uiso   1.00
C17    C     0.11857   0.04837   0.26869   0.00000  Uiso   1.00
C18    C     0.10732   0.44708   0.22499   0.00000  Uiso   1.00
C19    C     0.12383   0.09476   0.27027   0.00000  Uiso   1.00
C20    C     0.11247   0.40085   0.22978   0.00000  Uiso   1.00
H21    H     0.10021   0.11425   0.29119   0.00000  Uiso   1.00
H22    H     0.08007   0.37827   0.21630   0.00000  Uiso   1.00
C23    C     0.16013   0.11594   0.24597   0.00000  Uiso   1.00
C24    C     0.16030   0.38334   0.24967   0.00000  Uiso   1.00
C25    C     0.18823   0.09147   0.21620   0.00000  Uiso   1.00
C26    C     0.20361   0.41091   0.26466   0.00000  Uiso   1.00
H27    H     0.21528   0.10797   0.19604   0.00000  Uiso   1.00
H28    H     0.24133   0.39683   0.27738   0.00000  Uiso   1.00
C29    C     0.18249   0.04528   0.21337   0.00000  Uiso   1.00
C30    C     0.19851   0.45683   0.26234   0.00000  Uiso   1.00
H31    H     0.20553   0.02625   0.19136   0.00000  Uiso   1.00
H32    H     0.23215   0.47828   0.27496   0.00000  Uiso   1.00
C33    C     0.14891   0.02353   0.24047   0.00000  Uiso   1.00
C34    C     0.15089   0.47506   0.24240   0.00000  Uiso   1.00
C35    C     0.12814   0.23007   0.04635   0.00000  Uiso   1.00
C36    C     0.18333   0.28646   0.45131   0.00000  Uiso   1.00
H37    H     0.09546   0.21486   0.02312   0.00000  Uiso   1.00
H38    H     0.19457   0.31685   0.47196   0.00000  Uiso   1.00
C39    C     0.12816   0.22838   0.09535   0.00000  Uiso   1.00
C40    C     0.18384   0.28663   0.40221   0.00000  Uiso   1.00
N41    N     0.16667   0.24999   0.12624   0.00000  Uiso   1.00
N42    N     0.16667   0.25001   0.37377   0.00000  Uiso   1.00
C43    C     0.20700   0.27173   0.10840   0.00000  Uiso   1.00
C44    C     0.14941   0.21253   0.39509   0.00000  Uiso   1.00
C45    C     0.21104   0.26975   0.05924   0.00000  Uiso   1.00
C46    C     0.15327   0.20992   0.44512   0.00000  Uiso   1.00
C47    C     0.17030   0.24898   0.02721   0.00000  Uiso   1.00
C48    C     0.16982   0.24794   0.47406   0.00000  Uiso   1.00
N49    N     0.33246   0.19037   0.21813   0.00000  Uiso   1.00
O50    O     0.28548   0.17970   0.19748   0.00000  Uiso   1.00
O51    O     0.03372   0.15891   0.22416   0.00000  Uiso   1.00
N52    N     0.00728   0.29791   0.29103   0.00000  Uiso   1.00
O53    O     0.02957   0.29594   0.33454   0.00000  Uiso   1.00
O54    O     0.00094   0.33667   0.27114   0.00000  Uiso   1.00
C55    C     0.08684   0.02757   0.30173   0.00000  Uiso   1.00
C56    C     0.03226   0.03322   0.29645   0.00000  Uiso   1.00
C57    C     0.00358   0.01893   0.33158   0.00000  Uiso   1.00
C58    C     0.02929   0.49931   0.37213   0.00000  Uiso   1.00
C59    C     0.08350   0.49338   0.37735   0.00000  Uiso   1.00
C60    C     0.11227   0.00775   0.34238   0.00000  Uiso   1.00
H61    H     0.01228   0.04950   0.26573   0.00000  Uiso   1.00
H62    H     0.29500   0.02400   0.32790   0.00000  Uiso   1.00
H63    H     0.00750   0.48943   0.40000   0.00000  Uiso   1.00
H64    H     0.10336   0.47874   0.40906   0.00000  Uiso   1.00
H65    H     0.15460   0.00533   0.34767   0.00000  Uiso   1.00
C66    C     0.05805   0.46435   0.19881   0.00000  Uiso   1.00
C67    C     0.00900   0.45008   0.21005   0.00000  Uiso   1.00
C68    C     0.29596   0.46351   0.18297   0.00000  Uiso   1.00
C69    C     0.29799   0.49149   0.14480   0.00000  Uiso   1.00
C70    C     0.01312   0.00565   0.13320   0.00000  Uiso   1.00
C71    C     0.05966   0.49207   0.15990   0.00000  Uiso   1.00
H72    H     0.00668   0.42833   0.23952   0.00000  Uiso   1.00
H73    H     0.25842   0.45173   0.19108   0.00000  Uiso   1.00
H74    H     0.26202   0.00174   0.12383   0.00000  Uiso   1.00
H75    H     0.01461   0.02657   0.10299   0.00000  Uiso   1.00
H76    H     0.09684   0.00222   0.14941   0.00000  Uiso   1.00
C77    C     0.08816   0.19880   0.11107   0.00000  Uiso   1.00
C78    C     0.03495   0.20977   0.10124   0.00000  Uiso   1.00
C79    C     0.32918   0.17748   0.10514   0.00000  Uiso   1.00
C80    C     0.00965   0.13412   0.11928   0.00000  Uiso   1.00
C81    C     0.06258   0.12306   0.12933   0.00000  Uiso   1.00
C82    C     0.10164   0.15498   0.12432   0.00000  Uiso   1.00
H83    H     0.02396   0.24275   0.08867   0.00000  Uiso   1.00
H84    H     0.28820   0.18599   0.09696   0.00000  Uiso   1.00
H85    H     0.31269   0.10920   0.12257   0.00000  Uiso   1.00
H86    H     0.07348   0.08957   0.14011   0.00000  Uiso   1.00
H87    H     0.14231   0.14502   0.12887   0.00000  Uiso   1.00
C88    C     0.20495   0.32764   0.38417   0.00000  Uiso   1.00
C89    C     0.25775   0.32971   0.37707   0.00000  Uiso   1.00
C90    C     0.28184   0.37116   0.37086   0.00000  Uiso   1.00
C91    C     0.25347   0.41059   0.37248   0.00000  Uiso   1.00
C92    C     0.20094   0.40863   0.37957   0.00000  Uiso   1.00
C93    C     0.17658   0.36737   0.38525   0.00000  Uiso   1.00
H94    H     0.28072   0.29955   0.37873   0.00000  Uiso   1.00
H95    H     0.32272   0.37294   0.36585   0.00000  Uiso   1.00
H96    H     0.27177   0.44263   0.36756   0.00000  Uiso   1.00
H97    H     0.17942   0.43910   0.38164   0.00000  Uiso   1.00
H98    H     0.13637   0.36648   0.39254   0.00000  Uiso   1.00
N99    N     0.24643   0.29588   0.13963   0.00000  Uiso   1.00
O100   O     0.23744   0.33669   0.15281   0.00000  Uiso   1.00
O101   O     0.29454   0.28204   0.14495   0.00000  Uiso   1.00
N102   N     0.12616   0.17551   0.36704   0.00000  Uiso   1.00
O103   O     0.07949   0.17952   0.34351   0.00000  Uiso   1.00
O104   O     0.14619   0.13583   0.37272   0.00000  Uiso   1.00
N105   N     0.25714   0.28768   0.04265   0.00000  Uiso   1.00
O106   O     0.28209   0.26360   0.01491   0.00000  Uiso   1.00
O107   O     0.27414   0.32821   0.05479   0.00000  Uiso   1.00
N108   N     0.14091   0.16835   0.46597   0.00000  Uiso   1.00
O109   O     0.17462   0.15085   0.49833   0.00000  Uiso   1.00
O110   O     0.09536   0.14862   0.45386   0.00000  Uiso   1.00
O111   O     0.50000   0.18454   0.28974   0.00000  Uiso   1.00
O112   O     0.50000   0.31547   0.21026   0.00000  Uiso   1.00
O113   O     0.50000   0.18453   0.21026   0.00000  Uiso   1.00
O114   O     0.50000   0.31547   0.28974   0.00000  Uiso   1.00
C115   C     0.49926   0.16394   0.24922   0.00000  Uiso   1.00
C116   C     0.49935   0.33586   0.25025   0.00000  Uiso   1.00
O117   O     0.42392   0.25000   0.28045   0.00000  Uiso   1.00
O118   O     0.57608   0.25000   0.21956   0.00000  Uiso   1.00
O119   O     0.42392   0.25000   0.20097   0.00000  Uiso   1.00
O120   O     0.57608   0.25001   0.29904   0.00000  Uiso   1.00
C121   C     0.40064   0.24812   0.23822   0.00000  Uiso   1.00
C122   C     0.59936   0.24984   0.26191   0.00000  Uiso   1.00
Zn123  Zn    0.50000   0.25001   0.30307   0.00000  Uiso   1.00
Zn124  Zn    0.50000   0.25000   0.19693   0.00000  Uiso   1.00
C125   C     0.34711   0.23546   0.23560   0.00000  Uiso   1.00
C126   C     0.65361   0.25766   0.26585   0.00000  Uiso   1.00
C127   C     0.45190   0.04837   0.26869   0.00000  Uiso   1.00
C128   C     0.44065   0.44708   0.22499   0.00000  Uiso   1.00
C129   C     0.45716   0.09476   0.27027   0.00000  Uiso   1.00
C130   C     0.44580   0.40085   0.22978   0.00000  Uiso   1.00
H131   H     0.43355   0.11425   0.29119   0.00000  Uiso   1.00
H132   H     0.41340   0.37827   0.21630   0.00000  Uiso   1.00
C133   C     0.49347   0.11594   0.24597   0.00000  Uiso   1.00
C134   C     0.49363   0.38334   0.24967   0.00000  Uiso   1.00
C135   C     0.52157   0.09147   0.21620   0.00000  Uiso   1.00
C136   C     0.53694   0.41091   0.26466   0.00000  Uiso   1.00
H137   H     0.54861   0.10797   0.19604   0.00000  Uiso   1.00
H138   H     0.57467   0.39683   0.27738   0.00000  Uiso   1.00
C139   C     0.51583   0.04528   0.21337   0.00000  Uiso   1.00
C140   C     0.53184   0.45683   0.26234   0.00000  Uiso   1.00
H141   H     0.53886   0.02625   0.19136   0.00000  Uiso   1.00
H142   H     0.56548   0.47828   0.27496   0.00000  Uiso   1.00
C143   C     0.48225   0.02353   0.24047   0.00000  Uiso   1.00
C144   C     0.48422   0.47506   0.24240   0.00000  Uiso   1.00
C145   C     0.46147   0.23007   0.04635   0.00000  Uiso   1.00
C146   C     0.51666   0.28646   0.45131   0.00000  Uiso   1.00
H147   H     0.42879   0.21486   0.02312   0.00000  Uiso   1.00
H148   H     0.52790   0.31685   0.47196   0.00000  Uiso   1.00
C149   C     0.46149   0.22838   0.09535   0.00000  Uiso   1.00
C150   C     0.51717   0.28663   0.40221   0.00000  Uiso   1.00
N151   N     0.50000   0.24999   0.12624   0.00000  Uiso   1.00
N152   N     0.50000   0.25001   0.37377   0.00000  Uiso   1.00
C153   C     0.54033   0.27173   0.10840   0.00000  Uiso   1.00
C154   C     0.48274   0.21253   0.39509   0.00000  Uiso   1.00
C155   C     0.54438   0.26975   0.05924   0.00000  Uiso   1.00
C156   C     0.48661   0.20992   0.44512   0.00000  Uiso   1.00
C157   C     0.50364   0.24898   0.02721   0.00000  Uiso   1.00
C158   C     0.50315   0.24794   0.47406   0.00000  Uiso   1.00
N159   N     0.66579   0.19037   0.21813   0.00000  Uiso   1.00
O160   O     0.61882   0.17970   0.19748   0.00000  Uiso   1.00
O161   O     0.36706   0.15891   0.22416   0.00000  Uiso   1.00
N162   N     0.34061   0.29791   0.29103   0.00000  Uiso   1.00
O163   O     0.36291   0.29594   0.33454   0.00000  Uiso   1.00
O164   O     0.33427   0.33667   0.27114   0.00000  Uiso   1.00
C165   C     0.42017   0.02757   0.30173   0.00000  Uiso   1.00
C166   C     0.36560   0.03322   0.29645   0.00000  Uiso   1.00
C167   C     0.33691   0.01893   0.33158   0.00000  Uiso   1.00
C168   C     0.36262   0.49931   0.37213   0.00000  Uiso   1.00
C169   C     0.41684   0.49338   0.37735   0.00000  Uiso   1.00
C170   C     0.44560   0.00775   0.34238   0.00000  Uiso   1.00
H171   H     0.34561   0.04950   0.26573   0.00000  Uiso   1.00
H172   H     0.62834   0.02400   0.32790   0.00000  Uiso   1.00
H173   H     0.34083   0.48943   0.40000   0.00000  Uiso   1.00
H174   H     0.43670   0.47874   0.40906   0.00000  Uiso   1.00
H175   H     0.48793   0.00533   0.34767   0.00000  Uiso   1.00
C176   C     0.39138   0.46435   0.19881   0.00000  Uiso   1.00
C177   C     0.34233   0.45008   0.21005   0.00000  Uiso   1.00
C178   C     0.62930   0.46351   0.18297   0.00000  Uiso   1.00
C179   C     0.63132   0.49149   0.14480   0.00000  Uiso   1.00
C180   C     0.34645   0.00565   0.13320   0.00000  Uiso   1.00
C181   C     0.39299   0.49207   0.15990   0.00000  Uiso   1.00
H182   H     0.34001   0.42833   0.23952   0.00000  Uiso   1.00
H183   H     0.59175   0.45173   0.19108   0.00000  Uiso   1.00
H184   H     0.59535   0.00174   0.12383   0.00000  Uiso   1.00
H185   H     0.34795   0.02657   0.10299   0.00000  Uiso   1.00
H186   H     0.43017   0.00222   0.14941   0.00000  Uiso   1.00
C187   C     0.42149   0.19880   0.11107   0.00000  Uiso   1.00
C188   C     0.36828   0.20977   0.10124   0.00000  Uiso   1.00
C189   C     0.66251   0.17748   0.10514   0.00000  Uiso   1.00
C190   C     0.34298   0.13412   0.11928   0.00000  Uiso   1.00
C191   C     0.39591   0.12306   0.12933   0.00000  Uiso   1.00
C192   C     0.43498   0.15498   0.12432   0.00000  Uiso   1.00
H193   H     0.35730   0.24275   0.08867   0.00000  Uiso   1.00
H194   H     0.62153   0.18599   0.09696   0.00000  Uiso   1.00
H195   H     0.64603   0.10920   0.12257   0.00000  Uiso   1.00
H196   H     0.40682   0.08957   0.14011   0.00000  Uiso   1.00
H197   H     0.47564   0.14502   0.12887   0.00000  Uiso   1.00
C198   C     0.53828   0.32764   0.38417   0.00000  Uiso   1.00
C199   C     0.59109   0.32971   0.37707   0.00000  Uiso   1.00
C200   C     0.61517   0.37116   0.37086   0.00000  Uiso   1.00
C201   C     0.58680   0.41059   0.37248   0.00000  Uiso   1.00
C202   C     0.53427   0.40863   0.37957   0.00000  Uiso   1.00
C203   C     0.50991   0.36737   0.38525   0.00000  Uiso   1.00
H204   H     0.61405   0.29955   0.37873   0.00000  Uiso   1.00
H205   H     0.65606   0.37294   0.36585   0.00000  Uiso   1.00
H206   H     0.60510   0.44263   0.36756   0.00000  Uiso   1.00
H207   H     0.51275   0.43910   0.38164   0.00000  Uiso   1.00
H208   H     0.46971   0.36648   0.39254   0.00000  Uiso   1.00
N209   N     0.57977   0.29588   0.13963   0.00000  Uiso   1.00
O210   O     0.57078   0.33669   0.15281   0.00000  Uiso   1.00
O211   O     0.62787   0.28204   0.14495   0.00000  Uiso   1.00
N212   N     0.45949   0.17551   0.36704   0.00000  Uiso   1.00
O213   O     0.41282   0.17952   0.34351   0.00000  Uiso   1.00
O214   O     0.47952   0.13583   0.37272   0.00000  Uiso   1.00
N215   N     0.59047   0.28768   0.04265   0.00000  Uiso   1.00
O216   O     0.61542   0.26360   0.01491   0.00000  Uiso   1.00
O217   O     0.60747   0.32821   0.05479   0.00000  Uiso   1.00
N218   N     0.47424   0.16835   0.46597   0.00000  Uiso   1.00
O219   O     0.50795   0.15085   0.49833   0.00000  Uiso   1.00
O220   O     0.42869   0.14862   0.45386   0.00000  Uiso   1.00
O221   O     0.83334   0.18454   0.28974   0.00000  Uiso   1.00
O222   O     0.83333   0.31547   0.21026   0.00000  Uiso   1.00
O223   O     0.83334   0.18453   0.21026   0.00000  Uiso   1.00
O224   O     0.83333   0.31547   0.28974   0.00000  Uiso   1.00
C225   C     0.83259   0.16394   0.24922   0.00000  Uiso   1.00
C226   C     0.83268   0.33586   0.25025   0.00000  Uiso   1.00
O227   O     0.75725   0.25000   0.28045   0.00000  Uiso   1.00
O228   O     0.90942   0.25000   0.21956   0.00000  Uiso   1.00
O229   O     0.75725   0.25000   0.20097   0.00000  Uiso   1.00
O230   O     0.90942   0.25001   0.29904   0.00000  Uiso   1.00
C231   C     0.73397   0.24812   0.23822   0.00000  Uiso   1.00
C232   C     0.93270   0.24984   0.26191   0.00000  Uiso   1.00
Zn233  Zn    0.83333   0.25001   0.30307   0.00000  Uiso   1.00
Zn234  Zn    0.83333   0.25000   0.19693   0.00000  Uiso   1.00
C235   C     0.68044   0.23546   0.23560   0.00000  Uiso   1.00
C236   C     0.98694   0.25766   0.26585   0.00000  Uiso   1.00
C237   C     0.78524   0.04837   0.26869   0.00000  Uiso   1.00
C238   C     0.77398   0.44708   0.22499   0.00000  Uiso   1.00
C239   C     0.79049   0.09476   0.27027   0.00000  Uiso   1.00
C240   C     0.77914   0.40085   0.22978   0.00000  Uiso   1.00
H241   H     0.76688   0.11425   0.29119   0.00000  Uiso   1.00
H242   H     0.74673   0.37827   0.21630   0.00000  Uiso   1.00
C243   C     0.82680   0.11594   0.24597   0.00000  Uiso   1.00
C244   C     0.82696   0.38334   0.24967   0.00000  Uiso   1.00
C245   C     0.85490   0.09147   0.21620   0.00000  Uiso   1.00
C246   C     0.87027   0.41091   0.26466   0.00000  Uiso   1.00
H247   H     0.88195   0.10797   0.19604   0.00000  Uiso   1.00
H248   H     0.90800   0.39683   0.27738   0.00000  Uiso   1.00
C249   C     0.84916   0.04528   0.21337   0.00000  Uiso   1.00
C250   C     0.86517   0.45683   0.26234   0.00000  Uiso   1.00
H251   H     0.87220   0.02625   0.19136   0.00000  Uiso   1.00
H252   H     0.89881   0.47828   0.27496   0.00000  Uiso   1.00
C253   C     0.81558   0.02353   0.24047   0.00000  Uiso   1.00
C254   C     0.81755   0.47506   0.24240   0.00000  Uiso   1.00
C255   C     0.79481   0.23007   0.04635   0.00000  Uiso   1.00
C256   C     0.84999   0.28646   0.45131   0.00000  Uiso   1.00
H257   H     0.76213   0.21486   0.02312   0.00000  Uiso   1.00
H258   H     0.86124   0.31685   0.47196   0.00000  Uiso   1.00
C259   C     0.79482   0.22838   0.09535   0.00000  Uiso   1.00
C260   C     0.85050   0.28663   0.40221   0.00000  Uiso   1.00
N261   N     0.83333   0.24999   0.12624   0.00000  Uiso   1.00
N262   N     0.83333   0.25001   0.37377   0.00000  Uiso   1.00
C263   C     0.87367   0.27173   0.10840   0.00000  Uiso   1.00
C264   C     0.81608   0.21253   0.39509   0.00000  Uiso   1.00
C265   C     0.87771   0.26975   0.05924   0.00000  Uiso   1.00
C266   C     0.81994   0.20992   0.44512   0.00000  Uiso   1.00
C267   C     0.83697   0.24898   0.02721   0.00000  Uiso   1.00
C268   C     0.83649   0.24794   0.47406   0.00000  Uiso   1.00
N269   N     0.99912   0.19037   0.21813   0.00000  Uiso   1.00
O270   O     0.95215   0.17970   0.19748   0.00000  Uiso   1.00
O271   O     0.70039   0.15891   0.22416   0.00000  Uiso   1.00
N272   N     0.67394   0.29791   0.29103   0.00000  Uiso   1.00
O273   O     0.69624   0.29594   0.33454   0.00000  Uiso   1.00
O274   O     0.66761   0.33667   0.27114   0.00000  Uiso   1.00
C275   C     0.75351   0.02757   0.30173   0.00000  Uiso   1.00
C276   C     0.69893   0.03322   0.29645   0.00000  Uiso   1.00
C277   C     0.67024   0.01893   0.33158   0.00000  Uiso   1.00
C278   C     0.69595   0.49931   0.37213   0.00000  Uiso   1.00
C279   C     0.75017   0.49338   0.37735   0.00000  Uiso   1.00
C280   C     0.77893   0.00775   0.34238   0.00000  Uiso   1.00
H281   H     0.67894   0.04950   0.26573   0.00000  Uiso   1.00
H282   H     0.96167   0.02400   0.32790   0.00000  Uiso   1.00
H283   H     0.67416   0.48943   0.40000   0.00000  Uiso   1.00
H284   H     0.77003   0.47874   0.40906   0.00000  Uiso   1.00
H285   H     0.82126   0.00533   0.34767   0.00000  Uiso   1.00
C286   C     0.72472   0.46435   0.19881   0.00000  Uiso   1.00
C287   C     0.67567   0.45008   0.21005   0.00000  Uiso   1.00
C288   C     0.96263   0.46351   0.18297   0.00000  Uiso   1.00
C289   C     0.96466   0.49149   0.14480   0.00000  Uiso   1.00
C290   C     0.67979   0.00565   0.13320   0.00000  Uiso   1.00
C291   C     0.72632   0.49207   0.15990   0.00000  Uiso   1.00
H292   H     0.67334   0.42833   0.23952   0.00000  Uiso   1.00
H293   H     0.92508   0.45173   0.19108   0.00000  Uiso   1.00
H294   H     0.92868   0.00174   0.12383   0.00000  Uiso   1.00
H295   H     0.68128   0.02657   0.10299   0.00000  Uiso   1.00
H296   H     0.76351   0.00222   0.14941   0.00000  Uiso   1.00
C297   C     0.75483   0.19880   0.11107   0.00000  Uiso   1.00
C298   C     0.70162   0.20977   0.10124   0.00000  Uiso   1.00
C299   C     0.99584   0.17748   0.10514   0.00000  Uiso   1.00
C300   C     0.67631   0.13412   0.11928   0.00000  Uiso   1.00
C301   C     0.72924   0.12306   0.12933   0.00000  Uiso   1.00
C302   C     0.76831   0.15498   0.12432   0.00000  Uiso   1.00
H303   H     0.69063   0.24275   0.08867   0.00000  Uiso   1.00
H304   H     0.95487   0.18599   0.09696   0.00000  Uiso   1.00
H305   H     0.97936   0.10920   0.12257   0.00000  Uiso   1.00
H306   H     0.74015   0.08957   0.14011   0.00000  Uiso   1.00
H307   H     0.80897   0.14502   0.12887   0.00000  Uiso   1.00
C308   C     0.87162   0.32764   0.38417   0.00000  Uiso   1.00
C309   C     0.92442   0.32971   0.37707   0.00000  Uiso   1.00
C310   C     0.94851   0.37116   0.37086   0.00000  Uiso   1.00
C311   C     0.92014   0.41059   0.37248   0.00000  Uiso   1.00
C312   C     0.86761   0.40863   0.37957   0.00000  Uiso   1.00
C313   C     0.84324   0.36737   0.38525   0.00000  Uiso   1.00
H314   H     0.94738   0.29955   0.37873   0.00000  Uiso   1.00
H315   H     0.98939   0.37294   0.36585   0.00000  Uiso   1.00
H316   H     0.93843   0.44263   0.36756   0.00000  Uiso   1.00
H317   H     0.84609   0.43910   0.38164   0.00000  Uiso   1.00
H318   H     0.80304   0.36648   0.39254   0.00000  Uiso   1.00
N319   N     0.91310   0.29588   0.13963   0.00000  Uiso   1.00
O320   O     0.90411   0.33669   0.15281   0.00000  Uiso   1.00
O321   O     0.96120   0.28204   0.14495   0.00000  Uiso   1.00
N322   N     0.79282   0.17551   0.36704   0.00000  Uiso   1.00
O323   O     0.74615   0.17952   0.34351   0.00000  Uiso   1.00
O324   O     0.81285   0.13583   0.37272   0.00000  Uiso   1.00
N325   N     0.92381   0.28768   0.04265   0.00000  Uiso   1.00
O326   O     0.94875   0.26360   0.01491   0.00000  Uiso   1.00
O327   O     0.94081   0.32821   0.05479   0.00000  Uiso   1.00
N328   N     0.80758   0.16835   0.46597   0.00000  Uiso   1.00
O329   O     0.84128   0.15085   0.49833   0.00000  Uiso   1.00
O330   O     0.76203   0.14862   0.45386   0.00000  Uiso   1.00
O331   O     0.16667   0.68454   0.28974   0.00000  Uiso   1.00
O332   O     0.16666   0.81547   0.21026   0.00000  Uiso   1.00
O333   O     0.16667   0.68453   0.21026   0.00000  Uiso   1.00
O334   O     0.16666   0.81547   0.28974   0.00000  Uiso   1.00
C335   C     0.16593   0.66394   0.24922   0.00000  Uiso   1.00
C336   C     0.16602   0.83586   0.25025   0.00000  Uiso   1.00
O337   O     0.09058   0.75000   0.28045   0.00000  Uiso   1.00
O338   O     0.24275   0.75000   0.21956   0.00000  Uiso   1.00
O339   O     0.09058   0.75000   0.20097   0.00000  Uiso   1.00
O340   O     0.24275   0.75001   0.29904   0.00000  Uiso   1.00
C341   C     0.06731   0.74812   0.23822   0.00000  Uiso   1.00
C342   C     0.26603   0.74984   0.26191   0.00000  Uiso   1.00
Zn343  Zn    0.16667   0.75001   0.30307   0.00000  Uiso   1.00
Zn344  Zn    0.16667   0.75000   0.19693   0.00000  Uiso   1.00
C345   C     0.01378   0.73546   0.23560   0.00000  Uiso   1.00
C346   C     0.32027   0.75766   0.26585   0.00000  Uiso   1.00
C347   C     0.11857   0.54837   0.26869   0.00000  Uiso   1.00
C348   C     0.10732   0.94708   0.22499   0.00000  Uiso   1.00
C349   C     0.12383   0.59476   0.27027   0.00000  Uiso   1.00
C350   C     0.11247   0.90085   0.22978   0.00000  Uiso   1.00
H351   H     0.10021   0.61425   0.29119   0.00000  Uiso   1.00
H352   H     0.08007   0.87827   0.21630   0.00000  Uiso   1.00
C353   C     0.16013   0.61594   0.24597   0.00000  Uiso   1.00
C354   C     0.16030   0.88334   0.24967   0.00000  Uiso   1.00
C355   C     0.18823   0.59147   0.21620   0.00000  Uiso   1.00
C356   C     0.20361   0.91091   0.26466   0.00000  Uiso   1.00
H357   H     0.21528   0.60797   0.19604   0.00000  Uiso   1.00
H358   H     0.24133   0.89683   0.27738   0.00000  Uiso   1.00
C359   C     0.18249   0.54528   0.21337   0.00000  Uiso   1.00
C360   C     0.19851   0.95683   0.26234   0.00000  Uiso   1.00
H361   H     0.20553   0.52625   0.19136   0.00000  Uiso   1.00
H362   H     0.23215   0.97828   0.27496   0.00000  Uiso   1.00
C363   C     0.14891   0.52353   0.24047   0.00000  Uiso   1.00
C364   C     0.15089   0.97506   0.24240   0.00000  Uiso   1.00
C365   C     0.12814   0.73007   0.04635   0.00000  Uiso   1.00
C366   C     0.18333   0.78646   0.45131   0.00000  Uiso   1.00
H367   H     0.09546   0.71486   0.02312   0.00000  Uiso   1.00
H368   H     0.19457   0.81685   0.47196   0.00000  Uiso   1.00
C369   C     0.12816   0.72838   0.09535   0.00000  Uiso   1.00
C370   C     0.18384   0.78663   0.40221   0.00000  Uiso   1.00
N371   N     0.16667   0.74999   0.12624   0.00000  Uiso   1.00
N372   N     0.16667   0.75001   0.37377   0.00000  Uiso   1.00
C373   C     0.20700   0.77173   0.10840   0.00000  Uiso   1.00
C374   C     0.14941   0.71253   0.39509   0.00000  Uiso   1.00
C375   C     0.21104   0.76975   0.05924   0.00000  Uiso   1.00
C376   C     0.15327   0.70992   0.44512   0.00000  Uiso   1.00
C377   C     0.17030   0.74898   0.02721   0.00000  Uiso   1.00
C378   C     0.16982   0.74794   0.47406   0.00000  Uiso   1.00
N379   N     0.33246   0.69037   0.21813   0.00000  Uiso   1.00
O380   O     0.28548   0.67970   0.19748   0.00000  Uiso   1.00
O381   O     0.03372   0.65891   0.22416   0.00000  Uiso   1.00
N382   N     0.00728   0.79791   0.29103   0.00000  Uiso   1.00
O383   O     0.02957   0.79594   0.33454   0.00000  Uiso   1.00
O384   O     0.00094   0.83667   0.27114   0.00000  Uiso   1.00
C385   C     0.08684   0.52757   0.30173   0.00000  Uiso   1.00
C386   C     0.03226   0.53322   0.29645   0.00000  Uiso   1.00
C387   C     0.00358   0.51893   0.33158   0.00000  Uiso   1.00
C388   C     0.02929   0.99931   0.37213   0.00000  Uiso   1.00
C389   C     0.08350   0.99338   0.37735   0.00000  Uiso   1.00
C390   C     0.11227   0.50775   0.34238   0.00000  Uiso   1.00
H391   H     0.01228   0.54950   0.26573   0.00000  Uiso   1.00
H392   H     0.29500   0.52400   0.32790   0.00000  Uiso   1.00
H393   H     0.00750   0.98943   0.40000   0.00000  Uiso   1.00
H394   H     0.10336   0.97874   0.40906   0.00000  Uiso   1.00
H395   H     0.15460   0.50533   0.34767   0.00000  Uiso   1.00
C396   C     0.05805   0.96435   0.19881   0.00000  Uiso   1.00
C397   C     0.00900   0.95008   0.21005   0.00000  Uiso   1.00
C398   C     0.29596   0.96351   0.18297   0.00000  Uiso   1.00
C399   C     0.29799   0.99149   0.14480   0.00000  Uiso   1.00
C400   C     0.01312   0.50565   0.13320   0.00000  Uiso   1.00
C401   C     0.05966   0.99207   0.15990   0.00000  Uiso   1.00
H402   H     0.00668   0.92833   0.23952   0.00000  Uiso   1.00
H403   H     0.25842   0.95173   0.19108   0.00000  Uiso   1.00
H404   H     0.26202   0.50174   0.12383   0.00000  Uiso   1.00
H405   H     0.01461   0.52657   0.10299   0.00000  Uiso   1.00
H406   H     0.09684   0.50222   0.14941   0.00000  Uiso   1.00
C407   C     0.08816   0.69880   0.11107   0.00000  Uiso   1.00
C408   C     0.03495   0.70977   0.10124   0.00000  Uiso   1.00
C409   C     0.32918   0.67748   0.10514   0.00000  Uiso   1.00
C410   C     0.00965   0.63412   0.11928   0.00000  Uiso   1.00
C411   C     0.06258   0.62306   0.12933   0.00000  Uiso   1.00
C412   C     0.10164   0.65498   0.12432   0.00000  Uiso   1.00
H413   H     0.02396   0.74275   0.08867   0.00000  Uiso   1.00
H414   H     0.28820   0.68599   0.09696   0.00000  Uiso   1.00
H415   H     0.31269   0.60920   0.12257   0.00000  Uiso   1.00
H416   H     0.07348   0.58957   0.14011   0.00000  Uiso   1.00
H417   H     0.14231   0.64502   0.12887   0.00000  Uiso   1.00
C418   C     0.20495   0.82764   0.38417   0.00000  Uiso   1.00
C419   C     0.25775   0.82971   0.37707   0.00000  Uiso   1.00
C420   C     0.28184   0.87116   0.37086   0.00000  Uiso   1.00
C421   C     0.25347   0.91059   0.37248   0.00000  Uiso   1.00
C422   C     0.20094   0.90863   0.37957   0.00000  Uiso   1.00
C423   C     0.17658   0.86737   0.38525   0.00000  Uiso   1.00
H424   H     0.28072   0.79955   0.37873   0.00000  Uiso   1.00
H425   H     0.32272   0.87294   0.36585   0.00000  Uiso   1.00
H426   H     0.27177   0.94263   0.36756   0.00000  Uiso   1.00
H427   H     0.17942   0.93910   0.38164   0.00000  Uiso   1.00
H428   H     0.13637   0.86648   0.39254   0.00000  Uiso   1.00
N429   N     0.24643   0.79588   0.13963   0.00000  Uiso   1.00
O430   O     0.23744   0.83669   0.15281   0.00000  Uiso   1.00
O431   O     0.29454   0.78204   0.14495   0.00000  Uiso   1.00
N432   N     0.12616   0.67551   0.36704   0.00000  Uiso   1.00
O433   O     0.07949   0.67952   0.34351   0.00000  Uiso   1.00
O434   O     0.14619   0.63583   0.37272   0.00000  Uiso   1.00
N435   N     0.25714   0.78768   0.04265   0.00000  Uiso   1.00
O436   O     0.28209   0.76360   0.01491   0.00000  Uiso   1.00
O437   O     0.27414   0.82821   0.05479   0.00000  Uiso   1.00
N438   N     0.14091   0.66835   0.46597   0.00000  Uiso   1.00
O439   O     0.17462   0.65085   0.49833   0.00000  Uiso   1.00
O440   O     0.09536   0.64862   0.45386   0.00000  Uiso   1.00
O441   O     0.50000   0.68454   0.28974   0.00000  Uiso   1.00
O442   O     0.50000   0.81547   0.21026   0.00000  Uiso   1.00
O443   O     0.50000   0.68453   0.21026   0.00000  Uiso   1.00
O444   O     0.50000   0.81547   0.28974   0.00000  Uiso   1.00
C445   C     0.49926   0.66394   0.24922   0.00000  Uiso   1.00
C446   C     0.49935   0.83586   0.25025   0.00000  Uiso   1.00
O447   O     0.42392   0.75000   0.28045   0.00000  Uiso   1.00
O448   O     0.57608   0.75000   0.21956   0.00000  Uiso   1.00
O449   O     0.42392   0.75000   0.20097   0.00000  Uiso   1.00
O450   O     0.57608   0.75001   0.29904   0.00000  Uiso   1.00
C451   C     0.40064   0.74812   0.23822   0.00000  Uiso   1.00
C452   C     0.59936   0.74984   0.26191   0.00000  Uiso   1.00
Zn453  Zn    0.50000   0.75001   0.30307   0.00000  Uiso   1.00
Zn454  Zn    0.50000   0.75000   0.19693   0.00000  Uiso   1.00
C455   C     0.34711   0.73546   0.23560   0.00000  Uiso   1.00
C456   C     0.65361   0.75766   0.26585   0.00000  Uiso   1.00
C457   C     0.45190   0.54837   0.26869   0.00000  Uiso   1.00
C458   C     0.44065   0.94708   0.22499   0.00000  Uiso   1.00
C459   C     0.45716   0.59476   0.27027   0.00000  Uiso   1.00
C460   C     0.44580   0.90085   0.22978   0.00000  Uiso   1.00
H461   H     0.43355   0.61425   0.29119   0.00000  Uiso   1.00
H462   H     0.41340   0.87827   0.21630   0.00000  Uiso   1.00
C463   C     0.49347   0.61594   0.24597   0.00000  Uiso   1.00
C464   C     0.49363   0.88334   0.24967   0.00000  Uiso   1.00
C465   C     0.52157   0.59147   0.21620   0.00000  Uiso   1.00
C466   C     0.53694   0.91091   0.26466   0.00000  Uiso   1.00
H467   H     0.54861   0.60797   0.19604   0.00000  Uiso   1.00
H468   H     0.57467   0.89683   0.27738   0.00000  Uiso   1.00
C469   C     0.51583   0.54528   0.21337   0.00000  Uiso   1.00
C470   C     0.53184   0.95683   0.26234   0.00000  Uiso   1.00
H471   H     0.53886   0.52625   0.19136   0.00000  Uiso   1.00
H472   H     0.56548   0.97828   0.27496   0.00000  Uiso   1.00
C473   C     0.48225   0.52353   0.24047   0.00000  Uiso   1.00
C474   C     0.48422   0.97506   0.24240   0.00000  Uiso   1.00
C475   C     0.46147   0.73007   0.04635   0.00000  Uiso   1.00
C476   C     0.51666   0.78646   0.45131   0.00000  Uiso   1.00
H477   H     0.42879   0.71486   0.02312   0.00000  Uiso   1.00
H478   H     0.52790   0.81685   0.47196   0.00000  Uiso   1.00
C479   C     0.46149   0.72838   0.09535   0.00000  Uiso   1.00
C480   C     0.51717   0.78663   0.40221   0.00000  Uiso   1.00
N481   N     0.50000   0.74999   0.12624   0.00000  Uiso   1.00
N482   N     0.50000   0.75001   0.37377   0.00000  Uiso   1.00
C483   C     0.54033   0.77173   0.10840   0.00000  Uiso   1.00
C484   C     0.48274   0.71253   0.39509   0.00000  Uiso   1.00
C485   C     0.54438   0.76975   0.05924   0.00000  Uiso   1.00
C486   C     0.48661   0.70992   0.44512   0.00000  Uiso   1.00
C487   C     0.50364   0.74898   0.02721   0.00000  Uiso   1.00
C488   C     0.50315   0.74794   0.47406   0.00000  Uiso   1.00
N489   N     0.66579   0.69037   0.21813   0.00000  Uiso   1.00
O490   O     0.61882   0.67970   0.19748   0.00000  Uiso   1.00
O491   O     0.36706   0.65891   0.22416   0.00000  Uiso   1.00
N492   N     0.34061   0.79791   0.29103   0.00000  Uiso   1.00
O493   O     0.36291   0.79594   0.33454   0.00000  Uiso   1.00
O494   O     0.33427   0.83667   0.27114   0.00000  Uiso   1.00
C495   C     0.42017   0.52757   0.30173   0.00000  Uiso   1.00
C496   C     0.36560   0.53322   0.29645   0.00000  Uiso   1.00
C497   C     0.33691   0.51893   0.33158   0.00000  Uiso   1.00
C498   C     0.36262   0.99931   0.37213   0.00000  Uiso   1.00
C499   C     0.41684   0.99338   0.37735   0.00000  Uiso   1.00
C500   C     0.44560   0.50775   0.34238   0.00000  Uiso   1.00
H501   H     0.34561   0.54950   0.26573   0.00000  Uiso   1.00
H502   H     0.62834   0.52400   0.32790   0.00000  Uiso   1.00
H503   H     0.34083   0.98943   0.40000   0.00000  Uiso   1.00
H504   H     0.43670   0.97874   0.40906   0.00000  Uiso   1.00
H505   H     0.48793   0.50533   0.34767   0.00000  Uiso   1.00
C506   C     0.39138   0.96435   0.19881   0.00000  Uiso   1.00
C507   C     0.34233   0.95008   0.21005   0.00000  Uiso   1.00
C508   C     0.62930   0.96351   0.18297   0.00000  Uiso   1.00
C509   C     0.63132   0.99149   0.14480   0.00000  Uiso   1.00
C510   C     0.34645   0.50565   0.13320   0.00000  Uiso   1.00
C511   C     0.39299   0.99207   0.15990   0.00000  Uiso   1.00
H512   H     0.34001   0.92833   0.23952   0.00000  Uiso   1.00
H513   H     0.59175   0.95173   0.19108   0.00000  Uiso   1.00
H514   H     0.59535   0.50174   0.12383   0.00000  Uiso   1.00
H515   H     0.34795   0.52657   0.10299   0.00000  Uiso   1.00
H516   H     0.43017   0.50222   0.14941   0.00000  Uiso   1.00
C517   C     0.42149   0.69880   0.11107   0.00000  Uiso   1.00
C518   C     0.36828   0.70977   0.10124   0.00000  Uiso   1.00
C519   C     0.66251   0.67748   0.10514   0.00000  Uiso   1.00
C520   C     0.34298   0.63412   0.11928   0.00000  Uiso   1.00
C521   C     0.39591   0.62306   0.12933   0.00000  Uiso   1.00
C522   C     0.43498   0.65498   0.12432   0.00000  Uiso   1.00
H523   H     0.35730   0.74275   0.08867   0.00000  Uiso   1.00
H524   H     0.62153   0.68599   0.09696   0.00000  Uiso   1.00
H525   H     0.64603   0.60920   0.12257   0.00000  Uiso   1.00
H526   H     0.40682   0.58957   0.14011   0.00000  Uiso   1.00
H527   H     0.47564   0.64502   0.12887   0.00000  Uiso   1.00
C528   C     0.53828   0.82764   0.38417   0.00000  Uiso   1.00
C529   C     0.59109   0.82971   0.37707   0.00000  Uiso   1.00
C530   C     0.61517   0.87116   0.37086   0.00000  Uiso   1.00
C531   C     0.58680   0.91059   0.37248   0.00000  Uiso   1.00
C532   C     0.53427   0.90863   0.37957   0.00000  Uiso   1.00
C533   C     0.50991   0.86737   0.38525   0.00000  Uiso   1.00
H534   H     0.61405   0.79955   0.37873   0.00000  Uiso   1.00
H535   H     0.65606   0.87294   0.36585   0.00000  Uiso   1.00
H536   H     0.60510   0.94263   0.36756   0.00000  Uiso   1.00
H537   H     0.51275   0.93910   0.38164   0.00000  Uiso   1.00
H538   H     0.46971   0.86648   0.39254   0.00000  Uiso   1.00
N539   N     0.57977   0.79588   0.13963   0.00000  Uiso   1.00
O540   O     0.57078   0.83669   0.15281   0.00000  Uiso   1.00
O541   O     0.62787   0.78204   0.14495   0.00000  Uiso   1.00
N542   N     0.45949   0.67551   0.36704   0.00000  Uiso   1.00
O543   O     0.41282   0.67952   0.34351   0.00000  Uiso   1.00
O544   O     0.47952   0.63583   0.37272   0.00000  Uiso   1.00
N545   N     0.59047   0.78768   0.04265   0.00000  Uiso   1.00
O546   O     0.61542   0.76360   0.01491   0.00000  Uiso   1.00
O547   O     0.60747   0.82821   0.05479   0.00000  Uiso   1.00
N548   N     0.47424   0.66835   0.46597   0.00000  Uiso   1.00
O549   O     0.50795   0.65085   0.49833   0.00000  Uiso   1.00
O550   O     0.42869   0.64862   0.45386   0.00000  Uiso   1.00
O551   O     0.83334   0.68454   0.28974   0.00000  Uiso   1.00
O552   O     0.83333   0.81547   0.21026   0.00000  Uiso   1.00
O553   O     0.83334   0.68453   0.21026   0.00000  Uiso   1.00
O554   O     0.83333   0.81547   0.28974   0.00000  Uiso   1.00
C555   C     0.83259   0.66394   0.24922   0.00000  Uiso   1.00
C556   C     0.83268   0.83586   0.25025   0.00000  Uiso   1.00
O557   O     0.75725   0.75000   0.28045   0.00000  Uiso   1.00
O558   O     0.90942   0.75000   0.21956   0.00000  Uiso   1.00
O559   O     0.75725   0.75000   0.20097   0.00000  Uiso   1.00
O560   O     0.90942   0.75001   0.29904   0.00000  Uiso   1.00
C561   C     0.73397   0.74812   0.23822   0.00000  Uiso   1.00
C562   C     0.93270   0.74984   0.26191   0.00000  Uiso   1.00
Zn563  Zn    0.83333   0.75001   0.30307   0.00000  Uiso   1.00
Zn564  Zn    0.83333   0.75000   0.19693   0.00000  Uiso   1.00
C565   C     0.68044   0.73546   0.23560   0.00000  Uiso   1.00
C566   C     0.98694   0.75766   0.26585   0.00000  Uiso   1.00
C567   C     0.78524   0.54837   0.26869   0.00000  Uiso   1.00
C568   C     0.77398   0.94708   0.22499   0.00000  Uiso   1.00
C569   C     0.79049   0.59476   0.27027   0.00000  Uiso   1.00
C570   C     0.77914   0.90085   0.22978   0.00000  Uiso   1.00
H571   H     0.76688   0.61425   0.29119   0.00000  Uiso   1.00
H572   H     0.74673   0.87827   0.21630   0.00000  Uiso   1.00
C573   C     0.82680   0.61594   0.24597   0.00000  Uiso   1.00
C574   C     0.82696   0.88334   0.24967   0.00000  Uiso   1.00
C575   C     0.85490   0.59147   0.21620   0.00000  Uiso   1.00
C576   C     0.87027   0.91091   0.26466   0.00000  Uiso   1.00
H577   H     0.88195   0.60797   0.19604   0.00000  Uiso   1.00
H578   H     0.90800   0.89683   0.27738   0.00000  Uiso   1.00
C579   C     0.84916   0.54528   0.21337   0.00000  Uiso   1.00
C580   C     0.86517   0.95683   0.26234   0.00000  Uiso   1.00
H581   H     0.87220   0.52625   0.19136   0.00000  Uiso   1.00
H582   H     0.89881   0.97828   0.27496   0.00000  Uiso   1.00
C583   C     0.81558   0.52353   0.24047   0.00000  Uiso   1.00
C584   C     0.81755   0.97506   0.24240   0.00000  Uiso   1.00
C585   C     0.79481   0.73007   0.04635   0.00000  Uiso   1.00
C586   C     0.84999   0.78646   0.45131   0.00000  Uiso   1.00
H587   H     0.76213   0.71486   0.02312   0.00000  Uiso   1.00
H588   H     0.86124   0.81685   0.47196   0.00000  Uiso   1.00
C589   C     0.79482   0.72838   0.09535   0.00000  Uiso   1.00
C590   C     0.85050   0.78663   0.40221   0.00000  Uiso   1.00
N591   N     0.83333   0.74999   0.12624   0.00000  Uiso   1.00
N592   N     0.83333   0.75001   0.37377   0.00000  Uiso   1.00
C593   C     0.87367   0.77173   0.10840   0.00000  Uiso   1.00
C594   C     0.81608   0.71253   0.39509   0.00000  Uiso   1.00
C595   C     0.87771   0.76975   0.05924   0.00000  Uiso   1.00
C596   C     0.81994   0.70992   0.44512   0.00000  Uiso   1.00
C597   C     0.83697   0.74898   0.02721   0.00000  Uiso   1.00
C598   C     0.83649   0.74794   0.47406   0.00000  Uiso   1.00
N599   N     0.99912   0.69037   0.21813   0.00000  Uiso   1.00
O600   O     0.95215   0.67970   0.19748   0.00000  Uiso   1.00
O601   O     0.70039   0.65891   0.22416   0.00000  Uiso   1.00
N602   N     0.67394   0.79791   0.29103   0.00000  Uiso   1.00
O603   O     0.69624   0.79594   0.33454   0.00000  Uiso   1.00
O604   O     0.66761   0.83667   0.27114   0.00000  Uiso   1.00
C605   C     0.75351   0.52757   0.30173   0.00000  Uiso   1.00
C606   C     0.69893   0.53322   0.29645   0.00000  Uiso   1.00
C607   C     0.67024   0.51893   0.33158   0.00000  Uiso   1.00
C608   C     0.69595   0.99931   0.37213   0.00000  Uiso   1.00
C609   C     0.75017   0.99338   0.37735   0.00000  Uiso   1.00
C610   C     0.77893   0.50775   0.34238   0.00000  Uiso   1.00
H611   H     0.67894   0.54950   0.26573   0.00000  Uiso   1.00
H612   H     0.96167   0.52400   0.32790   0.00000  Uiso   1.00
H613   H     0.67416   0.98943   0.40000   0.00000  Uiso   1.00
H614   H     0.77003   0.97874   0.40906   0.00000  Uiso   1.00
H615   H     0.82126   0.50533   0.34767   0.00000  Uiso   1.00
C616   C     0.72472   0.96435   0.19881   0.00000  Uiso   1.00
C617   C     0.67567   0.95008   0.21005   0.00000  Uiso   1.00
C618   C     0.96263   0.96351   0.18297   0.00000  Uiso   1.00
C619   C     0.96466   0.99149   0.14480   0.00000  Uiso   1.00
C620   C     0.67979   0.50565   0.13320   0.00000  Uiso   1.00
C621   C     0.72632   0.99207   0.15990   0.00000  Uiso   1.00
H622   H     0.67334   0.92833   0.23952   0.00000  Uiso   1.00
H623   H     0.92508   0.95173   0.19108   0.00000  Uiso   1.00
H624   H     0.92868   0.50174   0.12383   0.00000  Uiso   1.00
H625   H     0.68128   0.52657   0.10299   0.00000  Uiso   1.00
H626   H     0.76351   0.50222   0.14941   0.00000  Uiso   1.00
C627   C     0.75483   0.69880   0.11107   0.00000  Uiso   1.00
C628   C     0.70162   0.70977   0.10124   0.00000  Uiso   1.00
C629   C     0.99584   0.67748   0.10514   0.00000  Uiso   1.00
C630   C     0.67631   0.63412   0.11928   0.00000  Uiso   1.00
C631   C     0.72924   0.62306   0.12933   0.00000  Uiso   1.00
C632   C     0.76831   0.65498   0.12432   0.00000  Uiso   1.00
H633   H     0.69063   0.74275   0.08867   0.00000  Uiso   1.00
H634   H     0.95487   0.68599   0.09696   0.00000  Uiso   1.00
H635   H     0.97936   0.60920   0.12257   0.00000  Uiso   1.00
H636   H     0.74015   0.58957   0.14011   0.00000  Uiso   1.00
H637   H     0.80897   0.64502   0.12887   0.00000  Uiso   1.00
C638   C     0.87162   0.82764   0.38417   0.00000  Uiso   1.00
C639   C     0.92442   0.82971   0.37707   0.00000  Uiso   1.00
C640   C     0.94851   0.87116   0.37086   0.00000  Uiso   1.00
C641   C     0.92014   0.91059   0.37248   0.00000  Uiso   1.00
C642   C     0.86761   0.90863   0.37957   0.00000  Uiso   1.00
C643   C     0.84324   0.86737   0.38525   0.00000  Uiso   1.00
H644   H     0.94738   0.79955   0.37873   0.00000  Uiso   1.00
H645   H     0.98939   0.87294   0.36585   0.00000  Uiso   1.00
H646   H     0.93843   0.94263   0.36756   0.00000  Uiso   1.00
H647   H     0.84609   0.93910   0.38164   0.00000  Uiso   1.00
H648   H     0.80304   0.86648   0.39254   0.00000  Uiso   1.00
N649   N     0.91310   0.79588   0.13963   0.00000  Uiso   1.00
O650   O     0.90411   0.83669   0.15281   0.00000  Uiso   1.00
O651   O     0.96120   0.78204   0.14495   0.00000  Uiso   1.00
N652   N     0.79282   0.67551   0.36704   0.00000  Uiso   1.00
O653   O     0.74615   0.67952   0.34351   0.00000  Uiso   1.00
O654   O     0.81285   0.63583   0.37272   0.00000  Uiso   1.00
N655   N     0.92381   0.78768   0.04265   0.00000  Uiso   1.00
O656   O     0.94875   0.76360   0.01491   0.00000  Uiso   1.00
O657   O     0.94081   0.82821   0.05479   0.00000  Uiso   1.00
N658   N     0.80758   0.66835   0.46597   0.00000  Uiso   1.00
O659   O     0.84128   0.65085   0.49833   0.00000  Uiso   1.00
O660   O     0.76203   0.64862   0.45386   0.00000  Uiso   1.00
O661   O     0.16667   0.18454   0.78974   0.00000  Uiso   1.00
O662   O     0.16666   0.31547   0.71026   0.00000  Uiso   1.00
O663   O     0.16667   0.18453   0.71026   0.00000  Uiso   1.00
O664   O     0.16666   0.31547   0.78974   0.00000  Uiso   1.00
C665   C     0.16593   0.16394   0.74922   0.00000  Uiso   1.00
C666   C     0.16602   0.33586   0.75025   0.00000  Uiso   1.00
O667   O     0.09058   0.25000   0.78045   0.00000  Uiso   1.00
O668   O     0.24275   0.25000   0.71956   0.00000  Uiso   1.00
O669   O     0.09058   0.25000   0.70097   0.00000  Uiso   1.00
O670   O     0.24275   0.25001   0.79904   0.00000  Uiso   1.00
C671   C     0.06731   0.24812   0.73822   0.00000  Uiso   1.00
C672   C     0.26603   0.24984   0.76191   0.00000  Uiso   1.00
Zn673  Zn    0.16667   0.25001   0.80307   0.00000  Uiso   1.00
Zn674  Zn    0.16667   0.25000   0.69693   0.00000  Uiso   1.00
C675   C     0.01378   0.23546   0.73560   0.00000  Uiso   1.00
C676   C     0.32027   0.25766   0.76585   0.00000  Uiso   1.00
C677   C     0.11857   0.04837   0.76869   0.00000  Uiso   1.00
C678   C     0.10732   0.44708   0.72499   0.00000  Uiso   1.00
C679   C     0.12383   0.09476   0.77027   0.00000  Uiso   1.00
C680   C     0.11247   0.40085   0.72978   0.00000  Uiso   1.00
H681   H     0.10021   0.11425   0.79119   0.00000  Uiso   1.00
H682   H     0.08007   0.37827   0.71630   0.00000  Uiso   1.00
C683   C     0.16013   0.11594   0.74597   0.00000  Uiso   1.00
C684   C     0.16030   0.38334   0.74967   0.00000  Uiso   1.00
C685   C     0.18823   0.09147   0.71620   0.00000  Uiso   1.00
C686   C     0.20361   0.41091   0.76466   0.00000  Uiso   1.00
H687   H     0.21528   0.10797   0.69604   0.00000  Uiso   1.00
H688   H     0.24133   0.39683   0.77738   0.00000  Uiso   1.00
C689   C     0.18249   0.04528   0.71337   0.00000  Uiso   1.00
C690   C     0.19851   0.45683   0.76234   0.00000  Uiso   1.00
H691   H     0.20553   0.02625   0.69136   0.00000  Uiso   1.00
H692   H     0.23215   0.47828   0.77496   0.00000  Uiso   1.00
C693   C     0.14891   0.02353   0.74047   0.00000  Uiso   1.00
C694   C     0.15089   0.47506   0.74240   0.00000  Uiso   1.00
C695   C     0.12814   0.23007   0.54635   0.00000  Uiso   1.00
C696   C     0.18333   0.28646   0.95131   0.00000  Uiso   1.00
H697   H     0.09546   0.21486   0.52312   0.00000  Uiso   1.00
H698   H     0.19457   0.31685   0.97196   0.00000  Uiso   1.00
C699   C     0.12816   0.22838   0.59535   0.00000  Uiso   1.00
C700   C     0.18384   0.28663   0.90221   0.00000  Uiso   1.00
N701   N     0.16667   0.24999   0.62624   0.00000  Uiso   1.00
N702   N     0.16667   0.25001   0.87377   0.00000  Uiso   1.00
C703   C     0.20700   0.27173   0.60840   0.00000  Uiso   1.00
C704   C     0.14941   0.21253   0.89509   0.00000  Uiso   1.00
C705   C     0.21104   0.26975   0.55924   0.00000  Uiso   1.00
C706   C     0.15327   0.20992   0.94512   0.00000  Uiso   1.00
C707   C     0.17030   0.24898   0.52721   0.00000  Uiso   1.00
C708   C     0.16982   0.24794   0.97406   0.00000  Uiso   1.00
N709   N     0.33246   0.19037   0.71813   0.00000  Uiso   1.00
O710   O     0.28548   0.17970   0.69748   0.00000  Uiso   1.00
O711   O     0.03372   0.15891   0.72416   0.00000  Uiso   1.00
N712   N     0.00728   0.29791   0.79103   0.00000  Uiso   1.00
O713   O     0.02957   0.29594   0.83454   0.00000  Uiso   1.00
O714   O     0.00094   0.33667   0.77114   0.00000  Uiso   1.00
C715   C     0.08684   0.02757   0.80173   0.00000  Uiso   1.00
C716   C     0.03226   0.03322   0.79645   0.00000  Uiso   1.00
C717   C     0.00358   0.01893   0.83158   0.00000  Uiso   1.00
C718   C     0.02929   0.49931   0.87213   0.00000  Uiso   1.00
C719   C     0.08350   0.49338   0.87735   0.00000  Uiso   1.00
C720   C     0.11227   0.00775   0.84238   0.00000  Uiso   1.00
H721   H     0.01228   0.04950   0.76573   0.00000  Uiso   1.00
H722   H     0.29500   0.02400   0.82790   0.00000  Uiso   1.00
H723   H     0.00750   0.48943   0.90000   0.00000  Uiso   1.00
H724   H     0.10336   0.47874   0.90906   0.00000  Uiso   1.00
H725   H     0.15460   0.00533   0.84767   0.00000  Uiso   1.00
C726   C     0.05805   0.46435   0.69881   0.00000  Uiso   1.00
C727   C     0.00900   0.45008   0.71005   0.00000  Uiso   1.00
C728   C     0.29596   0.46351   0.68297   0.00000  Uiso   1.00
C729   C     0.29799   0.49149   0.64480   0.00000  Uiso   1.00
C730   C     0.01312   0.00565   0.63320   0.00000  Uiso   1.00
C731   C     0.05966   0.49207   0.65990   0.00000  Uiso   1.00
H732   H     0.00668   0.42833   0.73952   0.00000  Uiso   1.00
H733   H     0.25842   0.45173   0.69108   0.00000  Uiso   1.00
H734   H     0.26202   0.00174   0.62383   0.00000  Uiso   1.00
H735   H     0.01461   0.02657   0.60299   0.00000  Uiso   1.00
H736   H     0.09684   0.00222   0.64941   0.00000  Uiso   1.00
C737   C     0.08816   0.19880   0.61107   0.00000  Uiso   1.00
C738   C     0.03495   0.20977   0.60124   0.00000  Uiso   1.00
C739   C     0.32918   0.17748   0.60514   0.00000  Uiso   1.00
C740   C     0.00965   0.13412   0.61928   0.00000  Uiso   1.00
C741   C     0.06258   0.12306   0.62933   0.00000  Uiso   1.00
C742   C     0.10164   0.15498   0.62432   0.00000  Uiso   1.00
H743   H     0.02396   0.24275   0.58867   0.00000  Uiso   1.00
H744   H     0.28820   0.18599   0.59696   0.00000  Uiso   1.00
H745   H     0.31269   0.10920   0.62257   0.00000  Uiso   1.00
H746   H     0.07348   0.08957   0.64011   0.00000  Uiso   1.00
H747   H     0.14231   0.14502   0.62887   0.00000  Uiso   1.00
C748   C     0.20495   0.32764   0.88417   0.00000  Uiso   1.00
C749   C     0.25775   0.32971   0.87707   0.00000  Uiso   1.00
C750   C     0.28184   0.37116   0.87086   0.00000  Uiso   1.00
C751   C     0.25347   0.41059   0.87248   0.00000  Uiso   1.00
C752   C     0.20094   0.40863   0.87957   0.00000  Uiso   1.00
C753   C     0.17658   0.36737   0.88525   0.00000  Uiso   1.00
H754   H     0.28072   0.29955   0.87873   0.00000  Uiso   1.00
H755   H     0.32272   0.37294   0.86585   0.00000  Uiso   1.00
H756   H     0.27177   0.44263   0.86756   0.00000  Uiso   1.00
H757   H     0.17942   0.43910   0.88164   0.00000  Uiso   1.00
H758   H     0.13637   0.36648   0.89254   0.00000  Uiso   1.00
N759   N     0.24643   0.29588   0.63963   0.00000  Uiso   1.00
O760   O     0.23744   0.33669   0.65281   0.00000  Uiso   1.00
O761   O     0.29454   0.28204   0.64495   0.00000  Uiso   1.00
N762   N     0.12616   0.17551   0.86704   0.00000  Uiso   1.00
O763   O     0.07949   0.17952   0.84351   0.00000  Uiso   1.00
O764   O     0.14619   0.13583   0.87272   0.00000  Uiso   1.00
N765   N     0.25714   0.28768   0.54265   0.00000  Uiso   1.00
O766   O     0.28209   0.26360   0.51491   0.00000  Uiso   1.00
O767   O     0.27414   0.32821   0.55479   0.00000  Uiso   1.00
N768   N     0.14091   0.16835   0.96597   0.00000  Uiso   1.00
O769   O     0.17462   0.15085   0.99833   0.00000  Uiso   1.00
O770   O     0.09536   0.14862   0.95386   0.00000  Uiso   1.00
O771   O     0.50000   0.18454   0.78974   0.00000  Uiso   1.00
O772   O     0.50000   0.31547   0.71026   0.00000  Uiso   1.00
O773   O     0.50000   0.18453   0.71026   0.00000  Uiso   1.00
O774   O     0.50000   0.31547   0.78974   0.00000  Uiso   1.00
C775   C     0.49926   0.16394   0.74922   0.00000  Uiso   1.00
C776   C     0.49935   0.33586   0.75025   0.00000  Uiso   1.00
O777   O     0.42392   0.25000   0.78045   0.00000  Uiso   1.00
O778   O     0.57608   0.25000   0.71956   0.00000  Uiso   1.00
O779   O     0.42392   0.25000   0.70097   0.00000  Uiso   1.00
O780   O     0.57608   0.25001   0.79904   0.00000  Uiso   1.00
C781   C     0.40064   0.24812   0.73822   0.00000  Uiso   1.00
C782   C     0.59936   0.24984   0.76191   0.00000  Uiso   1.00
Zn783  Zn    0.50000   0.25001   0.80307   0.00000  Uiso   1.00
Zn784  Zn    0.50000   0.25000   0.69693   0.00000  Uiso   1.00
C785   C     0.34711   0.23546   0.73560   0.00000  Uiso   1.00
C786   C     0.65361   0.25766   0.76585   0.00000  Uiso   1.00
C787   C     0.45190   0.04837   0.76869   0.00000  Uiso   1.00
C788   C     0.44065   0.44708   0.72499   0.00000  Uiso   1.00
C789   C     0.45716   0.09476   0.77027   0.00000  Uiso   1.00
C790   C     0.44580   0.40085   0.72978   0.00000  Uiso   1.00
H791   H     0.43355   0.11425   0.79119   0.00000  Uiso   1.00
H792   H     0.41340   0.37827   0.71630   0.00000  Uiso   1.00
C793   C     0.49347   0.11594   0.74597   0.00000  Uiso   1.00
C794   C     0.49363   0.38334   0.74967   0.00000  Uiso   1.00
C795   C     0.52157   0.09147   0.71620   0.00000  Uiso   1.00
C796   C     0.53694   0.41091   0.76466   0.00000  Uiso   1.00
H797   H     0.54861   0.10797   0.69604   0.00000  Uiso   1.00
H798   H     0.57467   0.39683   0.77738   0.00000  Uiso   1.00
C799   C     0.51583   0.04528   0.71337   0.00000  Uiso   1.00
C800   C     0.53184   0.45683   0.76234   0.00000  Uiso   1.00
H801   H     0.53886   0.02625   0.69136   0.00000  Uiso   1.00
H802   H     0.56548   0.47828   0.77496   0.00000  Uiso   1.00
C803   C     0.48225   0.02353   0.74047   0.00000  Uiso   1.00
C804   C     0.48422   0.47506   0.74240   0.00000  Uiso   1.00
C805   C     0.46147   0.23007   0.54635   0.00000  Uiso   1.00
C806   C     0.51666   0.28646   0.95131   0.00000  Uiso   1.00
H807   H     0.42879   0.21486   0.52312   0.00000  Uiso   1.00
H808   H     0.52790   0.31685   0.97196   0.00000  Uiso   1.00
C809   C     0.46149   0.22838   0.59535   0.00000  Uiso   1.00
C810   C     0.51717   0.28663   0.90221   0.00000  Uiso   1.00
N811   N     0.50000   0.24999   0.62624   0.00000  Uiso   1.00
N812   N     0.50000   0.25001   0.87377   0.00000  Uiso   1.00
C813   C     0.54033   0.27173   0.60840   0.00000  Uiso   1.00
C814   C     0.48274   0.21253   0.89509   0.00000  Uiso   1.00
C815   C     0.54438   0.26975   0.55924   0.00000  Uiso   1.00
C816   C     0.48661   0.20992   0.94512   0.00000  Uiso   1.00
C817   C     0.50364   0.24898   0.52721   0.00000  Uiso   1.00
C818   C     0.50315   0.24794   0.97406   0.00000  Uiso   1.00
N819   N     0.66579   0.19037   0.71813   0.00000  Uiso   1.00
O820   O     0.61882   0.17970   0.69748   0.00000  Uiso   1.00
O821   O     0.36706   0.15891   0.72416   0.00000  Uiso   1.00
N822   N     0.34061   0.29791   0.79103   0.00000  Uiso   1.00
O823   O     0.36291   0.29594   0.83454   0.00000  Uiso   1.00
O824   O     0.33427   0.33667   0.77114   0.00000  Uiso   1.00
C825   C     0.42017   0.02757   0.80173   0.00000  Uiso   1.00
C826   C     0.36560   0.03322   0.79645   0.00000  Uiso   1.00
C827   C     0.33691   0.01893   0.83158   0.00000  Uiso   1.00
C828   C     0.36262   0.49931   0.87213   0.00000  Uiso   1.00
C829   C     0.41684   0.49338   0.87735   0.00000  Uiso   1.00
C830   C     0.44560   0.00775   0.84238   0.00000  Uiso   1.00
H831   H     0.34561   0.04950   0.76573   0.00000  Uiso   1.00
H832   H     0.62834   0.02400   0.82790   0.00000  Uiso   1.00
H833   H     0.34083   0.48943   0.90000   0.00000  Uiso   1.00
H834   H     0.43670   0.47874   0.90906   0.00000  Uiso   1.00
H835   H     0.48793   0.00533   0.84767   0.00000  Uiso   1.00
C836   C     0.39138   0.46435   0.69881   0.00000  Uiso   1.00
C837   C     0.34233   0.45008   0.71005   0.00000  Uiso   1.00
C838   C     0.62930   0.46351   0.68297   0.00000  Uiso   1.00
C839   C     0.63132   0.49149   0.64480   0.00000  Uiso   1.00
C840   C     0.34645   0.00565   0.63320   0.00000  Uiso   1.00
C841   C     0.39299   0.49207   0.65990   0.00000  Uiso   1.00
H842   H     0.34001   0.42833   0.73952   0.00000  Uiso   1.00
H843   H     0.59175   0.45173   0.69108   0.00000  Uiso   1.00
H844   H     0.59535   0.00174   0.62383   0.00000  Uiso   1.00
H845   H     0.34795   0.02657   0.60299   0.00000  Uiso   1.00
H846   H     0.43017   0.00222   0.64941   0.00000  Uiso   1.00
C847   C     0.42149   0.19880   0.61107   0.00000  Uiso   1.00
C848   C     0.36828   0.20977   0.60124   0.00000  Uiso   1.00
C849   C     0.66251   0.17748   0.60514   0.00000  Uiso   1.00
C850   C     0.34298   0.13412   0.61928   0.00000  Uiso   1.00
C851   C     0.39591   0.12306   0.62933   0.00000  Uiso   1.00
C852   C     0.43498   0.15498   0.62432   0.00000  Uiso   1.00
H853   H     0.35730   0.24275   0.58867   0.00000  Uiso   1.00
H854   H     0.62153   0.18599   0.59696   0.00000  Uiso   1.00
H855   H     0.64603   0.10920   0.62257   0.00000  Uiso   1.00
H856   H     0.40682   0.08957   0.64011   0.00000  Uiso   1.00
H857   H     0.47564   0.14502   0.62887   0.00000  Uiso   1.00
C858   C     0.53828   0.32764   0.88417   0.00000  Uiso   1.00
C859   C     0.59109   0.32971   0.87707   0.00000  Uiso   1.00
C860   C     0.61517   0.37116   0.87086   0.00000  Uiso   1.00
C861   C     0.58680   0.41059   0.87248   0.00000  Uiso   1.00
C862   C     0.53427   0.40863   0.87957   0.00000  Uiso   1.00
C863   C     0.50991   0.36737   0.88525   0.00000  Uiso   1.00
H864   H     0.61405   0.29955   0.87873   0.00000  Uiso   1.00
H865   H     0.65606   0.37294   0.86585   0.00000  Uiso   1.00
H866   H     0.60510   0.44263   0.86756   0.00000  Uiso   1.00
H867   H     0.51275   0.43910   0.88164   0.00000  Uiso   1.00
H868   H     0.46971   0.36648   0.89254   0.00000  Uiso   1.00
N869   N     0.57977   0.29588   0.63963   0.00000  Uiso   1.00
O870   O     0.57078   0.33669   0.65281   0.00000  Uiso   1.00
O871   O     0.62787   0.28204   0.64495   0.00000  Uiso   1.00
N872   N     0.45949   0.17551   0.86704   0.00000  Uiso   1.00
O873   O     0.41282   0.17952   0.84351   0.00000  Uiso   1.00
O874   O     0.47952   0.13583   0.87272   0.00000  Uiso   1.00
N875   N     0.59047   0.28768   0.54265   0.00000  Uiso   1.00
O876   O     0.61542   0.26360   0.51491   0.00000  Uiso   1.00
O877   O     0.60747   0.32821   0.55479   0.00000  Uiso   1.00
N878   N     0.47424   0.16835   0.96597   0.00000  Uiso   1.00
O879   O     0.50795   0.15085   0.99833   0.00000  Uiso   1.00
O880   O     0.42869   0.14862   0.95386   0.00000  Uiso   1.00
O881   O     0.83334   0.18454   0.78974   0.00000  Uiso   1.00
O882   O     0.83333   0.31547   0.71026   0.00000  Uiso   1.00
O883   O     0.83334   0.18453   0.71026   0.00000  Uiso   1.00
O884   O     0.83333   0.31547   0.78974   0.00000  Uiso   1.00
C885   C     0.83259   0.16394   0.74922   0.00000  Uiso   1.00
C886   C     0.83268   0.33586   0.75025   0.00000  Uiso   1.00
O887   O     0.75725   0.25000   0.78045   0.00000  Uiso   1.00
O888   O     0.90942   0.25000   0.71956   0.00000  Uiso   1.00
O889   O     0.75725   0.25000   0.70097   0.00000  Uiso   1.00
O890   O     0.90942   0.25001   0.79904   0.00000  Uiso   1.00
C891   C     0.73397   0.24812   0.73822   0.00000  Uiso   1.00
C892   C     0.93270   0.24984   0.76191   0.00000  Uiso   1.00
Zn893  Zn    0.83333   0.25001   0.80307   0.00000  Uiso   1.00
Zn894  Zn    0.83333   0.25000   0.69693   0.00000  Uiso   1.00
C895   C     0.68044   0.23546   0.73560   0.00000  Uiso   1.00
C896   C     0.98694   0.25766   0.76585   0.00000  Uiso   1.00
C897   C     0.78524   0.04837   0.76869   0.00000  Uiso   1.00
C898   C     0.77398   0.44708   0.72499   0.00000  Uiso   1.00
C899   C     0.79049   0.09476   0.77027   0.00000  Uiso   1.00
C900   C     0.77914   0.40085   0.72978   0.00000  Uiso   1.00
H901   H     0.76688   0.11425   0.79119   0.00000  Uiso   1.00
H902   H     0.74673   0.37827   0.71630   0.00000  Uiso   1.00
C903   C     0.82680   0.11594   0.74597   0.00000  Uiso   1.00
C904   C     0.82696   0.38334   0.74967   0.00000  Uiso   1.00
C905   C     0.85490   0.09147   0.71620   0.00000  Uiso   1.00
C906   C     0.87027   0.41091   0.76466   0.00000  Uiso   1.00
H907   H     0.88195   0.10797   0.69604   0.00000  Uiso   1.00
H908   H     0.90800   0.39683   0.77738   0.00000  Uiso   1.00
C909   C     0.84916   0.04528   0.71337   0.00000  Uiso   1.00
C910   C     0.86517   0.45683   0.76234   0.00000  Uiso   1.00
H911   H     0.87220   0.02625   0.69136   0.00000  Uiso   1.00
H912   H     0.89881   0.47828   0.77496   0.00000  Uiso   1.00
C913   C     0.81558   0.02353   0.74047   0.00000  Uiso   1.00
C914   C     0.81755   0.47506   0.74240   0.00000  Uiso   1.00
C915   C     0.79481   0.23007   0.54635   0.00000  Uiso   1.00
C916   C     0.84999   0.28646   0.95131   0.00000  Uiso   1.00
H917   H     0.76213   0.21486   0.52312   0.00000  Uiso   1.00
H918   H     0.86124   0.31685   0.97196   0.00000  Uiso   1.00
C919   C     0.79482   0.22838   0.59535   0.00000  Uiso   1.00
C920   C     0.85050   0.28663   0.90221   0.00000  Uiso   1.00
N921   N     0.83333   0.24999   0.62624   0.00000  Uiso   1.00
N922   N     0.83333   0.25001   0.87377   0.00000  Uiso   1.00
C923   C     0.87367   0.27173   0.60840   0.00000  Uiso   1.00
C924   C     0.81608   0.21253   0.89509   0.00000  Uiso   1.00
C925   C     0.87771   0.26975   0.55924   0.00000  Uiso   1.00
C926   C     0.81994   0.20992   0.94512   0.00000  Uiso   1.00
C927   C     0.83697   0.24898   0.52721   0.00000  Uiso   1.00
C928   C     0.83649   0.24794   0.97406   0.00000  Uiso   1.00
N929   N     0.99912   0.19037   0.71813   0.00000  Uiso   1.00
O930   O     0.95215   0.17970   0.69748   0.00000  Uiso   1.00
O931   O     0.70039   0.15891   0.72416   0.00000  Uiso   1.00
N932   N     0.67394   0.29791   0.79103   0.00000  Uiso   1.00
O933   O     0.69624   0.29594   0.83454   0.00000  Uiso   1.00
O934   O     0.66761   0.33667   0.77114   0.00000  Uiso   1.00
C935   C     0.75351   0.02757   0.80173   0.00000  Uiso   1.00
C936   C     0.69893   0.03322   0.79645   0.00000  Uiso   1.00
C937   C     0.67024   0.01893   0.83158   0.00000  Uiso   1.00
C938   C     0.69595   0.49931   0.87213   0.00000  Uiso   1.00
C939   C     0.75017   0.49338   0.87735   0.00000  Uiso   1.00
C940   C     0.77893   0.00775   0.84238   0.00000  Uiso   1.00
H941   H     0.67894   0.04950   0.76573   0.00000  Uiso   1.00
H942   H     0.96167   0.02400   0.82790   0.00000  Uiso   1.00
H943   H     0.67416   0.48943   0.90000   0.00000  Uiso   1.00
H944   H     0.77003   0.47874   0.90906   0.00000  Uiso   1.00
H945   H     0.82126   0.00533   0.84767   0.00000  Uiso   1.00
C946   C     0.72472   0.46435   0.69881   0.00000  Uiso   1.00
C947   C     0.67567   0.45008   0.71005   0.00000  Uiso   1.00
C948   C     0.96263   0.46351   0.68297   0.00000  Uiso   1.00
C949   C     0.96466   0.49149   0.64480   0.00000  Uiso   1.00
C950   C     0.67979   0.00565   0.63320   0.00000  Uiso   1.00
C951   C     0.72632   0.49207   0.65990   0.00000  Uiso   1.00
H952   H     0.67334   0.42833   0.73952   0.00000  Uiso   1.00
H953   H     0.92508   0.45173   0.69108   0.00000  Uiso   1.00
H954   H     0.92868   0.00174   0.62383   0.00000  Uiso   1.00
H955   H     0.68128   0.02657   0.60299   0.00000  Uiso   1.00
H956   H     0.76351   0.00222   0.64941   0.00000  Uiso   1.00
C957   C     0.75483   0.19880   0.61107   0.00000  Uiso   1.00
C958   C     0.70162   0.20977   0.60124   0.00000  Uiso   1.00
C959   C     0.99584   0.17748   0.60514   0.00000  Uiso   1.00
C960   C     0.67631   0.13412   0.61928   0.00000  Uiso   1.00
C961   C     0.72924   0.12306   0.62933   0.00000  Uiso   1.00
C962   C     0.76831   0.15498   0.62432   0.00000  Uiso   1.00
H963   H     0.69063   0.24275   0.58867   0.00000  Uiso   1.00
H964   H     0.95487   0.18599   0.59696   0.00000  Uiso   1.00
H965   H     0.97936   0.10920   0.62257   0.00000  Uiso   1.00
H966   H     0.74015   0.08957   0.64011   0.00000  Uiso   1.00
H967   H     0.80897   0.14502   0.62887   0.00000  Uiso   1.00
C968   C     0.87162   0.32764   0.88417   0.00000  Uiso   1.00
C969   C     0.92442   0.32971   0.87707   0.00000  Uiso   1.00
C970   C     0.94851   0.37116   0.87086   0.00000  Uiso   1.00
C971   C     0.92014   0.41059   0.87248   0.00000  Uiso   1.00
C972   C     0.86761   0.40863   0.87957   0.00000  Uiso   1.00
C973   C     0.84324   0.36737   0.88525   0.00000  Uiso   1.00
H974   H     0.94738   0.29955   0.87873   0.00000  Uiso   1.00
H975   H     0.98939   0.37294   0.86585   0.00000  Uiso   1.00
H976   H     0.93843   0.44263   0.86756   0.00000  Uiso   1.00
H977   H     0.84609   0.43910   0.88164   0.00000  Uiso   1.00
H978   H     0.80304   0.36648   0.89254   0.00000  Uiso   1.00
N979   N     0.91310   0.29588   0.63963   0.00000  Uiso   1.00
O980   O     0.90411   0.33669   0.65281   0.00000  Uiso   1.00
O981   O     0.96120   0.28204   0.64495   0.00000  Uiso   1.00
N982   N     0.79282   0.17551   0.86704   0.00000  Uiso   1.00
O983   O     0.74615   0.17952   0.84351   0.00000  Uiso   1.00
O984   O     0.81285   0.13583   0.87272   0.00000  Uiso   1.00
N985   N     0.92381   0.28768   0.54265   0.00000  Uiso   1.00
O986   O     0.94875   0.26360   0.51491   0.00000  Uiso   1.00
O987   O     0.94081   0.32821   0.55479   0.00000  Uiso   1.00
N988   N     0.80758   0.16835   0.96597   0.00000  Uiso   1.00
O989   O     0.84128   0.15085   0.99833   0.00000  Uiso   1.00
O990   O     0.76203   0.14862   0.95386   0.00000  Uiso   1.00
O991   O     0.16667   0.68454   0.78974   0.00000  Uiso   1.00
O992   O     0.16666   0.81547   0.71026   0.00000  Uiso   1.00
O993   O     0.16667   0.68453   0.71026   0.00000  Uiso   1.00
O994   O     0.16666   0.81547   0.78974   0.00000  Uiso   1.00
C995   C     0.16593   0.66394   0.74922   0.00000  Uiso   1.00
C996   C     0.16602   0.83586   0.75025   0.00000  Uiso   1.00
O997   O     0.09058   0.75000   0.78045   0.00000  Uiso   1.00
O998   O     0.24275   0.75000   0.71956   0.00000  Uiso   1.00
O999   O     0.09058   0.75000   0.70097   0.00000  Uiso   1.00
O1000  O     0.24275   0.75001   0.79904   0.00000  Uiso   1.00
C1001  C     0.06731   0.74812   0.73822   0.00000  Uiso   1.00
C1002  C     0.26603   0.74984   0.76191   0.00000  Uiso   1.00
Zn1003 Zn    0.16667   0.75001   0.80307   0.00000  Uiso   1.00
Zn1004 Zn    0.16667   0.75000   0.69693   0.00000  Uiso   1.00
C1005  C     0.01378   0.73546   0.73560   0.00000  Uiso   1.00
C1006  C     0.32027   0.75766   0.76585   0.00000  Uiso   1.00
C1007  C     0.11857   0.54837   0.76869   0.00000  Uiso   1.00
C1008  C     0.10732   0.94708   0.72499   0.00000  Uiso   1.00
C1009  C     0.12383   0.59476   0.77027   0.00000  Uiso   1.00
C1010  C     0.11247   0.90085   0.72978   0.00000  Uiso   1.00
H1011  H     0.10021   0.61425   0.79119   0.00000  Uiso   1.00
H1012  H     0.08007   0.87827   0.71630   0.00000  Uiso   1.00
C1013  C     0.16013   0.61594   0.74597   0.00000  Uiso   1.00
C1014  C     0.16030   0.88334   0.74967   0.00000  Uiso   1.00
C1015  C     0.18823   0.59147   0.71620   0.00000  Uiso   1.00
C1016  C     0.20361   0.91091   0.76466   0.00000  Uiso   1.00
H1017  H     0.21528   0.60797   0.69604   0.00000  Uiso   1.00
H1018  H     0.24133   0.89683   0.77738   0.00000  Uiso   1.00
C1019  C     0.18249   0.54528   0.71337   0.00000  Uiso   1.00
C1020  C     0.19851   0.95683   0.76234   0.00000  Uiso   1.00
H1021  H     0.20553   0.52625   0.69136   0.00000  Uiso   1.00
H1022  H     0.23215   0.97828   0.77496   0.00000  Uiso   1.00
C1023  C     0.14891   0.52353   0.74047   0.00000  Uiso   1.00
C1024  C     0.15089   0.97506   0.74240   0.00000  Uiso   1.00
C1025  C     0.12814   0.73007   0.54635   0.00000  Uiso   1.00
C1026  C     0.18333   0.78646   0.95131   0.00000  Uiso   1.00
H1027  H     0.09546   0.71486   0.52312   0.00000  Uiso   1.00
H1028  H     0.19457   0.81685   0.97196   0.00000  Uiso   1.00
C1029  C     0.12816   0.72838   0.59535   0.00000  Uiso   1.00
C1030  C     0.18384   0.78663   0.90221   0.00000  Uiso   1.00
N1031  N     0.16667   0.74999   0.62624   0.00000  Uiso   1.00
N1032  N     0.16667   0.75001   0.87377   0.00000  Uiso   1.00
C1033  C     0.20700   0.77173   0.60840   0.00000  Uiso   1.00
C1034  C     0.14941   0.71253   0.89509   0.00000  Uiso   1.00
C1035  C     0.21104   0.76975   0.55924   0.00000  Uiso   1.00
C1036  C     0.15327   0.70992   0.94512   0.00000  Uiso   1.00
C1037  C     0.17030   0.74898   0.52721   0.00000  Uiso   1.00
C1038  C     0.16982   0.74794   0.97406   0.00000  Uiso   1.00
N1039  N     0.33246   0.69037   0.71813   0.00000  Uiso   1.00
O1040  O     0.28548   0.67970   0.69748   0.00000  Uiso   1.00
O1041  O     0.03372   0.65891   0.72416   0.00000  Uiso   1.00
N1042  N     0.00728   0.79791   0.79103   0.00000  Uiso   1.00
O1043  O     0.02957   0.79594   0.83454   0.00000  Uiso   1.00
O1044  O     0.00094   0.83667   0.77114   0.00000  Uiso   1.00
C1045  C     0.08684   0.52757   0.80173   0.00000  Uiso   1.00
C1046  C     0.03226   0.53322   0.79645   0.00000  Uiso   1.00
C1047  C     0.00358   0.51893   0.83158   0.00000  Uiso   1.00
C1048  C     0.02929   0.99931   0.87213   0.00000  Uiso   1.00
C1049  C     0.08350   0.99338   0.87735   0.00000  Uiso   1.00
C1050  C     0.11227   0.50775   0.84238   0.00000  Uiso   1.00
H1051  H     0.01228   0.54950   0.76573   0.00000  Uiso   1.00
H1052  H     0.29500   0.52400   0.82790   0.00000  Uiso   1.00
H1053  H     0.00750   0.98943   0.90000   0.00000  Uiso   1.00
H1054  H     0.10336   0.97874   0.90906   0.00000  Uiso   1.00
H1055  H     0.15460   0.50533   0.84767   0.00000  Uiso   1.00
C1056  C     0.05805   0.96435   0.69881   0.00000  Uiso   1.00
C1057  C     0.00900   0.95008   0.71005   0.00000  Uiso   1.00
C1058  C     0.29596   0.96351   0.68297   0.00000  Uiso   1.00
C1059  C     0.29799   0.99149   0.64480   0.00000  Uiso   1.00
C1060  C     0.01312   0.50565   0.63320   0.00000  Uiso   1.00
C1061  C     0.05966   0.99207   0.65990   0.00000  Uiso   1.00
H1062  H     0.00668   0.92833   0.73952   0.00000  Uiso   1.00
H1063  H     0.25842   0.95173   0.69108   0.00000  Uiso   1.00
H1064  H     0.26202   0.50174   0.62383   0.00000  Uiso   1.00
H1065  H     0.01461   0.52657   0.60299   0.00000  Uiso   1.00
H1066  H     0.09684   0.50222   0.64941   0.00000  Uiso   1.00
C1067  C     0.08816   0.69880   0.61107   0.00000  Uiso   1.00
C1068  C     0.03495   0.70977   0.60124   0.00000  Uiso   1.00
C1069  C     0.32918   0.67748   0.60514   0.00000  Uiso   1.00
C1070  C     0.00965   0.63412   0.61928   0.00000  Uiso   1.00
C1071  C     0.06258   0.62306   0.62933   0.00000  Uiso   1.00
C1072  C     0.10164   0.65498   0.62432   0.00000  Uiso   1.00
H1073  H     0.02396   0.74275   0.58867   0.00000  Uiso   1.00
H1074  H     0.28820   0.68599   0.59696   0.00000  Uiso   1.00
H1075  H     0.31269   0.60920   0.62257   0.00000  Uiso   1.00
H1076  H     0.07348   0.58957   0.64011   0.00000  Uiso   1.00
H1077  H     0.14231   0.64502   0.62887   0.00000  Uiso   1.00
C1078  C     0.20495   0.82764   0.88417   0.00000  Uiso   1.00
C1079  C     0.25775   0.82971   0.87707   0.00000  Uiso   1.00
C1080  C     0.28184   0.87116   0.87086   0.00000  Uiso   1.00
C1081  C     0.25347   0.91059   0.87248   0.00000  Uiso   1.00
C1082  C     0.20094   0.90863   0.87957   0.00000  Uiso   1.00
C1083  C     0.17658   0.86737   0.88525   0.00000  Uiso   1.00
H1084  H     0.28072   0.79955   0.87873   0.00000  Uiso   1.00
H1085  H     0.32272   0.87294   0.86585   0.00000  Uiso   1.00
H1086  H     0.27177   0.94263   0.86756   0.00000  Uiso   1.00
H1087  H     0.17942   0.93910   0.88164   0.00000  Uiso   1.00
H1088  H     0.13637   0.86648   0.89254   0.00000  Uiso   1.00
N1089  N     0.24643   0.79588   0.63963   0.00000  Uiso   1.00
O1090  O     0.23744   0.83669   0.65281   0.00000  Uiso   1.00
O1091  O     0.29454   0.78204   0.64495   0.00000  Uiso   1.00
N1092  N     0.12616   0.67551   0.86704   0.00000  Uiso   1.00
O1093  O     0.07949   0.67952   0.84351   0.00000  Uiso   1.00
O1094  O     0.14619   0.63583   0.87272   0.00000  Uiso   1.00
N1095  N     0.25714   0.78768   0.54265   0.00000  Uiso   1.00
O1096  O     0.28209   0.76360   0.51491   0.00000  Uiso   1.00
O1097  O     0.27414   0.82821   0.55479   0.00000  Uiso   1.00
N1098  N     0.14091   0.66835   0.96597   0.00000  Uiso   1.00
O1099  O     0.17462   0.65085   0.99833   0.00000  Uiso   1.00
O1100  O     0.09536   0.64862   0.95386   0.00000  Uiso   1.00
O1101  O     0.50000   0.68454   0.78974   0.00000  Uiso   1.00
O1102  O     0.50000   0.81547   0.71026   0.00000  Uiso   1.00
O1103  O     0.50000   0.68453   0.71026   0.00000  Uiso   1.00
O1104  O     0.50000   0.81547   0.78974   0.00000  Uiso   1.00
C1105  C     0.49926   0.66394   0.74922   0.00000  Uiso   1.00
C1106  C     0.49935   0.83586   0.75025   0.00000  Uiso   1.00
O1107  O     0.42392   0.75000   0.78045   0.00000  Uiso   1.00
O1108  O     0.57608   0.75000   0.71956   0.00000  Uiso   1.00
O1109  O     0.42392   0.75000   0.70097   0.00000  Uiso   1.00
O1110  O     0.57608   0.75001   0.79904   0.00000  Uiso   1.00
C1111  C     0.40064   0.74812   0.73822   0.00000  Uiso   1.00
C1112  C     0.59936   0.74984   0.76191   0.00000  Uiso   1.00
Zn1113 Zn    0.50000   0.75001   0.80307   0.00000  Uiso   1.00
Zn1114 Zn    0.50000   0.75000   0.69693   0.00000  Uiso   1.00
C1115  C     0.34711   0.73546   0.73560   0.00000  Uiso   1.00
C1116  C     0.65361   0.75766   0.76585   0.00000  Uiso   1.00
C1117  C     0.45190   0.54837   0.76869   0.00000  Uiso   1.00
C1118  C     0.44065   0.94708   0.72499   0.00000  Uiso   1.00
C1119  C     0.45716   0.59476   0.77027   0.00000  Uiso   1.00
C1120  C     0.44580   0.90085   0.72978   0.00000  Uiso   1.00
H1121  H     0.43355   0.61425   0.79119   0.00000  Uiso   1.00
H1122  H     0.41340   0.87827   0.71630   0.00000  Uiso   1.00
C1123  C     0.49347   0.61594   0.74597   0.00000  Uiso   1.00
C1124  C     0.49363   0.88334   0.74967   0.00000  Uiso   1.00
C1125  C     0.52157   0.59147   0.71620   0.00000  Uiso   1.00
C1126  C     0.53694   0.91091   0.76466   0.00000  Uiso   1.00
H1127  H     0.54861   0.60797   0.69604   0.00000  Uiso   1.00
H1128  H     0.57467   0.89683   0.77738   0.00000  Uiso   1.00
C1129  C     0.51583   0.54528   0.71337   0.00000  Uiso   1.00
C1130  C     0.53184   0.95683   0.76234   0.00000  Uiso   1.00
H1131  H     0.53886   0.52625   0.69136   0.00000  Uiso   1.00
H1132  H     0.56548   0.97828   0.77496   0.00000  Uiso   1.00
C1133  C     0.48225   0.52353   0.74047   0.00000  Uiso   1.00
C1134  C     0.48422   0.97506   0.74240   0.00000  Uiso   1.00
C1135  C     0.46147   0.73007   0.54635   0.00000  Uiso   1.00
C1136  C     0.51666   0.78646   0.95131   0.00000  Uiso   1.00
H1137  H     0.42879   0.71486   0.52312   0.00000  Uiso   1.00
H1138  H     0.52790   0.81685   0.97196   0.00000  Uiso   1.00
C1139  C     0.46149   0.72838   0.59535   0.00000  Uiso   1.00
C1140  C     0.51717   0.78663   0.90221   0.00000  Uiso   1.00
N1141  N     0.50000   0.74999   0.62624   0.00000  Uiso   1.00
N1142  N     0.50000   0.75001   0.87377   0.00000  Uiso   1.00
C1143  C     0.54033   0.77173   0.60840   0.00000  Uiso   1.00
C1144  C     0.48274   0.71253   0.89509   0.00000  Uiso   1.00
C1145  C     0.54438   0.76975   0.55924   0.00000  Uiso   1.00
C1146  C     0.48661   0.70992   0.94512   0.00000  Uiso   1.00
C1147  C     0.50364   0.74898   0.52721   0.00000  Uiso   1.00
C1148  C     0.50315   0.74794   0.97406   0.00000  Uiso   1.00
N1149  N     0.66579   0.69037   0.71813   0.00000  Uiso   1.00
O1150  O     0.61882   0.67970   0.69748   0.00000  Uiso   1.00
O1151  O     0.36706   0.65891   0.72416   0.00000  Uiso   1.00
N1152  N     0.34061   0.79791   0.79103   0.00000  Uiso   1.00
O1153  O     0.36291   0.79594   0.83454   0.00000  Uiso   1.00
O1154  O     0.33427   0.83667   0.77114   0.00000  Uiso   1.00
C1155  C     0.42017   0.52757   0.80173   0.00000  Uiso   1.00
C1156  C     0.36560   0.53322   0.79645   0.00000  Uiso   1.00
C1157  C     0.33691   0.51893   0.83158   0.00000  Uiso   1.00
C1158  C     0.36262   0.99931   0.87213   0.00000  Uiso   1.00
C1159  C     0.41684   0.99338   0.87735   0.00000  Uiso   1.00
C1160  C     0.44560   0.50775   0.84238   0.00000  Uiso   1.00
H1161  H     0.34561   0.54950   0.76573   0.00000  Uiso   1.00
H1162  H     0.62834   0.52400   0.82790   0.00000  Uiso   1.00
H1163  H     0.34083   0.98943   0.90000   0.00000  Uiso   1.00
H1164  H     0.43670   0.97874   0.90906   0.00000  Uiso   1.00
H1165  H     0.48793   0.50533   0.84767   0.00000  Uiso   1.00
C1166  C     0.39138   0.96435   0.69881   0.00000  Uiso   1.00
C1167  C     0.34233   0.95008   0.71005   0.00000  Uiso   1.00
C1168  C     0.62930   0.96351   0.68297   0.00000  Uiso   1.00
C1169  C     0.63132   0.99149   0.64480   0.00000  Uiso   1.00
C1170  C     0.34645   0.50565   0.63320   0.00000  Uiso   1.00
C1171  C     0.39299   0.99207   0.65990   0.00000  Uiso   1.00
H1172  H     0.34001   0.92833   0.73952   0.00000  Uiso   1.00
H1173  H     0.59175   0.95173   0.69108   0.00000  Uiso   1.00
H1174  H     0.59535   0.50174   0.62383   0.00000  Uiso   1.00
H1175  H     0.34795   0.52657   0.60299   0.00000  Uiso   1.00
H1176  H     0.43017   0.50222   0.64941   0.00000  Uiso   1.00
C1177  C     0.42149   0.69880   0.61107   0.00000  Uiso   1.00
C1178  C     0.36828   0.70977   0.60124   0.00000  Uiso   1.00
C1179  C     0.66251   0.67748   0.60514   0.00000  Uiso   1.00
C1180  C     0.34298   0.63412   0.61928   0.00000  Uiso   1.00
C1181  C     0.39591   0.62306   0.62933   0.00000  Uiso   1.00
C1182  C     0.43498   0.65498   0.62432   0.00000  Uiso   1.00
H1183  H     0.35730   0.74275   0.58867   0.00000  Uiso   1.00
H1184  H     0.62153   0.68599   0.59696   0.00000  Uiso   1.00
H1185  H     0.64603   0.60920   0.62257   0.00000  Uiso   1.00
H1186  H     0.40682   0.58957   0.64011   0.00000  Uiso   1.00
H1187  H     0.47564   0.64502   0.62887   0.00000  Uiso   1.00
C1188  C     0.53828   0.82764   0.88417   0.00000  Uiso   1.00
C1189  C     0.59109   0.82971   0.87707   0.00000  Uiso   1.00
C1190  C     0.61517   0.87116   0.87086   0.00000  Uiso   1.00
C1191  C     0.58680   0.91059   0.87248   0.00000  Uiso   1.00
C1192  C     0.53427   0.90863   0.87957   0.00000  Uiso   1.00
C1193  C     0.50991   0.86737   0.88525   0.00000  Uiso   1.00
H1194  H     0.61405   0.79955   0.87873   0.00000  Uiso   1.00
H1195  H     0.65606   0.87294   0.86585   0.00000  Uiso   1.00
H1196  H     0.60510   0.94263   0.86756   0.00000  Uiso   1.00
H1197  H     0.51275   0.93910   0.88164   0.00000  Uiso   1.00
H1198  H     0.46971   0.86648   0.89254   0.00000  Uiso   1.00
N1199  N     0.57977   0.79588   0.63963   0.00000  Uiso   1.00
O1200  O     0.57078   0.83669   0.65281   0.00000  Uiso   1.00
O1201  O     0.62787   0.78204   0.64495   0.00000  Uiso   1.00
N1202  N     0.45949   0.67551   0.86704   0.00000  Uiso   1.00
O1203  O     0.41282   0.67952   0.84351   0.00000  Uiso   1.00
O1204  O     0.47952   0.63583   0.87272   0.00000  Uiso   1.00
N1205  N     0.59047   0.78768   0.54265   0.00000  Uiso   1.00
O1206  O     0.61542   0.76360   0.51491   0.00000  Uiso   1.00
O1207  O     0.60747   0.82821   0.55479   0.00000  Uiso   1.00
N1208  N     0.47424   0.66835   0.96597   0.00000  Uiso   1.00
O1209  O     0.50795   0.65085   0.99833   0.00000  Uiso   1.00
O1210  O     0.42869   0.64862   0.95386   0.00000  Uiso   1.00
O1211  O     0.83334   0.68454   0.78974   0.00000  Uiso   1.00
O1212  O     0.83333   0.81547   0.71026   0.00000  Uiso   1.00
O1213  O     0.83334   0.68453   0.71026   0.00000  Uiso   1.00
O1214  O     0.83333   0.81547   0.78974   0.00000  Uiso   1.00
C1215  C     0.83259   0.66394   0.74922   0.00000  Uiso   1.00
C1216  C     0.83268   0.83586   0.75025   0.00000  Uiso   1.00
O1217  O     0.75725   0.75000   0.78045   0.00000  Uiso   1.00
O1218  O     0.90942   0.75000   0.71956   0.00000  Uiso   1.00
O1219  O     0.75725   0.75000   0.70097   0.00000  Uiso   1.00
O1220  O     0.90942   0.75001   0.79904   0.00000  Uiso   1.00
C1221  C     0.73397   0.74812   0.73822   0.00000  Uiso   1.00
C1222  C     0.93270   0.74984   0.76191   0.00000  Uiso   1.00
Zn1223 Zn    0.83333   0.75001   0.80307   0.00000  Uiso   1.00
Zn1224 Zn    0.83333   0.75000   0.69693   0.00000  Uiso   1.00
C1225  C     0.68044   0.73546   0.73560   0.00000  Uiso   1.00
C1226  C     0.98694   0.75766   0.76585   0.00000  Uiso   1.00
C1227  C     0.78524   0.54837   0.76869   0.00000  Uiso   1.00
C1228  C     0.77398   0.94708   0.72499   0.00000  Uiso   1.00
C1229  C     0.79049   0.59476   0.77027   0.00000  Uiso   1.00
C1230  C     0.77914   0.90085   0.72978   0.00000  Uiso   1.00
H1231  H     0.76688   0.61425   0.79119   0.00000  Uiso   1.00
H1232  H     0.74673   0.87827   0.71630   0.00000  Uiso   1.00
C1233  C     0.82680   0.61594   0.74597   0.00000  Uiso   1.00
C1234  C     0.82696   0.88334   0.74967   0.00000  Uiso   1.00
C1235  C     0.85490   0.59147   0.71620   0.00000  Uiso   1.00
C1236  C     0.87027   0.91091   0.76466   0.00000  Uiso   1.00
H1237  H     0.88195   0.60797   0.69604   0.00000  Uiso   1.00
H1238  H     0.90800   0.89683   0.77738   0.00000  Uiso   1.00
C1239  C     0.84916   0.54528   0.71337   0.00000  Uiso   1.00
C1240  C     0.86517   0.95683   0.76234   0.00000  Uiso   1.00
H1241  H     0.87220   0.52625   0.69136   0.00000  Uiso   1.00
H1242  H     0.89881   0.97828   0.77496   0.00000  Uiso   1.00
C1243  C     0.81558   0.52353   0.74047   0.00000  Uiso   1.00
C1244  C     0.81755   0.97506   0.74240   0.00000  Uiso   1.00
C1245  C     0.79481   0.73007   0.54635   0.00000  Uiso   1.00
C1246  C     0.84999   0.78646   0.95131   0.00000  Uiso   1.00
H1247  H     0.76213   0.71486   0.52312   0.00000  Uiso   1.00
H1248  H     0.86124   0.81685   0.97196   0.00000  Uiso   1.00
C1249  C     0.79482   0.72838   0.59535   0.00000  Uiso   1.00
C1250  C     0.85050   0.78663   0.90221   0.00000  Uiso   1.00
N1251  N     0.83333   0.74999   0.62624   0.00000  Uiso   1.00
N1252  N     0.83333   0.75001   0.87377   0.00000  Uiso   1.00
C1253  C     0.87367   0.77173   0.60840   0.00000  Uiso   1.00
C1254  C     0.81608   0.71253   0.89509   0.00000  Uiso   1.00
C1255  C     0.87771   0.76975   0.55924   0.00000  Uiso   1.00
C1256  C     0.81994   0.70992   0.94512   0.00000  Uiso   1.00
C1257  C     0.83697   0.74898   0.52721   0.00000  Uiso   1.00
C1258  C     0.83649   0.74794   0.97406   0.00000  Uiso   1.00
N1259  N     0.99912   0.69037   0.71813   0.00000  Uiso   1.00
O1260  O     0.95215   0.67970   0.69748   0.00000  Uiso   1.00
O1261  O     0.70039   0.65891   0.72416   0.00000  Uiso   1.00
N1262  N     0.67394   0.79791   0.79103   0.00000  Uiso   1.00
O1263  O     0.69624   0.79594   0.83454   0.00000  Uiso   1.00
O1264  O     0.66761   0.83667   0.77114   0.00000  Uiso   1.00
C1265  C     0.75351   0.52757   0.80173   0.00000  Uiso   1.00
C1266  C     0.69893   0.53322   0.79645   0.00000  Uiso   1.00
C1267  C     0.67024   0.51893   0.83158   0.00000  Uiso   1.00
C1268  C     0.69595   0.99931   0.87213   0.00000  Uiso   1.00
C1269  C     0.75017   0.99338   0.87735   0.00000  Uiso   1.00
C1270  C     0.77893   0.50775   0.84238   0.00000  Uiso   1.00
H1271  H     0.67894   0.54950   0.76573   0.00000  Uiso   1.00
H1272  H     0.96167   0.52400   0.82790   0.00000  Uiso   1.00
H1273  H     0.67416   0.98943   0.90000   0.00000  Uiso   1.00
H1274  H     0.77003   0.97874   0.90906   0.00000  Uiso   1.00
H1275  H     0.82126   0.50533   0.84767   0.00000  Uiso   1.00
C1276  C     0.72472   0.96435   0.69881   0.00000  Uiso   1.00
C1277  C     0.67567   0.95008   0.71005   0.00000  Uiso   1.00
C1278  C     0.96263   0.96351   0.68297   0.00000  Uiso   1.00
C1279  C     0.96466   0.99149   0.64480   0.00000  Uiso   1.00
C1280  C     0.67979   0.50565   0.63320   0.00000  Uiso   1.00
C1281  C     0.72632   0.99207   0.65990   0.00000  Uiso   1.00
H1282  H     0.67334   0.92833   0.73952   0.00000  Uiso   1.00
H1283  H     0.92508   0.95173   0.69108   0.00000  Uiso   1.00
H1284  H     0.92868   0.50174   0.62383   0.00000  Uiso   1.00
H1285  H     0.68128   0.52657   0.60299   0.00000  Uiso   1.00
H1286  H     0.76351   0.50222   0.64941   0.00000  Uiso   1.00
C1287  C     0.75483   0.69880   0.61107   0.00000  Uiso   1.00
C1288  C     0.70162   0.70977   0.60124   0.00000  Uiso   1.00
C1289  C     0.99584   0.67748   0.60514   0.00000  Uiso   1.00
C1290  C     0.67631   0.63412   0.61928   0.00000  Uiso   1.00
C1291  C     0.72924   0.62306   0.62933   0.00000  Uiso   1.00
C1292  C     0.76831   0.65498   0.62432   0.00000  Uiso   1.00
H1293  H     0.69063   0.74275   0.58867   0.00000  Uiso   1.00
H1294  H     0.95487   0.68599   0.59696   0.00000  Uiso   1.00
H1295  H     0.97936   0.60920   0.62257   0.00000  Uiso   1.00
H1296  H     0.74015   0.58957   0.64011   0.00000  Uiso   1.00
H1297  H     0.80897   0.64502   0.62887   0.00000  Uiso   1.00
C1298  C     0.87162   0.82764   0.88417   0.00000  Uiso   1.00
C1299  C     0.92442   0.82971   0.87707   0.00000  Uiso   1.00
C1300  C     0.94851   0.87116   0.87086   0.00000  Uiso   1.00
C1301  C     0.92014   0.91059   0.87248   0.00000  Uiso   1.00
C1302  C     0.86761   0.90863   0.87957   0.00000  Uiso   1.00
C1303  C     0.84324   0.86737   0.88525   0.00000  Uiso   1.00
H1304  H     0.94738   0.79955   0.87873   0.00000  Uiso   1.00
H1305  H     0.98939   0.87294   0.86585   0.00000  Uiso   1.00
H1306  H     0.93843   0.94263   0.86756   0.00000  Uiso   1.00
H1307  H     0.84609   0.93910   0.88164   0.00000  Uiso   1.00
H1308  H     0.80304   0.86648   0.89254   0.00000  Uiso   1.00
N1309  N     0.91310   0.79588   0.63963   0.00000  Uiso   1.00
O1310  O     0.90411   0.83669   0.65281   0.00000  Uiso   1.00
O1311  O     0.96120   0.78204   0.64495   0.00000  Uiso   1.00
N1312  N     0.79282   0.67551   0.86704   0.00000  Uiso   1.00
O1313  O     0.74615   0.67952   0.84351   0.00000  Uiso   1.00
O1314  O     0.81285   0.63583   0.87272   0.00000  Uiso   1.00
N1315  N     0.92381   0.78768   0.54265   0.00000  Uiso   1.00
O1316  O     0.94875   0.76360   0.51491   0.00000  Uiso   1.00
O1317  O     0.94081   0.82821   0.55479   0.00000  Uiso   1.00
N1318  N     0.80758   0.66835   0.96597   0.00000  Uiso   1.00
O1319  O     0.84128   0.65085   0.99833   0.00000  Uiso   1.00
O1320  O     0.76203   0.64862   0.95386   0.00000  Uiso   1.00
loop_
_geom_bond_atom_site_label_1
_geom_bond_atom_site_label_2
_geom_bond_distance
_geom_bond_site_symmetry_2
_ccdc_geom_bond_type
O1     C5      1.300   .     A
O1     Zn13    1.980   .     S
O2     C6      1.289   .     A
O2     Zn14    1.980   .     S
O3     Zn14    1.995   .     S
O3     C5      1.288   .     A
O4     Zn13    1.995   .     S
O4     C6      1.294   .     A
C5     C23     1.435   .     S
C6     C24     1.425   .     S
O7     C11     1.273   .     A
O7     Zn13    1.973   .     S
O8     C12     1.276   .     A
O8     Zn14    1.973   .     S
O9     Zn14    1.977   .     S
O9     C11     1.297   .     A
O10    C12     1.292   .     A
O10    Zn13    1.977   .     S
C11    C15     1.413   .     S
C12    C16     1.399   .     S
Zn13   N42     2.027   .     S
Zn14   N41     2.027   .     S
C15    C236    1.351   1_455 S
C15    N269    1.449   1_455 S
C16    C125    1.351   .     S
C16    N162    1.439   .     S
C17    C33     1.408   .     A
C17    C55     1.474   .     S
C17    C19     1.386   .     A
C18    C34     1.412   .     A
C18    C20     1.394   .     A
C18    C66     1.485   .     S
C19    C23     1.392   .     A
C19    H21     1.079   .     S
C20    C24     1.396   .     A
C20    H22     1.085   .     S
C23    C25     1.395   .     A
C24    C26     1.386   .     A
C25    C29     1.381   .     A
C25    H27     1.083   .     S
C26    C30     1.379   .     A
C26    H28     1.082   .     S
C29    C33     1.400   .     A
C29    H31     1.083   .     S
C30    C34     1.400   .     A
C30    H32     1.083   .     S
C33    C364    1.448   1_545 S
C34    C363    1.448   .     S
C35    C47     1.398   .     A
C35    H37     1.083   .     S
C35    C39     1.407   .     A
C36    C40     1.410   .     A
C36    H38     1.084   .     S
C36    C48     1.395   .     A
C39    N41     1.374   .     A
C39    C77     1.468   .     S
C40    N42     1.377   .     A
C40    C88     1.462   .     S
N41    C43     1.378   .     A
N42    C44     1.381   .     A
C43    C45     1.428   .     A
C43    N99     1.429   .     S
C44    N102    1.424   .     S
C44    C46     1.427   .     A
C45    N105    1.437   .     S
C45    C47     1.417   .     A
C46    N108    1.437   .     S
C46    C48     1.414   .     A
C47    C708    1.522   1_554 S
C48    C707    1.522   .     S
N49    O50     1.300   .     A
N49    C125    1.449   .     S
N49    O161    1.301   .     S
O51    N269    1.301   1_455 S
N52    O54     1.301   .     A
N52    O53     1.301   .     A
N52    C236    1.439   1_455 S
C55    C56     1.404   .     A
C55    C60     1.401   .     A
C56    C57     1.399   .     A
C56    H61     1.084   .     S
C57    C388    1.399   1_545 S
C57    H282    1.082   1_455 S
C58    C59     1.396   .     A
C58    H63     1.081   .     S
C58    C387    1.399   .     S
C59    H64     1.082   .     S
C59    C390    1.397   .     S
C60    H65     1.082   .     S
C60    C389    1.397   1_545 S
H62    C167    1.082   .     S
C66    C67     1.407   .     A
C66    C71     1.406   .     A
C67    H72     1.083   .     S
C67    C288    1.398   1_455 S
C68    C69     1.396   .     A
C68    H73     1.079   .     S
C68    C177    1.398   .     S
C69    C510    1.396   .     S
C69    H404    1.082   .     S
C70    H75     1.082   .     S
C70    C619    1.396   1_445 S
C70    C401    1.398   1_545 S
C71    C400    1.398   .     S
C71    H406    1.082   .     S
H74    C399    1.082   1_545 S
H76    C401    1.082   1_545 S
C77    C78     1.404   .     A
C77    C82     1.403   .     A
C78    H83     1.082   .     S
C78    C299    1.398   1_455 S
C79    H84     1.083   .     S
C79    C188    1.398   .     S
C79    C190    1.398   .     S
C80    C81     1.398   .     A
C80    C299    1.398   1_455 S
C80    H305    1.082   1_455 S
C81    C82     1.396   .     A
C81    H86     1.081   .     S
C82    H87     1.083   .     S
H85    C190    1.082   .     S
C88    C93     1.403   .     A
C88    C89     1.402   .     A
C89    H94     1.082   .     S
C89    C90     1.399   .     A
C90    H95     1.082   .     S
C90    C91     1.397   .     A
C91    H96     1.078   .     S
C91    C92     1.395   .     A
C92    H97     1.076   .     S
C92    C93     1.394   .     A
C93    H98     1.084   .     S
N99    O101    1.300   .     A
N99    O100    1.300   .     A
N102   O103    1.300   .     A
N102   O104    1.302   .     A
N105   O107    1.301   .     A
N105   O106    1.301   .     A
N108   O109    1.301   .     A
N108   O110    1.301   .     A
O111   C115    1.300   .     A
O111   Zn123   1.980   .     S
O112   C116    1.289   .     A
O112   Zn124   1.980   .     S
O113   Zn124   1.995   .     S
O113   C115    1.288   .     A
O114   Zn123   1.995   .     S
O114   C116    1.294   .     A
C115   C133    1.435   .     S
C116   C134    1.425   .     S
O117   C121    1.273   .     A
O117   Zn123   1.973   .     S
O118   C122    1.276   .     A
O118   Zn124   1.973   .     S
O119   Zn124   1.977   .     S
O119   C121    1.297   .     A
O120   C122    1.292   .     A
O120   Zn123   1.977   .     S
C121   C125    1.413   .     S
C122   C126    1.399   .     S
Zn123  N152    2.027   .     S
Zn124  N151    2.027   .     S
C126   C235    1.351   .     S
C126   N272    1.439   .     S
C127   C143    1.408   .     A
C127   C165    1.474   .     S
C127   C129    1.386   .     A
C128   C144    1.412   .     A
C128   C130    1.394   .     A
C128   C176    1.485   .     S
C129   C133    1.392   .     A
C129   H131    1.079   .     S
C130   C134    1.396   .     A
C130   H132    1.085   .     S
C133   C135    1.395   .     A
C134   C136    1.386   .     A
C135   C139    1.381   .     A
C135   H137    1.083   .     S
C136   C140    1.379   .     A
C136   H138    1.082   .     S
C139   C143    1.400   .     A
C139   H141    1.083   .     S
C140   C144    1.400   .     A
C140   H142    1.083   .     S
C143   C474    1.448   1_545 S
C144   C473    1.448   .     S
C145   C157    1.398   .     A
C145   H147    1.083   .     S
C145   C149    1.407   .     A
C146   C150    1.410   .     A
C146   H148    1.084   .     S
C146   C158    1.395   .     A
C149   N151    1.374   .     A
C149   C187    1.468   .     S
C150   N152    1.377   .     A
C150   C198    1.462   .     S
N151   C153    1.378   .     A
N152   C154    1.381   .     A
C153   C155    1.428   .     A
C153   N209    1.429   .     S
C154   N212    1.424   .     S
C154   C156    1.427   .     A
C155   N215    1.437   .     S
C155   C157    1.417   .     A
C156   N218    1.437   .     S
C156   C158    1.414   .     A
C157   C818    1.522   1_554 S
C158   C817    1.522   .     S
N159   O160    1.300   .     A
N159   C235    1.449   .     S
N159   O271    1.301   .     S
N162   O164    1.301   .     A
N162   O163    1.301   .     A
C165   C166    1.404   .     A
C165   C170    1.401   .     A
C166   C167    1.399   .     A
C166   H171    1.084   .     S
C167   C498    1.399   1_545 S
C168   C169    1.396   .     A
C168   H173    1.081   .     S
C168   C497    1.399   .     S
C169   H174    1.082   .     S
C169   C500    1.397   .     S
C170   H175    1.082   .     S
C170   C499    1.397   1_545 S
H172   C277    1.082   .     S
C176   C177    1.407   .     A
C176   C181    1.406   .     A
C177   H182    1.083   .     S
C178   C179    1.396   .     A
C178   H183    1.079   .     S
C178   C287    1.398   .     S
C179   C620    1.396   .     S
C179   H514    1.082   .     S
C180   H185    1.082   .     S
C180   C399    1.396   1_545 S
C180   C511    1.398   1_545 S
C181   C510    1.398   .     S
C181   H516    1.082   .     S
H184   C509    1.082   1_545 S
H186   C511    1.082   1_545 S
C187   C188    1.404   .     A
C187   C192    1.403   .     A
C188   H193    1.082   .     S
C189   H194    1.083   .     S
C189   C298    1.398   .     S
C189   C300    1.398   .     S
C190   C191    1.398   .     A
C191   C192    1.396   .     A
C191   H196    1.081   .     S
C192   H197    1.083   .     S
H195   C300    1.082   .     S
C198   C203    1.403   .     A
C198   C199    1.402   .     A
C199   H204    1.082   .     S
C199   C200    1.399   .     A
C200   H205    1.082   .     S
C200   C201    1.397   .     A
C201   H206    1.078   .     S
C201   C202    1.395   .     A
C202   H207    1.076   .     S
C202   C203    1.394   .     A
C203   H208    1.084   .     S
N209   O211    1.300   .     A
N209   O210    1.300   .     A
N212   O213    1.300   .     A
N212   O214    1.302   .     A
N215   O217    1.301   .     A
N215   O216    1.301   .     A
N218   O219    1.301   .     A
N218   O220    1.301   .     A
O221   C225    1.300   .     A
O221   Zn233   1.980   .     S
O222   C226    1.289   .     A
O222   Zn234   1.980   .     S
O223   Zn234   1.995   .     S
O223   C225    1.288   .     A
O224   Zn233   1.995   .     S
O224   C226    1.294   .     A
C225   C243    1.435   .     S
C226   C244    1.425   .     S
O227   C231    1.273   .     A
O227   Zn233   1.973   .     S
O228   C232    1.276   .     A
O228   Zn234   1.973   .     S
O229   Zn234   1.977   .     S
O229   C231    1.297   .     A
O230   C232    1.292   .     A
O230   Zn233   1.977   .     S
C231   C235    1.413   .     S
C232   C236    1.399   .     S
Zn233  N262    2.027   .     S
Zn234  N261    2.027   .     S
C236   C15     1.351   1_655 S
C236   N52     1.439   1_655 S
C237   C253    1.408   .     A
C237   C275    1.474   .     S
C237   C239    1.386   .     A
C238   C254    1.412   .     A
C238   C240    1.394   .     A
C238   C286    1.485   .     S
C239   C243    1.392   .     A
C239   H241    1.079   .     S
C240   C244    1.396   .     A
C240   H242    1.085   .     S
C243   C245    1.395   .     A
C244   C246    1.386   .     A
C245   C249    1.381   .     A
C245   H247    1.083   .     S
C246   C250    1.379   .     A
C246   H248    1.082   .     S
C249   C253    1.400   .     A
C249   H251    1.083   .     S
C250   C254    1.400   .     A
C250   H252    1.083   .     S
C253   C584    1.448   1_545 S
C254   C583    1.448   .     S
C255   C267    1.398   .     A
C255   H257    1.083   .     S
C255   C259    1.407   .     A
C256   C260    1.410   .     A
C256   H258    1.084   .     S
C256   C268    1.395   .     A
C259   N261    1.374   .     A
C259   C297    1.468   .     S
C260   N262    1.377   .     A
C260   C308    1.462   .     S
N261   C263    1.378   .     A
N262   C264    1.381   .     A
C263   C265    1.428   .     A
C263   N319    1.429   .     S
C264   N322    1.424   .     S
C264   C266    1.427   .     A
C265   N325    1.437   .     S
C265   C267    1.417   .     A
C266   N328    1.437   .     S
C266   C268    1.414   .     A
C267   C928    1.522   1_554 S
C268   C927    1.522   .     S
N269   O270    1.300   .     A
N269   C15     1.449   1_655 S
N269   O51     1.301   1_655 S
N272   O274    1.301   .     A
N272   O273    1.301   .     A
C275   C276    1.404   .     A
C275   C280    1.401   .     A
C276   C277    1.399   .     A
C276   H281    1.084   .     S
C277   C608    1.399   1_545 S
C278   C279    1.396   .     A
C278   H283    1.081   .     S
C278   C607    1.399   .     S
C279   H284    1.082   .     S
C279   C610    1.397   .     S
C280   H285    1.082   .     S
C280   C609    1.397   1_545 S
H282   C57     1.082   1_655 S
C286   C287    1.407   .     A
C286   C291    1.406   .     A
C287   H292    1.083   .     S
C288   C289    1.396   .     A
C288   H293    1.079   .     S
C288   C67     1.398   1_655 S
C289   C400    1.396   1_655 S
C289   H624    1.082   .     S
C290   H295    1.082   .     S
C290   C509    1.396   1_545 S
C290   C621    1.398   1_545 S
C291   C620    1.398   .     S
C291   H626    1.082   .     S
H294   C619    1.082   1_545 S
H296   C621    1.082   1_545 S
C297   C298    1.404   .     A
C297   C302    1.403   .     A
C298   H303    1.082   .     S
C299   H304    1.083   .     S
C299   C78     1.398   1_655 S
C299   C80     1.398   1_655 S
C300   C301    1.398   .     A
C301   C302    1.396   .     A
C301   H306    1.081   .     S
C302   H307    1.083   .     S
H305   C80     1.082   1_655 S
C308   C313    1.403   .     A
C308   C309    1.402   .     A
C309   H314    1.082   .     S
C309   C310    1.399   .     A
C310   H315    1.082   .     S
C310   C311    1.397   .     A
C311   H316    1.078   .     S
C311   C312    1.395   .     A
C312   H317    1.076   .     S
C312   C313    1.394   .     A
C313   H318    1.084   .     S
N319   O321    1.300   .     A
N319   O320    1.300   .     A
N322   O323    1.300   .     A
N322   O324    1.302   .     A
N325   O327    1.301   .     A
N325   O326    1.301   .     A
N328   O329    1.301   .     A
N328   O330    1.301   .     A
O331   C335    1.300   .     A
O331   Zn343   1.980   .     S
O332   C336    1.289   .     A
O332   Zn344   1.980   .     S
O333   Zn344   1.995   .     S
O333   C335    1.288   .     A
O334   Zn343   1.995   .     S
O334   C336    1.294   .     A
C335   C353    1.435   .     S
C336   C354    1.425   .     S
O337   C341    1.273   .     A
O337   Zn343   1.973   .     S
O338   C342    1.276   .     A
O338   Zn344   1.973   .     S
O339   Zn344   1.977   .     S
O339   C341    1.297   .     A
O340   C342    1.292   .     A
O340   Zn343   1.977   .     S
C341   C345    1.413   .     S
C342   C346    1.399   .     S
Zn343  N372    2.027   .     S
Zn344  N371    2.027   .     S
C345   C566    1.351   1_455 S
C345   N599    1.449   1_455 S
C346   C455    1.351   .     S
C346   N492    1.439   .     S
C347   C363    1.408   .     A
C347   C385    1.474   .     S
C347   C349    1.386   .     A
C348   C364    1.412   .     A
C348   C350    1.394   .     A
C348   C396    1.485   .     S
C349   C353    1.392   .     A
C349   H351    1.079   .     S
C350   C354    1.396   .     A
C350   H352    1.085   .     S
C353   C355    1.395   .     A
C354   C356    1.386   .     A
C355   C359    1.381   .     A
C355   H357    1.083   .     S
C356   C360    1.379   .     A
C356   H358    1.082   .     S
C359   C363    1.400   .     A
C359   H361    1.083   .     S
C360   C364    1.400   .     A
C360   H362    1.083   .     S
C364   C33     1.448   1_565 S
C365   C377    1.398   .     A
C365   H367    1.083   .     S
C365   C369    1.407   .     A
C366   C370    1.410   .     A
C366   H368    1.084   .     S
C366   C378    1.395   .     A
C369   N371    1.374   .     A
C369   C407    1.468   .     S
C370   N372    1.377   .     A
C370   C418    1.462   .     S
N371   C373    1.378   .     A
N372   C374    1.381   .     A
C373   C375    1.428   .     A
C373   N429    1.429   .     S
C374   N432    1.424   .     S
C374   C376    1.427   .     A
C375   N435    1.437   .     S
C375   C377    1.417   .     A
C376   N438    1.437   .     S
C376   C378    1.414   .     A
C377   C1038   1.522   1_554 S
C378   C1037   1.522   .     S
N379   O380    1.300   .     A
N379   C455    1.449   .     S
N379   O491    1.301   .     S
O381   N599    1.301   1_455 S
N382   O384    1.301   .     A
N382   O383    1.301   .     A
N382   C566    1.439   1_455 S
C385   C386    1.404   .     A
C385   C390    1.401   .     A
C386   C387    1.399   .     A
C386   H391    1.084   .     S
C387   H612    1.082   1_455 S
C388   C389    1.396   .     A
C388   H393    1.081   .     S
C388   C57     1.399   1_565 S
C389   H394    1.082   .     S
C389   C60     1.397   1_565 S
C390   H395    1.082   .     S
H392   C497    1.082   .     S
C396   C397    1.407   .     A
C396   C401    1.406   .     A
C397   H402    1.083   .     S
C397   C618    1.398   1_455 S
C398   C399    1.396   .     A
C398   H403    1.079   .     S
C398   C507    1.398   .     S
C399   C180    1.396   1_565 S
C399   H74     1.082   1_565 S
C400   H405    1.082   .     S
C400   C289    1.396   1_455 S
C401   C70     1.398   1_565 S
C401   H76     1.082   1_565 S
C407   C408    1.404   .     A
C407   C412    1.403   .     A
C408   H413    1.082   .     S
C408   C629    1.398   1_455 S
C409   H414    1.083   .     S
C409   C518    1.398   .     S
C409   C520    1.398   .     S
C410   C411    1.398   .     A
C410   C629    1.398   1_455 S
C410   H635    1.082   1_455 S
C411   C412    1.396   .     A
C411   H416    1.081   .     S
C412   H417    1.083   .     S
H415   C520    1.082   .     S
C418   C423    1.403   .     A
C418   C419    1.402   .     A
C419   H424    1.082   .     S
C419   C420    1.399   .     A
C420   H425    1.082   .     S
C420   C421    1.397   .     A
C421   H426    1.078   .     S
C421   C422    1.395   .     A
C422   H427    1.076   .     S
C422   C423    1.394   .     A
C423   H428    1.084   .     S
N429   O431    1.300   .     A
N429   O430    1.300   .     A
N432   O433    1.300   .     A
N432   O434    1.302   .     A
N435   O437    1.301   .     A
N435   O436    1.301   .     A
N438   O439    1.301   .     A
N438   O440    1.301   .     A
O441   C445    1.300   .     A
O441   Zn453   1.980   .     S
O442   C446    1.289   .     A
O442   Zn454   1.980   .     S
O443   Zn454   1.995   .     S
O443   C445    1.288   .     A
O444   Zn453   1.995   .     S
O444   C446    1.294   .     A
C445   C463    1.435   .     S
C446   C464    1.425   .     S
O447   C451    1.273   .     A
O447   Zn453   1.973   .     S
O448   C452    1.276   .     A
O448   Zn454   1.973   .     S
O449   Zn454   1.977   .     S
O449   C451    1.297   .     A
O450   C452    1.292   .     A
O450   Zn453   1.977   .     S
C451   C455    1.413   .     S
C452   C456    1.399   .     S
Zn453  N482    2.027   .     S
Zn454  N481    2.027   .     S
C456   C565    1.351   .     S
C456   N602    1.439   .     S
C457   C473    1.408   .     A
C457   C495    1.474   .     S
C457   C459    1.386   .     A
C458   C474    1.412   .     A
C458   C460    1.394   .     A
C458   C506    1.485   .     S
C459   C463    1.392   .     A
C459   H461    1.079   .     S
C460   C464    1.396   .     A
C460   H462    1.085   .     S
C463   C465    1.395   .     A
C464   C466    1.386   .     A
C465   C469    1.381   .     A
C465   H467    1.083   .     S
C466   C470    1.379   .     A
C466   H468    1.082   .     S
C469   C473    1.400   .     A
C469   H471    1.083   .     S
C470   C474    1.400   .     A
C470   H472    1.083   .     S
C474   C143    1.448   1_565 S
C475   C487    1.398   .     A
C475   H477    1.083   .     S
C475   C479    1.407   .     A
C476   C480    1.410   .     A
C476   H478    1.084   .     S
C476   C488    1.395   .     A
C479   N481    1.374   .     A
C479   C517    1.468   .     S
C480   N482    1.377   .     A
C480   C528    1.462   .     S
N481   C483    1.378   .     A
N482   C484    1.381   .     A
C483   C485    1.428   .     A
C483   N539    1.429   .     S
C484   N542    1.424   .     S
C484   C486    1.427   .     A
C485   N545    1.437   .     S
C485   C487    1.417   .     A
C486   N548    1.437   .     S
C486   C488    1.414   .     A
C487   C1148   1.522   1_554 S
C488   C1147   1.522   .     S
N489   O490    1.300   .     A
N489   C565    1.449   .     S
N489   O601    1.301   .     S
N492   O494    1.301   .     A
N492   O493    1.301   .     A
C495   C496    1.404   .     A
C495   C500    1.401   .     A
C496   C497    1.399   .     A
C496   H501    1.084   .     S
C498   C499    1.396   .     A
C498   H503    1.081   .     S
C498   C167    1.399   1_565 S
C499   H504    1.082   .     S
C499   C170    1.397   1_565 S
C500   H505    1.082   .     S
H502   C607    1.082   .     S
C506   C507    1.407   .     A
C506   C511    1.406   .     A
C507   H512    1.083   .     S
C508   C509    1.396   .     A
C508   H513    1.079   .     S
C508   C617    1.398   .     S
C509   C290    1.396   1_565 S
C509   H184    1.082   1_565 S
C510   H515    1.082   .     S
C511   C180    1.398   1_565 S
C511   H186    1.082   1_565 S
C517   C518    1.404   .     A
C517   C522    1.403   .     A
C518   H523    1.082   .     S
C519   H524    1.083   .     S
C519   C628    1.398   .     S
C519   C630    1.398   .     S
C520   C521    1.398   .     A
C521   C522    1.396   .     A
C521   H526    1.081   .     S
C522   H527    1.083   .     S
H525   C630    1.082   .     S
C528   C533    1.403   .     A
C528   C529    1.402   .     A
C529   H534    1.082   .     S
C529   C530    1.399   .     A
C530   H535    1.082   .     S
C530   C531    1.397   .     A
C531   H536    1.078   .     S
C531   C532    1.395   .     A
C532   H537    1.076   .     S
C532   C533    1.394   .     A
C533   H538    1.084   .     S
N539   O541    1.300   .     A
N539   O540    1.300   .     A
N542   O543    1.300   .     A
N542   O544    1.302   .     A
N545   O547    1.301   .     A
N545   O546    1.301   .     A
N548   O549    1.301   .     A
N548   O550    1.301   .     A
O551   C555    1.300   .     A
O551   Zn563   1.980   .     S
O552   C556    1.289   .     A
O552   Zn564   1.980   .     S
O553   Zn564   1.995   .     S
O553   C555    1.288   .     A
O554   Zn563   1.995   .     S
O554   C556    1.294   .     A
C555   C573    1.435   .     S
C556   C574    1.425   .     S
O557   C561    1.273   .     A
O557   Zn563   1.973   .     S
O558   C562    1.276   .     A
O558   Zn564   1.973   .     S
O559   Zn564   1.977   .     S
O559   C561    1.297   .     A
O560   C562    1.292   .     A
O560   Zn563   1.977   .     S
C561   C565    1.413   .     S
C562   C566    1.399   .     S
Zn563  N592    2.027   .     S
Zn564  N591    2.027   .     S
C566   C345    1.351   1_655 S
C566   N382    1.439   1_655 S
C567   C583    1.408   .     A
C567   C605    1.474   .     S
C567   C569    1.386   .     A
C568   C584    1.412   .     A
C568   C570    1.394   .     A
C568   C616    1.485   .     S
C569   C573    1.392   .     A
C569   H571    1.079   .     S
C570   C574    1.396   .     A
C570   H572    1.085   .     S
C573   C575    1.395   .     A
C574   C576    1.386   .     A
C575   C579    1.381   .     A
C575   H577    1.083   .     S
C576   C580    1.379   .     A
C576   H578    1.082   .     S
C579   C583    1.400   .     A
C579   H581    1.083   .     S
C580   C584    1.400   .     A
C580   H582    1.083   .     S
C584   C253    1.448   1_565 S
C585   C597    1.398   .     A
C585   H587    1.083   .     S
C585   C589    1.407   .     A
C586   C590    1.410   .     A
C586   H588    1.084   .     S
C586   C598    1.395   .     A
C589   N591    1.374   .     A
C589   C627    1.468   .     S
C590   N592    1.377   .     A
C590   C638    1.462   .     S
N591   C593    1.378   .     A
N592   C594    1.381   .     A
C593   C595    1.428   .     A
C593   N649    1.429   .     S
C594   N652    1.424   .     S
C594   C596    1.427   .     A
C595   N655    1.437   .     S
C595   C597    1.417   .     A
C596   N658    1.437   .     S
C596   C598    1.414   .     A
C597   C1258   1.522   1_554 S
C598   C1257   1.522   .     S
N599   O600    1.300   .     A
N599   C345    1.449   1_655 S
N599   O381    1.301   1_655 S
N602   O604    1.301   .     A
N602   O603    1.301   .     A
C605   C606    1.404   .     A
C605   C610    1.401   .     A
C606   C607    1.399   .     A
C606   H611    1.084   .     S
C608   C609    1.396   .     A
C608   H613    1.081   .     S
C608   C277    1.399   1_565 S
C609   H614    1.082   .     S
C609   C280    1.397   1_565 S
C610   H615    1.082   .     S
H612   C387    1.082   1_655 S
C616   C617    1.407   .     A
C616   C621    1.406   .     A
C617   H622    1.083   .     S
C618   C619    1.396   .     A
C618   H623    1.079   .     S
C618   C397    1.398   1_655 S
C619   C70     1.396   1_665 S
C619   H294    1.082   1_565 S
C620   H625    1.082   .     S
C621   C290    1.398   1_565 S
C621   H296    1.082   1_565 S
C627   C628    1.404   .     A
C627   C632    1.403   .     A
C628   H633    1.082   .     S
C629   H634    1.083   .     S
C629   C408    1.398   1_655 S
C629   C410    1.398   1_655 S
C630   C631    1.398   .     A
C631   C632    1.396   .     A
C631   H636    1.081   .     S
C632   H637    1.083   .     S
H635   C410    1.082   1_655 S
C638   C643    1.403   .     A
C638   C639    1.402   .     A
C639   H644    1.082   .     S
C639   C640    1.399   .     A
C640   H645    1.082   .     S
C640   C641    1.397   .     A
C641   H646    1.078   .     S
C641   C642    1.395   .     A
C642   H647    1.076   .     S
C642   C643    1.394   .     A
C643   H648    1.084   .     S
N649   O651    1.300   .     A
N649   O650    1.300   .     A
N652   O653    1.300   .     A
N652   O654    1.302   .     A
N655   O657    1.301   .     A
N655   O656    1.301   .     A
N658   O659    1.301   .     A
N658   O660    1.301   .     A
O661   C665    1.300   .     A
O661   Zn673   1.980   .     S
O662   C666    1.289   .     A
O662   Zn674   1.980   .     S
O663   Zn674   1.995   .     S
O663   C665    1.288   .     A
O664   Zn673   1.995   .     S
O664   C666    1.294   .     A
C665   C683    1.435   .     S
C666   C684    1.425   .     S
O667   C671    1.273   .     A
O667   Zn673   1.973   .     S
O668   C672    1.276   .     A
O668   Zn674   1.973   .     S
O669   Zn674   1.977   .     S
O669   C671    1.297   .     A
O670   C672    1.292   .     A
O670   Zn673   1.977   .     S
C671   C675    1.413   .     S
C672   C676    1.399   .     S
Zn673  N702    2.027   .     S
Zn674  N701    2.027   .     S
C675   C896    1.351   1_455 S
C675   N929    1.449   1_455 S
C676   C785    1.351   .     S
C676   N822    1.439   .     S
C677   C693    1.408   .     A
C677   C715    1.474   .     S
C677   C679    1.386   .     A
C678   C694    1.412   .     A
C678   C680    1.394   .     A
C678   C726    1.485   .     S
C679   C683    1.392   .     A
C679   H681    1.079   .     S
C680   C684    1.396   .     A
C680   H682    1.085   .     S
C683   C685    1.395   .     A
C684   C686    1.386   .     A
C685   C689    1.381   .     A
C685   H687    1.083   .     S
C686   C690    1.379   .     A
C686   H688    1.082   .     S
C689   C693    1.400   .     A
C689   H691    1.083   .     S
C690   C694    1.400   .     A
C690   H692    1.083   .     S
C693   C1024   1.448   1_545 S
C694   C1023   1.448   .     S
C695   C707    1.398   .     A
C695   H697    1.083   .     S
C695   C699    1.407   .     A
C696   C700    1.410   .     A
C696   H698    1.084   .     S
C696   C708    1.395   .     A
C699   N701    1.374   .     A
C699   C737    1.468   .     S
C700   N702    1.377   .     A
C700   C748    1.462   .     S
N701   C703    1.378   .     A
N702   C704    1.381   .     A
C703   C705    1.428   .     A
C703   N759    1.429   .     S
C704   N762    1.424   .     S
C704   C706    1.427   .     A
C705   N765    1.437   .     S
C705   C707    1.417   .     A
C706   N768    1.437   .     S
C706   C708    1.414   .     A
C708   C47     1.522   1_556 S
N709   O710    1.300   .     A
N709   C785    1.449   .     S
N709   O821    1.301   .     S
O711   N929    1.301   1_455 S
N712   O714    1.301   .     A
N712   O713    1.301   .     A
N712   C896    1.439   1_455 S
C715   C716    1.404   .     A
C715   C720    1.401   .     A
C716   C717    1.399   .     A
C716   H721    1.084   .     S
C717   C1048   1.399   1_545 S
C717   H942    1.082   1_455 S
C718   C719    1.396   .     A
C718   H723    1.081   .     S
C718   C1047   1.399   .     S
C719   H724    1.082   .     S
C719   C1050   1.397   .     S
C720   H725    1.082   .     S
C720   C1049   1.397   1_545 S
H722   C827    1.082   .     S
C726   C727    1.407   .     A
C726   C731    1.406   .     A
C727   H732    1.083   .     S
C727   C948    1.398   1_455 S
C728   C729    1.396   .     A
C728   H733    1.079   .     S
C728   C837    1.398   .     S
C729   C1170   1.396   .     S
C729   H1064   1.082   .     S
C730   H735    1.082   .     S
C730   C1279   1.396   1_445 S
C730   C1061   1.398   1_545 S
C731   C1060   1.398   .     S
C731   H1066   1.082   .     S
H734   C1059   1.082   1_545 S
H736   C1061   1.082   1_545 S
C737   C738    1.404   .     A
C737   C742    1.403   .     A
C738   H743    1.082   .     S
C738   C959    1.398   1_455 S
C739   H744    1.083   .     S
C739   C848    1.398   .     S
C739   C850    1.398   .     S
C740   C741    1.398   .     A
C740   C959    1.398   1_455 S
C740   H965    1.082   1_455 S
C741   C742    1.396   .     A
C741   H746    1.081   .     S
C742   H747    1.083   .     S
H745   C850    1.082   .     S
C748   C753    1.403   .     A
C748   C749    1.402   .     A
C749   H754    1.082   .     S
C749   C750    1.399   .     A
C750   H755    1.082   .     S
C750   C751    1.397   .     A
C751   H756    1.078   .     S
C751   C752    1.395   .     A
C752   H757    1.076   .     S
C752   C753    1.394   .     A
C753   H758    1.084   .     S
N759   O761    1.300   .     A
N759   O760    1.300   .     A
N762   O763    1.300   .     A
N762   O764    1.302   .     A
N765   O767    1.301   .     A
N765   O766    1.301   .     A
N768   O769    1.301   .     A
N768   O770    1.301   .     A
O771   C775    1.300   .     A
O771   Zn783   1.980   .     S
O772   C776    1.289   .     A
O772   Zn784   1.980   .     S
O773   Zn784   1.995   .     S
O773   C775    1.288   .     A
O774   Zn783   1.995   .     S
O774   C776    1.294   .     A
C775   C793    1.435   .     S
C776   C794    1.425   .     S
O777   C781    1.273   .     A
O777   Zn783   1.973   .     S
O778   C782    1.276   .     A
O778   Zn784   1.973   .     S
O779   Zn784   1.977   .     S
O779   C781    1.297   .     A
O780   C782    1.292   .     A
O780   Zn783   1.977   .     S
C781   C785    1.413   .     S
C782   C786    1.399   .     S
Zn783  N812    2.027   .     S
Zn784  N811    2.027   .     S
C786   C895    1.351   .     S
C786   N932    1.439   .     S
C787   C803    1.408   .     A
C787   C825    1.474   .     S
C787   C789    1.386   .     A
C788   C804    1.412   .     A
C788   C790    1.394   .     A
C788   C836    1.485   .     S
C789   C793    1.392   .     A
C789   H791    1.079   .     S
C790   C794    1.396   .     A
C790   H792    1.085   .     S
C793   C795    1.395   .     A
C794   C796    1.386   .     A
C795   C799    1.381   .     A
C795   H797    1.083   .     S
C796   C800    1.379   .     A
C796   H798    1.082   .     S
C799   C803    1.400   .     A
C799   H801    1.083   .     S
C800   C804    1.400   .     A
C800   H802    1.083   .     S
C803   C1134   1.448   1_545 S
C804   C1133   1.448   .     S
C805   C817    1.398   .     A
C805   H807    1.083   .     S
C805   C809    1.407   .     A
C806   C810    1.410   .     A
C806   H808    1.084   .     S
C806   C818    1.395   .     A
C809   N811    1.374   .     A
C809   C847    1.468   .     S
C810   N812    1.377   .     A
C810   C858    1.462   .     S
N811   C813    1.378   .     A
N812   C814    1.381   .     A
C813   C815    1.428   .     A
C813   N869    1.429   .     S
C814   N872    1.424   .     S
C814   C816    1.427   .     A
C815   N875    1.437   .     S
C815   C817    1.417   .     A
C816   N878    1.437   .     S
C816   C818    1.414   .     A
C818   C157    1.522   1_556 S
N819   O820    1.300   .     A
N819   C895    1.449   .     S
N819   O931    1.301   .     S
N822   O824    1.301   .     A
N822   O823    1.301   .     A
C825   C826    1.404   .     A
C825   C830    1.401   .     A
C826   C827    1.399   .     A
C826   H831    1.084   .     S
C827   C1158   1.399   1_545 S
C828   C829    1.396   .     A
C828   H833    1.081   .     S
C828   C1157   1.399   .     S
C829   H834    1.082   .     S
C829   C1160   1.397   .     S
C830   H835    1.082   .     S
C830   C1159   1.397   1_545 S
H832   C937    1.082   .     S
C836   C837    1.407   .     A
C836   C841    1.406   .     A
C837   H842    1.083   .     S
C838   C839    1.396   .     A
C838   H843    1.079   .     S
C838   C947    1.398   .     S
C839   C1280   1.396   .     S
C839   H1174   1.082   .     S
C840   H845    1.082   .     S
C840   C1059   1.396   1_545 S
C840   C1171   1.398   1_545 S
C841   C1170   1.398   .     S
C841   H1176   1.082   .     S
H844   C1169   1.082   1_545 S
H846   C1171   1.082   1_545 S
C847   C848    1.404   .     A
C847   C852    1.403   .     A
C848   H853    1.082   .     S
C849   H854    1.083   .     S
C849   C958    1.398   .     S
C849   C960    1.398   .     S
C850   C851    1.398   .     A
C851   C852    1.396   .     A
C851   H856    1.081   .     S
C852   H857    1.083   .     S
H855   C960    1.082   .     S
C858   C863    1.403   .     A
C858   C859    1.402   .     A
C859   H864    1.082   .     S
C859   C860    1.399   .     A
C860   H865    1.082   .     S
C860   C861    1.397   .     A
C861   H866    1.078   .     S
C861   C862    1.395   .     A
C862   H867    1.076   .     S
C862   C863    1.394   .     A
C863   H868    1.084   .     S
N869   O871    1.300   .     A
N869   O870    1.300   .     A
N872   O873    1.300   .     A
N872   O874    1.302   .     A
N875   O877    1.301   .     A
N875   O876    1.301   .     A
N878   O879    1.301   .     A
N878   O880    1.301   .     A
O881   C885    1.300   .     A
O881   Zn893   1.980   .     S
O882   C886    1.289   .     A
O882   Zn894   1.980   .     S
O883   Zn894   1.995   .     S
O883   C885    1.288   .     A
O884   Zn893   1.995   .     S
O884   C886    1.294   .     A
C885   C903    1.435   .     S
C886   C904    1.425   .     S
O887   C891    1.273   .     A
O887   Zn893   1.973   .     S
O888   C892    1.276   .     A
O888   Zn894   1.973   .     S
O889   Zn894   1.977   .     S
O889   C891    1.297   .     A
O890   C892    1.292   .     A
O890   Zn893   1.977   .     S
C891   C895    1.413   .     S
C892   C896    1.399   .     S
Zn893  N922    2.027   .     S
Zn894  N921    2.027   .     S
C896   C675    1.351   1_655 S
C896   N712    1.439   1_655 S
C897   C913    1.408   .     A
C897   C935    1.474   .     S
C897   C899    1.386   .     A
C898   C914    1.412   .     A
C898   C900    1.394   .     A
C898   C946    1.485   .     S
C899   C903    1.392   .     A
C899   H901    1.079   .     S
C900   C904    1.396   .     A
C900   H902    1.085   .     S
C903   C905    1.395   .     A
C904   C906    1.386   .     A
C905   C909    1.381   .     A
C905   H907    1.083   .     S
C906   C910    1.379   .     A
C906   H908    1.082   .     S
C909   C913    1.400   .     A
C909   H911    1.083   .     S
C910   C914    1.400   .     A
C910   H912    1.083   .     S
C913   C1244   1.448   1_545 S
C914   C1243   1.448   .     S
C915   C927    1.398   .     A
C915   H917    1.083   .     S
C915   C919    1.407   .     A
C916   C920    1.410   .     A
C916   H918    1.084   .     S
C916   C928    1.395   .     A
C919   N921    1.374   .     A
C919   C957    1.468   .     S
C920   N922    1.377   .     A
C920   C968    1.462   .     S
N921   C923    1.378   .     A
N922   C924    1.381   .     A
C923   C925    1.428   .     A
C923   N979    1.429   .     S
C924   N982    1.424   .     S
C924   C926    1.427   .     A
C925   N985    1.437   .     S
C925   C927    1.417   .     A
C926   N988    1.437   .     S
C926   C928    1.414   .     A
C928   C267    1.522   1_556 S
N929   O930    1.300   .     A
N929   C675    1.449   1_655 S
N929   O711    1.301   1_655 S
N932   O934    1.301   .     A
N932   O933    1.301   .     A
C935   C936    1.404   .     A
C935   C940    1.401   .     A
C936   C937    1.399   .     A
C936   H941    1.084   .     S
C937   C1268   1.399   1_545 S
C938   C939    1.396   .     A
C938   H943    1.081   .     S
C938   C1267   1.399   .     S
C939   H944    1.082   .     S
C939   C1270   1.397   .     S
C940   H945    1.082   .     S
C940   C1269   1.397   1_545 S
H942   C717    1.082   1_655 S
C946   C947    1.407   .     A
C946   C951    1.406   .     A
C947   H952    1.083   .     S
C948   C949    1.396   .     A
C948   H953    1.079   .     S
C948   C727    1.398   1_655 S
C949   C1060   1.396   1_655 S
C949   H1284   1.082   .     S
C950   H955    1.082   .     S
C950   C1169   1.396   1_545 S
C950   C1281   1.398   1_545 S
C951   C1280   1.398   .     S
C951   H1286   1.082   .     S
H954   C1279   1.082   1_545 S
H956   C1281   1.082   1_545 S
C957   C958    1.404   .     A
C957   C962    1.403   .     A
C958   H963    1.082   .     S
C959   H964    1.083   .     S
C959   C738    1.398   1_655 S
C959   C740    1.398   1_655 S
C960   C961    1.398   .     A
C961   C962    1.396   .     A
C961   H966    1.081   .     S
C962   H967    1.083   .     S
H965   C740    1.082   1_655 S
C968   C973    1.403   .     A
C968   C969    1.402   .     A
C969   H974    1.082   .     S
C969   C970    1.399   .     A
C970   H975    1.082   .     S
C970   C971    1.397   .     A
C971   H976    1.078   .     S
C971   C972    1.395   .     A
C972   H977    1.076   .     S
C972   C973    1.394   .     A
C973   H978    1.084   .     S
N979   O981    1.300   .     A
N979   O980    1.300   .     A
N982   O983    1.300   .     A
N982   O984    1.302   .     A
N985   O987    1.301   .     A
N985   O986    1.301   .     A
N988   O989    1.301   .     A
N988   O990    1.301   .     A
O991   C995    1.300   .     A
O991   Zn1003  1.980   .     S
O992   C996    1.289   .     A
O992   Zn1004  1.980   .     S
O993   Zn1004  1.995   .     S
O993   C995    1.288   .     A
O994   Zn1003  1.995   .     S
O994   C996    1.294   .     A
C995   C1013   1.435   .     S
C996   C1014   1.425   .     S
O997   C1001   1.273   .     A
O997   Zn1003  1.973   .     S
O998   C1002   1.276   .     A
O998   Zn1004  1.973   .     S
O999   Zn1004  1.977   .     S
O999   C1001   1.297   .     A
O1000  C1002   1.292   .     A
O1000  Zn1003  1.977   .     S
C1001  C1005   1.413   .     S
C1002  C1006   1.399   .     S
Zn1003 N1032   2.027   .     S
Zn1004 N1031   2.027   .     S
C1005  C1226   1.351   1_455 S
C1005  N1259   1.449   1_455 S
C1006  C1115   1.351   .     S
C1006  N1152   1.439   .     S
C1007  C1023   1.408   .     A
C1007  C1045   1.474   .     S
C1007  C1009   1.386   .     A
C1008  C1024   1.412   .     A
C1008  C1010   1.394   .     A
C1008  C1056   1.485   .     S
C1009  C1013   1.392   .     A
C1009  H1011   1.079   .     S
C1010  C1014   1.396   .     A
C1010  H1012   1.085   .     S
C1013  C1015   1.395   .     A
C1014  C1016   1.386   .     A
C1015  C1019   1.381   .     A
C1015  H1017   1.083   .     S
C1016  C1020   1.379   .     A
C1016  H1018   1.082   .     S
C1019  C1023   1.400   .     A
C1019  H1021   1.083   .     S
C1020  C1024   1.400   .     A
C1020  H1022   1.083   .     S
C1024  C693    1.448   1_565 S
C1025  C1037   1.398   .     A
C1025  H1027   1.083   .     S
C1025  C1029   1.407   .     A
C1026  C1030   1.410   .     A
C1026  H1028   1.084   .     S
C1026  C1038   1.395   .     A
C1029  N1031   1.374   .     A
C1029  C1067   1.468   .     S
C1030  N1032   1.377   .     A
C1030  C1078   1.462   .     S
N1031  C1033   1.378   .     A
N1032  C1034   1.381   .     A
C1033  C1035   1.428   .     A
C1033  N1089   1.429   .     S
C1034  N1092   1.424   .     S
C1034  C1036   1.427   .     A
C1035  N1095   1.437   .     S
C1035  C1037   1.417   .     A
C1036  N1098   1.437   .     S
C1036  C1038   1.414   .     A
C1038  C377    1.522   1_556 S
N1039  O1040   1.300   .     A
N1039  C1115   1.449   .     S
N1039  O1151   1.301   .     S
O1041  N1259   1.301   1_455 S
N1042  O1044   1.301   .     A
N1042  O1043   1.301   .     A
N1042  C1226   1.439   1_455 S
C1045  C1046   1.404   .     A
C1045  C1050   1.401   .     A
C1046  C1047   1.399   .     A
C1046  H1051   1.084   .     S
C1047  H1272   1.082   1_455 S
C1048  C1049   1.396   .     A
C1048  H1053   1.081   .     S
C1048  C717    1.399   1_565 S
C1049  H1054   1.082   .     S
C1049  C720    1.397   1_565 S
C1050  H1055   1.082   .     S
H1052  C1157   1.082   .     S
C1056  C1057   1.407   .     A
C1056  C1061   1.406   .     A
C1057  H1062   1.083   .     S
C1057  C1278   1.398   1_455 S
C1058  C1059   1.396   .     A
C1058  H1063   1.079   .     S
C1058  C1167   1.398   .     S
C1059  C840    1.396   1_565 S
C1059  H734    1.082   1_565 S
C1060  H1065   1.082   .     S
C1060  C949    1.396   1_455 S
C1061  C730    1.398   1_565 S
C1061  H736    1.082   1_565 S
C1067  C1068   1.404   .     A
C1067  C1072   1.403   .     A
C1068  H1073   1.082   .     S
C1068  C1289   1.398   1_455 S
C1069  H1074   1.083   .     S
C1069  C1178   1.398   .     S
C1069  C1180   1.398   .     S
C1070  C1071   1.398   .     A
C1070  C1289   1.398   1_455 S
C1070  H1295   1.082   1_455 S
C1071  C1072   1.396   .     A
C1071  H1076   1.081   .     S
C1072  H1077   1.083   .     S
H1075  C1180   1.082   .     S
C1078  C1083   1.403   .     A
C1078  C1079   1.402   .     A
C1079  H1084   1.082   .     S
C1079  C1080   1.399   .     A
C1080  H1085   1.082   .     S
C1080  C1081   1.397   .     A
C1081  H1086   1.078   .     S
C1081  C1082   1.395   .     A
C1082  H1087   1.076   .     S
C1082  C1083   1.394   .     A
C1083  H1088   1.084   .     S
N1089  O1091   1.300   .     A
N1089  O1090   1.300   .     A
N1092  O1093   1.300   .     A
N1092  O1094   1.302   .     A
N1095  O1097   1.301   .     A
N1095  O1096   1.301   .     A
N1098  O1099   1.301   .     A
N1098  O1100   1.301   .     A
O1101  C1105   1.300   .     A
O1101  Zn1113  1.980   .     S
O1102  C1106   1.289   .     A
O1102  Zn1114  1.980   .     S
O1103  Zn1114  1.995   .     S
O1103  C1105   1.288   .     A
O1104  Zn1113  1.995   .     S
O1104  C1106   1.294   .     A
C1105  C1123   1.435   .     S
C1106  C1124   1.425   .     S
O1107  C1111   1.273   .     A
O1107  Zn1113  1.973   .     S
O1108  C1112   1.276   .     A
O1108  Zn1114  1.973   .     S
O1109  Zn1114  1.977   .     S
O1109  C1111   1.297   .     A
O1110  C1112   1.292   .     A
O1110  Zn1113  1.977   .     S
C1111  C1115   1.413   .     S
C1112  C1116   1.399   .     S
Zn1113 N1142   2.027   .     S
Zn1114 N1141   2.027   .     S
C1116  C1225   1.351   .     S
C1116  N1262   1.439   .     S
C1117  C1133   1.408   .     A
C1117  C1155   1.474   .     S
C1117  C1119   1.386   .     A
C1118  C1134   1.412   .     A
C1118  C1120   1.394   .     A
C1118  C1166   1.485   .     S
C1119  C1123   1.392   .     A
C1119  H1121   1.079   .     S
C1120  C1124   1.396   .     A
C1120  H1122   1.085   .     S
C1123  C1125   1.395   .     A
C1124  C1126   1.386   .     A
C1125  C1129   1.381   .     A
C1125  H1127   1.083   .     S
C1126  C1130   1.379   .     A
C1126  H1128   1.082   .     S
C1129  C1133   1.400   .     A
C1129  H1131   1.083   .     S
C1130  C1134   1.400   .     A
C1130  H1132   1.083   .     S
C1134  C803    1.448   1_565 S
C1135  C1147   1.398   .     A
C1135  H1137   1.083   .     S
C1135  C1139   1.407   .     A
C1136  C1140   1.410   .     A
C1136  H1138   1.084   .     S
C1136  C1148   1.395   .     A
C1139  N1141   1.374   .     A
C1139  C1177   1.468   .     S
C1140  N1142   1.377   .     A
C1140  C1188   1.462   .     S
N1141  C1143   1.378   .     A
N1142  C1144   1.381   .     A
C1143  C1145   1.428   .     A
C1143  N1199   1.429   .     S
C1144  N1202   1.424   .     S
C1144  C1146   1.427   .     A
C1145  N1205   1.437   .     S
C1145  C1147   1.417   .     A
C1146  N1208   1.437   .     S
C1146  C1148   1.414   .     A
C1148  C487    1.522   1_556 S
N1149  O1150   1.300   .     A
N1149  C1225   1.449   .     S
N1149  O1261   1.301   .     S
N1152  O1154   1.301   .     A
N1152  O1153   1.301   .     A
C1155  C1156   1.404   .     A
C1155  C1160   1.401   .     A
C1156  C1157   1.399   .     A
C1156  H1161   1.084   .     S
C1158  C1159   1.396   .     A
C1158  H1163   1.081   .     S
C1158  C827    1.399   1_565 S
C1159  H1164   1.082   .     S
C1159  C830    1.397   1_565 S
C1160  H1165   1.082   .     S
H1162  C1267   1.082   .     S
C1166  C1167   1.407   .     A
C1166  C1171   1.406   .     A
C1167  H1172   1.083   .     S
C1168  C1169   1.396   .     A
C1168  H1173   1.079   .     S
C1168  C1277   1.398   .     S
C1169  C950    1.396   1_565 S
C1169  H844    1.082   1_565 S
C1170  H1175   1.082   .     S
C1171  C840    1.398   1_565 S
C1171  H846    1.082   1_565 S
C1177  C1178   1.404   .     A
C1177  C1182   1.403   .     A
C1178  H1183   1.082   .     S
C1179  H1184   1.083   .     S
C1179  C1288   1.398   .     S
C1179  C1290   1.398   .     S
C1180  C1181   1.398   .     A
C1181  C1182   1.396   .     A
C1181  H1186   1.081   .     S
C1182  H1187   1.083   .     S
H1185  C1290   1.082   .     S
C1188  C1193   1.403   .     A
C1188  C1189   1.402   .     A
C1189  H1194   1.082   .     S
C1189  C1190   1.399   .     A
C1190  H1195   1.082   .     S
C1190  C1191   1.397   .     A
C1191  H1196   1.078   .     S
C1191  C1192   1.395   .     A
C1192  H1197   1.076   .     S
C1192  C1193   1.394   .     A
C1193  H1198   1.084   .     S
N1199  O1201   1.300   .     A
N1199  O1200   1.300   .     A
N1202  O1203   1.300   .     A
N1202  O1204   1.302   .     A
N1205  O1207   1.301   .     A
N1205  O1206   1.301   .     A
N1208  O1209   1.301   .     A
N1208  O1210   1.301   .     A
O1211  C1215   1.300   .     A
O1211  Zn1223  1.980   .     S
O1212  C1216   1.289   .     A
O1212  Zn1224  1.980   .     S
O1213  Zn1224  1.995   .     S
O1213  C1215   1.288   .     A
O1214  Zn1223  1.995   .     S
O1214  C1216   1.294   .     A
C1215  C1233   1.435   .     S
C1216  C1234   1.425   .     S
O1217  C1221   1.273   .     A
O1217  Zn1223  1.973   .     S
O1218  C1222   1.276   .     A
O1218  Zn1224  1.973   .     S
O1219  Zn1224  1.977   .     S
O1219  C1221   1.297   .     A
O1220  C1222   1.292   .     A
O1220  Zn1223  1.977   .     S
C1221  C1225   1.413   .     S
C1222  C1226   1.399   .     S
Zn1223 N1252   2.027   .     S
Zn1224 N1251   2.027   .     S
C1226  C1005   1.351   1_655 S
C1226  N1042   1.439   1_655 S
C1227  C1243   1.408   .     A
C1227  C1265   1.474   .     S
C1227  C1229   1.386   .     A
C1228  C1244   1.412   .     A
C1228  C1230   1.394   .     A
C1228  C1276   1.485   .     S
C1229  C1233   1.392   .     A
C1229  H1231   1.079   .     S
C1230  C1234   1.396   .     A
C1230  H1232   1.085   .     S
C1233  C1235   1.395   .     A
C1234  C1236   1.386   .     A
C1235  C1239   1.381   .     A
C1235  H1237   1.083   .     S
C1236  C1240   1.379   .     A
C1236  H1238   1.082   .     S
C1239  C1243   1.400   .     A
C1239  H1241   1.083   .     S
C1240  C1244   1.400   .     A
C1240  H1242   1.083   .     S
C1244  C913    1.448   1_565 S
C1245  C1257   1.398   .     A
C1245  H1247   1.083   .     S
C1245  C1249   1.407   .     A
C1246  C1250   1.410   .     A
C1246  H1248   1.084   .     S
C1246  C1258   1.395   .     A
C1249  N1251   1.374   .     A
C1249  C1287   1.468   .     S
C1250  N1252   1.377   .     A
C1250  C1298   1.462   .     S
N1251  C1253   1.378   .     A
N1252  C1254   1.381   .     A
C1253  C1255   1.428   .     A
C1253  N1309   1.429   .     S
C1254  N1312   1.424   .     S
C1254  C1256   1.427   .     A
C1255  N1315   1.437   .     S
C1255  C1257   1.417   .     A
C1256  N1318   1.437   .     S
C1256  C1258   1.414   .     A
C1258  C597    1.522   1_556 S
N1259  O1260   1.300   .     A
N1259  C1005   1.449   1_655 S
N1259  O1041   1.301   1_655 S
N1262  O1264   1.301   .     A
N1262  O1263   1.301   .     A
C1265  C1266   1.404   .     A
C1265  C1270   1.401   .     A
C1266  C1267   1.399   .     A
C1266  H1271   1.084   .     S
C1268  C1269   1.396   .     A
C1268  H1273   1.081   .     S
C1268  C937    1.399   1_565 S
C1269  H1274   1.082   .     S
C1269  C940    1.397   1_565 S
C1270  H1275   1.082   .     S
H1272  C1047   1.082   1_655 S
C1276  C1277   1.407   .     A
C1276  C1281   1.406   .     A
C1277  H1282   1.083   .     S
C1278  C1279   1.396   .     A
C1278  H1283   1.079   .     S
C1278  C1057   1.398   1_655 S
C1279  C730    1.396   1_665 S
C1279  H954    1.082   1_565 S
C1280  H1285   1.082   .     S
C1281  C950    1.398   1_565 S
C1281  H956    1.082   1_565 S
C1287  C1288   1.404   .     A
C1287  C1292   1.403   .     A
C1288  H1293   1.082   .     S
C1289  H1294   1.083   .     S
C1289  C1068   1.398   1_655 S
C1289  C1070   1.398   1_655 S
C1290  C1291   1.398   .     A
C1291  C1292   1.396   .     A
C1291  H1296   1.081   .     S
C1292  H1297   1.083   .     S
H1295  C1070   1.082   1_655 S
C1298  C1303   1.403   .     A
C1298  C1299   1.402   .     A
C1299  H1304   1.082   .     S
C1299  C1300   1.399   .     A
C1300  H1305   1.082   .     S
C1300  C1301   1.397   .     A
C1301  H1306   1.078   .     S
C1301  C1302   1.395   .     A
C1302  H1307   1.076   .     S
C1302  C1303   1.394   .     A
C1303  H1308   1.084   .     S
N1309  O1311   1.300   .     A
N1309  O1310   1.300   .     A
N1312  O1313   1.300   .     A
N1312  O1314   1.302   .     A
N1315  O1317   1.301   .     A
N1315  O1316   1.301   .     A
N1318  O1319   1.301   .     A
N1318  O1320   1.301   .     A
