data_str_m3_o1_o10_pcu_sym.174
_audit_creation_date              2020-01-03
_audit_creation_method            'Materials Studio'
_symmetry_space_group_name_H-M    'P1'
_symmetry_Int_Tables_number       1
_symmetry_cell_setting            triclinic
loop_
_symmetry_equiv_pos_as_xyz
  x,y,z
_cell_length_a                    25.7666
_cell_length_b                    31.9155
_cell_length_c                    29.5770
_cell_angle_alpha                 90.0713
_cell_angle_beta                  98.7049
_cell_angle_gamma                 90.1697
loop_
_atom_site_label
_atom_site_type_symbol
_atom_site_fract_x
_atom_site_fract_y
_atom_site_fract_z
_atom_site_U_iso_or_equiv
_atom_site_adp_type
_atom_site_occupancy
C1     C     0.16776   0.08675   0.16675   0.00000  Uiso   1.00
C2     C     0.16557   0.24659   0.16658   0.00000  Uiso   1.00
C3     C     0.06704   0.16664   0.15468   0.00000  Uiso   1.00
C4     C     0.26630   0.16670   0.17865   0.00000  Uiso   1.00
C5     C     0.01197   0.16663   0.14825   0.00000  Uiso   1.00
C6     C     0.32136   0.16670   0.18508   0.00000  Uiso   1.00
C7     C     0.20429   0.02081   0.14484   0.00000  Uiso   1.00
C8     C     0.12904   0.31253   0.18850   0.00000  Uiso   1.00
C9     C     0.20242   0.31112   0.14473   0.00000  Uiso   1.00
C10    C     0.13091   0.02221   0.18860   0.00000  Uiso   1.00
C11    C     0.16524   0.29070   0.16658   0.00000  Uiso   1.00
C12    C     0.16809   0.04263   0.16676   0.00000  Uiso   1.00
C13    C     0.19985   0.19232   0.02836   0.00000  Uiso   1.00
C14    C     0.13348   0.14101   0.30497   0.00000  Uiso   1.00
C15    C     0.19983   0.19231   0.31377   0.00000  Uiso   1.00
C16    C     0.13351   0.14102   0.01957   0.00000  Uiso   1.00
H17    H     0.32463   0.16656   0.11334   0.00000  Uiso   1.00
H18    H     0.00870   0.16677   0.22000   0.00000  Uiso   1.00
H19    H     0.23052   0.29355   0.12848   0.00000  Uiso   1.00
H20    H     0.10281   0.03978   0.20485   0.00000  Uiso   1.00
H21    H     0.22640   0.21285   0.05000   0.00000  Uiso   1.00
H22    H     0.10694   0.12049   0.28333   0.00000  Uiso   1.00
H23    H     0.22635   0.21284   0.29916   0.00000  Uiso   1.00
H24    H     0.10698   0.12050   0.03417   0.00000  Uiso   1.00
N25    N     0.16665   0.16666   0.28573   0.00000  Uiso   1.00
N26    N     0.16668   0.16668   0.04760   0.00000  Uiso   1.00
O27    O     0.16666   0.10558   0.20487   0.00000  Uiso   1.00
O28    O     0.16667   0.22775   0.12846   0.00000  Uiso   1.00
O29    O     0.16666   0.10559   0.12843   0.00000  Uiso   1.00
O30    O     0.16667   0.22774   0.20490   0.00000  Uiso   1.00
O31    O     0.09058   0.16666   0.19595   0.00000  Uiso   1.00
O32    O     0.24275   0.16667   0.13739   0.00000  Uiso   1.00
O33    O     0.09058   0.16667   0.11950   0.00000  Uiso   1.00
O34    O     0.24275   0.16666   0.21383   0.00000  Uiso   1.00
Zn35   Zn    0.16667   0.16666   0.21771   0.00000  Uiso   1.00
Zn36   Zn    0.16667   0.16667   0.11563   0.00000  Uiso   1.00
Br37   Br    0.25847   0.04788   0.11724   0.00000  Uiso   1.00
Br38   Br    0.07487   0.28545   0.21609   0.00000  Uiso   1.00
C39    C     0.50110   0.08675   0.16675   0.00000  Uiso   1.00
C40    C     0.49890   0.24659   0.16658   0.00000  Uiso   1.00
C41    C     0.40037   0.16664   0.15468   0.00000  Uiso   1.00
C42    C     0.59963   0.16670   0.17865   0.00000  Uiso   1.00
C43    C     0.34531   0.16663   0.14825   0.00000  Uiso   1.00
C44    C     0.65469   0.16670   0.18508   0.00000  Uiso   1.00
C45    C     0.53762   0.02081   0.14484   0.00000  Uiso   1.00
C46    C     0.46238   0.31253   0.18850   0.00000  Uiso   1.00
C47    C     0.53576   0.31112   0.14473   0.00000  Uiso   1.00
C48    C     0.46424   0.02221   0.18860   0.00000  Uiso   1.00
C49    C     0.49858   0.29070   0.16658   0.00000  Uiso   1.00
C50    C     0.50142   0.04263   0.16676   0.00000  Uiso   1.00
C51    C     0.53318   0.19232   0.02836   0.00000  Uiso   1.00
C52    C     0.46682   0.14101   0.30497   0.00000  Uiso   1.00
C53    C     0.53316   0.19231   0.31377   0.00000  Uiso   1.00
C54    C     0.46684   0.14102   0.01957   0.00000  Uiso   1.00
H55    H     0.65796   0.16656   0.11334   0.00000  Uiso   1.00
H56    H     0.34204   0.16677   0.22000   0.00000  Uiso   1.00
H57    H     0.56385   0.29355   0.12848   0.00000  Uiso   1.00
H58    H     0.43615   0.03978   0.20485   0.00000  Uiso   1.00
H59    H     0.55973   0.21285   0.05000   0.00000  Uiso   1.00
H60    H     0.44027   0.12049   0.28333   0.00000  Uiso   1.00
H61    H     0.55969   0.21284   0.29916   0.00000  Uiso   1.00
H62    H     0.44031   0.12050   0.03417   0.00000  Uiso   1.00
N63    N     0.49999   0.16666   0.28573   0.00000  Uiso   1.00
N64    N     0.50001   0.16668   0.04760   0.00000  Uiso   1.00
O65    O     0.50000   0.10558   0.20487   0.00000  Uiso   1.00
O66    O     0.50000   0.22775   0.12846   0.00000  Uiso   1.00
O67    O     0.50000   0.10559   0.12843   0.00000  Uiso   1.00
O68    O     0.50000   0.22774   0.20490   0.00000  Uiso   1.00
O69    O     0.42392   0.16666   0.19595   0.00000  Uiso   1.00
O70    O     0.57608   0.16667   0.13739   0.00000  Uiso   1.00
O71    O     0.42392   0.16667   0.11950   0.00000  Uiso   1.00
O72    O     0.57608   0.16666   0.21383   0.00000  Uiso   1.00
Zn73   Zn    0.50000   0.16666   0.21771   0.00000  Uiso   1.00
Zn74   Zn    0.50000   0.16667   0.11563   0.00000  Uiso   1.00
Br75   Br    0.59180   0.04788   0.11724   0.00000  Uiso   1.00
Br76   Br    0.40820   0.28545   0.21609   0.00000  Uiso   1.00
C77    C     0.83443   0.08675   0.16675   0.00000  Uiso   1.00
C78    C     0.83224   0.24659   0.16658   0.00000  Uiso   1.00
C79    C     0.73370   0.16664   0.15468   0.00000  Uiso   1.00
C80    C     0.93296   0.16670   0.17865   0.00000  Uiso   1.00
C81    C     0.67864   0.16663   0.14825   0.00000  Uiso   1.00
C82    C     0.98803   0.16670   0.18508   0.00000  Uiso   1.00
C83    C     0.87096   0.02081   0.14484   0.00000  Uiso   1.00
C84    C     0.79571   0.31253   0.18850   0.00000  Uiso   1.00
C85    C     0.86909   0.31112   0.14473   0.00000  Uiso   1.00
C86    C     0.79758   0.02221   0.18860   0.00000  Uiso   1.00
C87    C     0.83191   0.29070   0.16658   0.00000  Uiso   1.00
C88    C     0.83476   0.04263   0.16676   0.00000  Uiso   1.00
C89    C     0.86652   0.19232   0.02836   0.00000  Uiso   1.00
C90    C     0.80015   0.14101   0.30497   0.00000  Uiso   1.00
C91    C     0.86649   0.19231   0.31377   0.00000  Uiso   1.00
C92    C     0.80017   0.14102   0.01957   0.00000  Uiso   1.00
H93    H     0.99130   0.16656   0.11334   0.00000  Uiso   1.00
H94    H     0.67537   0.16677   0.22000   0.00000  Uiso   1.00
H95    H     0.89719   0.29355   0.12848   0.00000  Uiso   1.00
H96    H     0.76948   0.03978   0.20485   0.00000  Uiso   1.00
H97    H     0.89306   0.21285   0.05000   0.00000  Uiso   1.00
H98    H     0.77360   0.12049   0.28333   0.00000  Uiso   1.00
H99    H     0.89302   0.21284   0.29916   0.00000  Uiso   1.00
H100   H     0.77365   0.12050   0.03417   0.00000  Uiso   1.00
N101   N     0.83332   0.16666   0.28573   0.00000  Uiso   1.00
N102   N     0.83335   0.16668   0.04760   0.00000  Uiso   1.00
O103   O     0.83333   0.10558   0.20487   0.00000  Uiso   1.00
O104   O     0.83334   0.22775   0.12846   0.00000  Uiso   1.00
O105   O     0.83333   0.10559   0.12843   0.00000  Uiso   1.00
O106   O     0.83334   0.22774   0.20490   0.00000  Uiso   1.00
O107   O     0.75725   0.16666   0.19595   0.00000  Uiso   1.00
O108   O     0.90942   0.16667   0.13739   0.00000  Uiso   1.00
O109   O     0.75725   0.16667   0.11950   0.00000  Uiso   1.00
O110   O     0.90942   0.16666   0.21383   0.00000  Uiso   1.00
Zn111  Zn    0.83333   0.16666   0.21771   0.00000  Uiso   1.00
Zn112  Zn    0.83333   0.16667   0.11563   0.00000  Uiso   1.00
Br113  Br    0.92513   0.04788   0.11724   0.00000  Uiso   1.00
Br114  Br    0.74153   0.28545   0.21609   0.00000  Uiso   1.00
C115   C     0.16776   0.42008   0.16675   0.00000  Uiso   1.00
C116   C     0.16557   0.57992   0.16658   0.00000  Uiso   1.00
C117   C     0.06704   0.49997   0.15468   0.00000  Uiso   1.00
C118   C     0.26630   0.50003   0.17865   0.00000  Uiso   1.00
C119   C     0.01197   0.49996   0.14825   0.00000  Uiso   1.00
C120   C     0.32136   0.50004   0.18508   0.00000  Uiso   1.00
C121   C     0.20429   0.35414   0.14484   0.00000  Uiso   1.00
C122   C     0.12904   0.64586   0.18850   0.00000  Uiso   1.00
C123   C     0.20242   0.64445   0.14473   0.00000  Uiso   1.00
C124   C     0.13091   0.35555   0.18860   0.00000  Uiso   1.00
C125   C     0.16524   0.62403   0.16658   0.00000  Uiso   1.00
C126   C     0.16809   0.37597   0.16676   0.00000  Uiso   1.00
C127   C     0.19985   0.52565   0.02836   0.00000  Uiso   1.00
C128   C     0.13348   0.47435   0.30497   0.00000  Uiso   1.00
C129   C     0.19983   0.52564   0.31377   0.00000  Uiso   1.00
C130   C     0.13351   0.47435   0.01957   0.00000  Uiso   1.00
H131   H     0.32463   0.49990   0.11334   0.00000  Uiso   1.00
H132   H     0.00870   0.50010   0.22000   0.00000  Uiso   1.00
H133   H     0.23052   0.62689   0.12848   0.00000  Uiso   1.00
H134   H     0.10281   0.37311   0.20485   0.00000  Uiso   1.00
H135   H     0.22640   0.54618   0.05000   0.00000  Uiso   1.00
H136   H     0.10694   0.45382   0.28333   0.00000  Uiso   1.00
H137   H     0.22635   0.54617   0.29916   0.00000  Uiso   1.00
H138   H     0.10698   0.45383   0.03417   0.00000  Uiso   1.00
N139   N     0.16665   0.49999   0.28573   0.00000  Uiso   1.00
N140   N     0.16668   0.50001   0.04760   0.00000  Uiso   1.00
O141   O     0.16666   0.43892   0.20487   0.00000  Uiso   1.00
O142   O     0.16667   0.56108   0.12846   0.00000  Uiso   1.00
O143   O     0.16666   0.43893   0.12843   0.00000  Uiso   1.00
O144   O     0.16667   0.56107   0.20490   0.00000  Uiso   1.00
O145   O     0.09058   0.50000   0.19595   0.00000  Uiso   1.00
O146   O     0.24275   0.50000   0.13739   0.00000  Uiso   1.00
O147   O     0.09058   0.50000   0.11950   0.00000  Uiso   1.00
O148   O     0.24275   0.50000   0.21383   0.00000  Uiso   1.00
Zn149  Zn    0.16667   0.49999   0.21771   0.00000  Uiso   1.00
Zn150  Zn    0.16667   0.50001   0.11563   0.00000  Uiso   1.00
Br151  Br    0.25847   0.38121   0.11724   0.00000  Uiso   1.00
Br152  Br    0.07487   0.61879   0.21609   0.00000  Uiso   1.00
C153   C     0.50110   0.42008   0.16675   0.00000  Uiso   1.00
C154   C     0.49890   0.57992   0.16658   0.00000  Uiso   1.00
C155   C     0.40037   0.49997   0.15468   0.00000  Uiso   1.00
C156   C     0.59963   0.50003   0.17865   0.00000  Uiso   1.00
C157   C     0.34531   0.49996   0.14825   0.00000  Uiso   1.00
C158   C     0.65469   0.50004   0.18508   0.00000  Uiso   1.00
C159   C     0.53762   0.35414   0.14484   0.00000  Uiso   1.00
C160   C     0.46238   0.64586   0.18850   0.00000  Uiso   1.00
C161   C     0.53576   0.64445   0.14473   0.00000  Uiso   1.00
C162   C     0.46424   0.35555   0.18860   0.00000  Uiso   1.00
C163   C     0.49858   0.62403   0.16658   0.00000  Uiso   1.00
C164   C     0.50142   0.37597   0.16676   0.00000  Uiso   1.00
C165   C     0.53318   0.52565   0.02836   0.00000  Uiso   1.00
C166   C     0.46682   0.47435   0.30497   0.00000  Uiso   1.00
C167   C     0.53316   0.52564   0.31377   0.00000  Uiso   1.00
C168   C     0.46684   0.47435   0.01957   0.00000  Uiso   1.00
H169   H     0.65796   0.49990   0.11334   0.00000  Uiso   1.00
H170   H     0.34204   0.50010   0.22000   0.00000  Uiso   1.00
H171   H     0.56385   0.62689   0.12848   0.00000  Uiso   1.00
H172   H     0.43615   0.37311   0.20485   0.00000  Uiso   1.00
H173   H     0.55973   0.54618   0.05000   0.00000  Uiso   1.00
H174   H     0.44027   0.45382   0.28333   0.00000  Uiso   1.00
H175   H     0.55969   0.54617   0.29916   0.00000  Uiso   1.00
H176   H     0.44031   0.45383   0.03417   0.00000  Uiso   1.00
N177   N     0.49999   0.49999   0.28573   0.00000  Uiso   1.00
N178   N     0.50001   0.50001   0.04760   0.00000  Uiso   1.00
O179   O     0.50000   0.43892   0.20487   0.00000  Uiso   1.00
O180   O     0.50000   0.56108   0.12846   0.00000  Uiso   1.00
O181   O     0.50000   0.43893   0.12843   0.00000  Uiso   1.00
O182   O     0.50000   0.56107   0.20490   0.00000  Uiso   1.00
O183   O     0.42392   0.50000   0.19595   0.00000  Uiso   1.00
O184   O     0.57608   0.50000   0.13739   0.00000  Uiso   1.00
O185   O     0.42392   0.50000   0.11950   0.00000  Uiso   1.00
O186   O     0.57608   0.50000   0.21383   0.00000  Uiso   1.00
Zn187  Zn    0.50000   0.49999   0.21771   0.00000  Uiso   1.00
Zn188  Zn    0.50000   0.50001   0.11563   0.00000  Uiso   1.00
Br189  Br    0.59180   0.38121   0.11724   0.00000  Uiso   1.00
Br190  Br    0.40820   0.61879   0.21609   0.00000  Uiso   1.00
C191   C     0.83443   0.42008   0.16675   0.00000  Uiso   1.00
C192   C     0.83224   0.57992   0.16658   0.00000  Uiso   1.00
C193   C     0.73370   0.49997   0.15468   0.00000  Uiso   1.00
C194   C     0.93296   0.50003   0.17865   0.00000  Uiso   1.00
C195   C     0.67864   0.49996   0.14825   0.00000  Uiso   1.00
C196   C     0.98803   0.50004   0.18508   0.00000  Uiso   1.00
C197   C     0.87096   0.35414   0.14484   0.00000  Uiso   1.00
C198   C     0.79571   0.64586   0.18850   0.00000  Uiso   1.00
C199   C     0.86909   0.64445   0.14473   0.00000  Uiso   1.00
C200   C     0.79758   0.35555   0.18860   0.00000  Uiso   1.00
C201   C     0.83191   0.62403   0.16658   0.00000  Uiso   1.00
C202   C     0.83476   0.37597   0.16676   0.00000  Uiso   1.00
C203   C     0.86652   0.52565   0.02836   0.00000  Uiso   1.00
C204   C     0.80015   0.47435   0.30497   0.00000  Uiso   1.00
C205   C     0.86649   0.52564   0.31377   0.00000  Uiso   1.00
C206   C     0.80017   0.47435   0.01957   0.00000  Uiso   1.00
H207   H     0.99130   0.49990   0.11334   0.00000  Uiso   1.00
H208   H     0.67537   0.50010   0.22000   0.00000  Uiso   1.00
H209   H     0.89719   0.62689   0.12848   0.00000  Uiso   1.00
H210   H     0.76948   0.37311   0.20485   0.00000  Uiso   1.00
H211   H     0.89306   0.54618   0.05000   0.00000  Uiso   1.00
H212   H     0.77360   0.45382   0.28333   0.00000  Uiso   1.00
H213   H     0.89302   0.54617   0.29916   0.00000  Uiso   1.00
H214   H     0.77365   0.45383   0.03417   0.00000  Uiso   1.00
N215   N     0.83332   0.49999   0.28573   0.00000  Uiso   1.00
N216   N     0.83335   0.50001   0.04760   0.00000  Uiso   1.00
O217   O     0.83333   0.43892   0.20487   0.00000  Uiso   1.00
O218   O     0.83334   0.56108   0.12846   0.00000  Uiso   1.00
O219   O     0.83333   0.43893   0.12843   0.00000  Uiso   1.00
O220   O     0.83334   0.56107   0.20490   0.00000  Uiso   1.00
O221   O     0.75725   0.50000   0.19595   0.00000  Uiso   1.00
O222   O     0.90942   0.50000   0.13739   0.00000  Uiso   1.00
O223   O     0.75725   0.50000   0.11950   0.00000  Uiso   1.00
O224   O     0.90942   0.50000   0.21383   0.00000  Uiso   1.00
Zn225  Zn    0.83333   0.49999   0.21771   0.00000  Uiso   1.00
Zn226  Zn    0.83333   0.50001   0.11563   0.00000  Uiso   1.00
Br227  Br    0.92513   0.38121   0.11724   0.00000  Uiso   1.00
Br228  Br    0.74153   0.61879   0.21609   0.00000  Uiso   1.00
C229   C     0.16776   0.75341   0.16675   0.00000  Uiso   1.00
C230   C     0.16557   0.91325   0.16658   0.00000  Uiso   1.00
C231   C     0.06704   0.83330   0.15468   0.00000  Uiso   1.00
C232   C     0.26630   0.83336   0.17865   0.00000  Uiso   1.00
C233   C     0.01197   0.83330   0.14825   0.00000  Uiso   1.00
C234   C     0.32136   0.83337   0.18508   0.00000  Uiso   1.00
C235   C     0.20429   0.68747   0.14484   0.00000  Uiso   1.00
C236   C     0.12904   0.97919   0.18850   0.00000  Uiso   1.00
C237   C     0.20242   0.97779   0.14473   0.00000  Uiso   1.00
C238   C     0.13091   0.68888   0.18860   0.00000  Uiso   1.00
C239   C     0.16524   0.95737   0.16658   0.00000  Uiso   1.00
C240   C     0.16809   0.70930   0.16676   0.00000  Uiso   1.00
C241   C     0.19985   0.85898   0.02836   0.00000  Uiso   1.00
C242   C     0.13348   0.80768   0.30497   0.00000  Uiso   1.00
C243   C     0.19983   0.85898   0.31377   0.00000  Uiso   1.00
C244   C     0.13351   0.80769   0.01957   0.00000  Uiso   1.00
H245   H     0.32463   0.83323   0.11334   0.00000  Uiso   1.00
H246   H     0.00870   0.83344   0.22000   0.00000  Uiso   1.00
H247   H     0.23052   0.96022   0.12848   0.00000  Uiso   1.00
H248   H     0.10281   0.70645   0.20485   0.00000  Uiso   1.00
H249   H     0.22640   0.87951   0.05000   0.00000  Uiso   1.00
H250   H     0.10694   0.78715   0.28333   0.00000  Uiso   1.00
H251   H     0.22635   0.87950   0.29916   0.00000  Uiso   1.00
H252   H     0.10698   0.78716   0.03417   0.00000  Uiso   1.00
N253   N     0.16665   0.83332   0.28573   0.00000  Uiso   1.00
N254   N     0.16668   0.83334   0.04760   0.00000  Uiso   1.00
O255   O     0.16666   0.77225   0.20487   0.00000  Uiso   1.00
O256   O     0.16667   0.89442   0.12846   0.00000  Uiso   1.00
O257   O     0.16666   0.77226   0.12843   0.00000  Uiso   1.00
O258   O     0.16667   0.89441   0.20490   0.00000  Uiso   1.00
O259   O     0.09058   0.83333   0.19595   0.00000  Uiso   1.00
O260   O     0.24275   0.83334   0.13739   0.00000  Uiso   1.00
O261   O     0.09058   0.83334   0.11950   0.00000  Uiso   1.00
O262   O     0.24275   0.83333   0.21383   0.00000  Uiso   1.00
Zn263  Zn    0.16667   0.83333   0.21771   0.00000  Uiso   1.00
Zn264  Zn    0.16667   0.83334   0.11563   0.00000  Uiso   1.00
Br265  Br    0.25847   0.71455   0.11724   0.00000  Uiso   1.00
Br266  Br    0.07487   0.95212   0.21609   0.00000  Uiso   1.00
C267   C     0.50110   0.75341   0.16675   0.00000  Uiso   1.00
C268   C     0.49890   0.91325   0.16658   0.00000  Uiso   1.00
C269   C     0.40037   0.83330   0.15468   0.00000  Uiso   1.00
C270   C     0.59963   0.83336   0.17865   0.00000  Uiso   1.00
C271   C     0.34531   0.83330   0.14825   0.00000  Uiso   1.00
C272   C     0.65469   0.83337   0.18508   0.00000  Uiso   1.00
C273   C     0.53762   0.68747   0.14484   0.00000  Uiso   1.00
C274   C     0.46238   0.97919   0.18850   0.00000  Uiso   1.00
C275   C     0.53576   0.97779   0.14473   0.00000  Uiso   1.00
C276   C     0.46424   0.68888   0.18860   0.00000  Uiso   1.00
C277   C     0.49858   0.95737   0.16658   0.00000  Uiso   1.00
C278   C     0.50142   0.70930   0.16676   0.00000  Uiso   1.00
C279   C     0.53318   0.85898   0.02836   0.00000  Uiso   1.00
C280   C     0.46682   0.80768   0.30497   0.00000  Uiso   1.00
C281   C     0.53316   0.85898   0.31377   0.00000  Uiso   1.00
C282   C     0.46684   0.80769   0.01957   0.00000  Uiso   1.00
H283   H     0.65796   0.83323   0.11334   0.00000  Uiso   1.00
H284   H     0.34204   0.83344   0.22000   0.00000  Uiso   1.00
H285   H     0.56385   0.96022   0.12848   0.00000  Uiso   1.00
H286   H     0.43615   0.70645   0.20485   0.00000  Uiso   1.00
H287   H     0.55973   0.87951   0.05000   0.00000  Uiso   1.00
H288   H     0.44027   0.78715   0.28333   0.00000  Uiso   1.00
H289   H     0.55969   0.87950   0.29916   0.00000  Uiso   1.00
H290   H     0.44031   0.78716   0.03417   0.00000  Uiso   1.00
N291   N     0.49999   0.83332   0.28573   0.00000  Uiso   1.00
N292   N     0.50001   0.83334   0.04760   0.00000  Uiso   1.00
O293   O     0.50000   0.77225   0.20487   0.00000  Uiso   1.00
O294   O     0.50000   0.89442   0.12846   0.00000  Uiso   1.00
O295   O     0.50000   0.77226   0.12843   0.00000  Uiso   1.00
O296   O     0.50000   0.89441   0.20490   0.00000  Uiso   1.00
O297   O     0.42392   0.83333   0.19595   0.00000  Uiso   1.00
O298   O     0.57608   0.83334   0.13739   0.00000  Uiso   1.00
O299   O     0.42392   0.83334   0.11950   0.00000  Uiso   1.00
O300   O     0.57608   0.83333   0.21383   0.00000  Uiso   1.00
Zn301  Zn    0.50000   0.83333   0.21771   0.00000  Uiso   1.00
Zn302  Zn    0.50000   0.83334   0.11563   0.00000  Uiso   1.00
Br303  Br    0.59180   0.71455   0.11724   0.00000  Uiso   1.00
Br304  Br    0.40820   0.95212   0.21609   0.00000  Uiso   1.00
C305   C     0.83443   0.75341   0.16675   0.00000  Uiso   1.00
C306   C     0.83224   0.91325   0.16658   0.00000  Uiso   1.00
C307   C     0.73370   0.83330   0.15468   0.00000  Uiso   1.00
C308   C     0.93296   0.83336   0.17865   0.00000  Uiso   1.00
C309   C     0.67864   0.83330   0.14825   0.00000  Uiso   1.00
C310   C     0.98803   0.83337   0.18508   0.00000  Uiso   1.00
C311   C     0.87096   0.68747   0.14484   0.00000  Uiso   1.00
C312   C     0.79571   0.97919   0.18850   0.00000  Uiso   1.00
C313   C     0.86909   0.97779   0.14473   0.00000  Uiso   1.00
C314   C     0.79758   0.68888   0.18860   0.00000  Uiso   1.00
C315   C     0.83191   0.95737   0.16658   0.00000  Uiso   1.00
C316   C     0.83476   0.70930   0.16676   0.00000  Uiso   1.00
C317   C     0.86652   0.85898   0.02836   0.00000  Uiso   1.00
C318   C     0.80015   0.80768   0.30497   0.00000  Uiso   1.00
C319   C     0.86649   0.85898   0.31377   0.00000  Uiso   1.00
C320   C     0.80017   0.80769   0.01957   0.00000  Uiso   1.00
H321   H     0.99130   0.83323   0.11334   0.00000  Uiso   1.00
H322   H     0.67537   0.83344   0.22000   0.00000  Uiso   1.00
H323   H     0.89719   0.96022   0.12848   0.00000  Uiso   1.00
H324   H     0.76948   0.70645   0.20485   0.00000  Uiso   1.00
H325   H     0.89306   0.87951   0.05000   0.00000  Uiso   1.00
H326   H     0.77360   0.78715   0.28333   0.00000  Uiso   1.00
H327   H     0.89302   0.87950   0.29916   0.00000  Uiso   1.00
H328   H     0.77365   0.78716   0.03417   0.00000  Uiso   1.00
N329   N     0.83332   0.83332   0.28573   0.00000  Uiso   1.00
N330   N     0.83335   0.83334   0.04760   0.00000  Uiso   1.00
O331   O     0.83333   0.77225   0.20487   0.00000  Uiso   1.00
O332   O     0.83334   0.89442   0.12846   0.00000  Uiso   1.00
O333   O     0.83333   0.77226   0.12843   0.00000  Uiso   1.00
O334   O     0.83334   0.89441   0.20490   0.00000  Uiso   1.00
O335   O     0.75725   0.83333   0.19595   0.00000  Uiso   1.00
O336   O     0.90942   0.83334   0.13739   0.00000  Uiso   1.00
O337   O     0.75725   0.83334   0.11950   0.00000  Uiso   1.00
O338   O     0.90942   0.83333   0.21383   0.00000  Uiso   1.00
Zn339  Zn    0.83333   0.83333   0.21771   0.00000  Uiso   1.00
Zn340  Zn    0.83333   0.83334   0.11563   0.00000  Uiso   1.00
Br341  Br    0.92513   0.71455   0.11724   0.00000  Uiso   1.00
Br342  Br    0.74153   0.95212   0.21609   0.00000  Uiso   1.00
C343   C     0.16776   0.08675   0.50009   0.00000  Uiso   1.00
C344   C     0.16557   0.24659   0.49991   0.00000  Uiso   1.00
C345   C     0.06704   0.16664   0.48802   0.00000  Uiso   1.00
C346   C     0.26630   0.16670   0.51198   0.00000  Uiso   1.00
C347   C     0.01197   0.16663   0.48159   0.00000  Uiso   1.00
C348   C     0.32136   0.16670   0.51841   0.00000  Uiso   1.00
C349   C     0.20429   0.02081   0.47817   0.00000  Uiso   1.00
C350   C     0.12904   0.31253   0.52183   0.00000  Uiso   1.00
C351   C     0.20242   0.31112   0.47807   0.00000  Uiso   1.00
C352   C     0.13091   0.02221   0.52193   0.00000  Uiso   1.00
C353   C     0.16524   0.29070   0.49991   0.00000  Uiso   1.00
C354   C     0.16809   0.04263   0.50009   0.00000  Uiso   1.00
C355   C     0.19985   0.19232   0.36169   0.00000  Uiso   1.00
C356   C     0.13348   0.14101   0.63831   0.00000  Uiso   1.00
C357   C     0.19983   0.19231   0.64710   0.00000  Uiso   1.00
C358   C     0.13351   0.14102   0.35290   0.00000  Uiso   1.00
H359   H     0.32463   0.16656   0.44667   0.00000  Uiso   1.00
H360   H     0.00870   0.16677   0.55333   0.00000  Uiso   1.00
H361   H     0.23052   0.29355   0.46181   0.00000  Uiso   1.00
H362   H     0.10281   0.03978   0.53819   0.00000  Uiso   1.00
H363   H     0.22640   0.21285   0.38333   0.00000  Uiso   1.00
H364   H     0.10694   0.12049   0.61667   0.00000  Uiso   1.00
H365   H     0.22635   0.21284   0.63249   0.00000  Uiso   1.00
H366   H     0.10698   0.12050   0.36751   0.00000  Uiso   1.00
N367   N     0.16665   0.16666   0.61907   0.00000  Uiso   1.00
N368   N     0.16668   0.16668   0.38093   0.00000  Uiso   1.00
O369   O     0.16666   0.10558   0.53821   0.00000  Uiso   1.00
O370   O     0.16667   0.22775   0.46179   0.00000  Uiso   1.00
O371   O     0.16666   0.10559   0.46176   0.00000  Uiso   1.00
O372   O     0.16667   0.22774   0.53824   0.00000  Uiso   1.00
O373   O     0.09058   0.16666   0.52928   0.00000  Uiso   1.00
O374   O     0.24275   0.16667   0.47072   0.00000  Uiso   1.00
O375   O     0.09058   0.16667   0.45284   0.00000  Uiso   1.00
O376   O     0.24275   0.16666   0.54716   0.00000  Uiso   1.00
Zn377  Zn    0.16667   0.16666   0.55104   0.00000  Uiso   1.00
Zn378  Zn    0.16667   0.16667   0.44896   0.00000  Uiso   1.00
Br379  Br    0.25847   0.04788   0.45057   0.00000  Uiso   1.00
Br380  Br    0.07487   0.28545   0.54943   0.00000  Uiso   1.00
C381   C     0.50110   0.08675   0.50009   0.00000  Uiso   1.00
C382   C     0.49890   0.24659   0.49991   0.00000  Uiso   1.00
C383   C     0.40037   0.16664   0.48802   0.00000  Uiso   1.00
C384   C     0.59963   0.16670   0.51198   0.00000  Uiso   1.00
C385   C     0.34531   0.16663   0.48159   0.00000  Uiso   1.00
C386   C     0.65469   0.16670   0.51841   0.00000  Uiso   1.00
C387   C     0.53762   0.02081   0.47817   0.00000  Uiso   1.00
C388   C     0.46238   0.31253   0.52183   0.00000  Uiso   1.00
C389   C     0.53576   0.31112   0.47807   0.00000  Uiso   1.00
C390   C     0.46424   0.02221   0.52193   0.00000  Uiso   1.00
C391   C     0.49858   0.29070   0.49991   0.00000  Uiso   1.00
C392   C     0.50142   0.04263   0.50009   0.00000  Uiso   1.00
C393   C     0.53318   0.19232   0.36169   0.00000  Uiso   1.00
C394   C     0.46682   0.14101   0.63831   0.00000  Uiso   1.00
C395   C     0.53316   0.19231   0.64710   0.00000  Uiso   1.00
C396   C     0.46684   0.14102   0.35290   0.00000  Uiso   1.00
H397   H     0.65796   0.16656   0.44667   0.00000  Uiso   1.00
H398   H     0.34204   0.16677   0.55333   0.00000  Uiso   1.00
H399   H     0.56385   0.29355   0.46181   0.00000  Uiso   1.00
H400   H     0.43615   0.03978   0.53819   0.00000  Uiso   1.00
H401   H     0.55973   0.21285   0.38333   0.00000  Uiso   1.00
H402   H     0.44027   0.12049   0.61667   0.00000  Uiso   1.00
H403   H     0.55969   0.21284   0.63249   0.00000  Uiso   1.00
H404   H     0.44031   0.12050   0.36751   0.00000  Uiso   1.00
N405   N     0.49999   0.16666   0.61907   0.00000  Uiso   1.00
N406   N     0.50001   0.16668   0.38093   0.00000  Uiso   1.00
O407   O     0.50000   0.10558   0.53821   0.00000  Uiso   1.00
O408   O     0.50000   0.22775   0.46179   0.00000  Uiso   1.00
O409   O     0.50000   0.10559   0.46176   0.00000  Uiso   1.00
O410   O     0.50000   0.22774   0.53824   0.00000  Uiso   1.00
O411   O     0.42392   0.16666   0.52928   0.00000  Uiso   1.00
O412   O     0.57608   0.16667   0.47072   0.00000  Uiso   1.00
O413   O     0.42392   0.16667   0.45284   0.00000  Uiso   1.00
O414   O     0.57608   0.16666   0.54716   0.00000  Uiso   1.00
Zn415  Zn    0.50000   0.16666   0.55104   0.00000  Uiso   1.00
Zn416  Zn    0.50000   0.16667   0.44896   0.00000  Uiso   1.00
Br417  Br    0.59180   0.04788   0.45057   0.00000  Uiso   1.00
Br418  Br    0.40820   0.28545   0.54943   0.00000  Uiso   1.00
C419   C     0.83443   0.08675   0.50009   0.00000  Uiso   1.00
C420   C     0.83224   0.24659   0.49991   0.00000  Uiso   1.00
C421   C     0.73370   0.16664   0.48802   0.00000  Uiso   1.00
C422   C     0.93296   0.16670   0.51198   0.00000  Uiso   1.00
C423   C     0.67864   0.16663   0.48159   0.00000  Uiso   1.00
C424   C     0.98803   0.16670   0.51841   0.00000  Uiso   1.00
C425   C     0.87096   0.02081   0.47817   0.00000  Uiso   1.00
C426   C     0.79571   0.31253   0.52183   0.00000  Uiso   1.00
C427   C     0.86909   0.31112   0.47807   0.00000  Uiso   1.00
C428   C     0.79758   0.02221   0.52193   0.00000  Uiso   1.00
C429   C     0.83191   0.29070   0.49991   0.00000  Uiso   1.00
C430   C     0.83476   0.04263   0.50009   0.00000  Uiso   1.00
C431   C     0.86652   0.19232   0.36169   0.00000  Uiso   1.00
C432   C     0.80015   0.14101   0.63831   0.00000  Uiso   1.00
C433   C     0.86649   0.19231   0.64710   0.00000  Uiso   1.00
C434   C     0.80017   0.14102   0.35290   0.00000  Uiso   1.00
H435   H     0.99130   0.16656   0.44667   0.00000  Uiso   1.00
H436   H     0.67537   0.16677   0.55333   0.00000  Uiso   1.00
H437   H     0.89719   0.29355   0.46181   0.00000  Uiso   1.00
H438   H     0.76948   0.03978   0.53819   0.00000  Uiso   1.00
H439   H     0.89306   0.21285   0.38333   0.00000  Uiso   1.00
H440   H     0.77360   0.12049   0.61667   0.00000  Uiso   1.00
H441   H     0.89302   0.21284   0.63249   0.00000  Uiso   1.00
H442   H     0.77365   0.12050   0.36751   0.00000  Uiso   1.00
N443   N     0.83332   0.16666   0.61907   0.00000  Uiso   1.00
N444   N     0.83335   0.16668   0.38093   0.00000  Uiso   1.00
O445   O     0.83333   0.10558   0.53821   0.00000  Uiso   1.00
O446   O     0.83334   0.22775   0.46179   0.00000  Uiso   1.00
O447   O     0.83333   0.10559   0.46176   0.00000  Uiso   1.00
O448   O     0.83334   0.22774   0.53824   0.00000  Uiso   1.00
O449   O     0.75725   0.16666   0.52928   0.00000  Uiso   1.00
O450   O     0.90942   0.16667   0.47072   0.00000  Uiso   1.00
O451   O     0.75725   0.16667   0.45284   0.00000  Uiso   1.00
O452   O     0.90942   0.16666   0.54716   0.00000  Uiso   1.00
Zn453  Zn    0.83333   0.16666   0.55104   0.00000  Uiso   1.00
Zn454  Zn    0.83333   0.16667   0.44896   0.00000  Uiso   1.00
Br455  Br    0.92513   0.04788   0.45057   0.00000  Uiso   1.00
Br456  Br    0.74153   0.28545   0.54943   0.00000  Uiso   1.00
C457   C     0.16776   0.42008   0.50009   0.00000  Uiso   1.00
C458   C     0.16557   0.57992   0.49991   0.00000  Uiso   1.00
C459   C     0.06704   0.49997   0.48802   0.00000  Uiso   1.00
C460   C     0.26630   0.50003   0.51198   0.00000  Uiso   1.00
C461   C     0.01197   0.49996   0.48159   0.00000  Uiso   1.00
C462   C     0.32136   0.50004   0.51841   0.00000  Uiso   1.00
C463   C     0.20429   0.35414   0.47817   0.00000  Uiso   1.00
C464   C     0.12904   0.64586   0.52183   0.00000  Uiso   1.00
C465   C     0.20242   0.64445   0.47807   0.00000  Uiso   1.00
C466   C     0.13091   0.35555   0.52193   0.00000  Uiso   1.00
C467   C     0.16524   0.62403   0.49991   0.00000  Uiso   1.00
C468   C     0.16809   0.37597   0.50009   0.00000  Uiso   1.00
C469   C     0.19985   0.52565   0.36169   0.00000  Uiso   1.00
C470   C     0.13348   0.47435   0.63831   0.00000  Uiso   1.00
C471   C     0.19983   0.52564   0.64710   0.00000  Uiso   1.00
C472   C     0.13351   0.47435   0.35290   0.00000  Uiso   1.00
H473   H     0.32463   0.49990   0.44667   0.00000  Uiso   1.00
H474   H     0.00870   0.50010   0.55333   0.00000  Uiso   1.00
H475   H     0.23052   0.62689   0.46181   0.00000  Uiso   1.00
H476   H     0.10281   0.37311   0.53819   0.00000  Uiso   1.00
H477   H     0.22640   0.54618   0.38333   0.00000  Uiso   1.00
H478   H     0.10694   0.45382   0.61667   0.00000  Uiso   1.00
H479   H     0.22635   0.54617   0.63249   0.00000  Uiso   1.00
H480   H     0.10698   0.45383   0.36751   0.00000  Uiso   1.00
N481   N     0.16665   0.49999   0.61907   0.00000  Uiso   1.00
N482   N     0.16668   0.50001   0.38093   0.00000  Uiso   1.00
O483   O     0.16666   0.43892   0.53821   0.00000  Uiso   1.00
O484   O     0.16667   0.56108   0.46179   0.00000  Uiso   1.00
O485   O     0.16666   0.43893   0.46176   0.00000  Uiso   1.00
O486   O     0.16667   0.56107   0.53824   0.00000  Uiso   1.00
O487   O     0.09058   0.50000   0.52928   0.00000  Uiso   1.00
O488   O     0.24275   0.50000   0.47072   0.00000  Uiso   1.00
O489   O     0.09058   0.50000   0.45284   0.00000  Uiso   1.00
O490   O     0.24275   0.50000   0.54716   0.00000  Uiso   1.00
Zn491  Zn    0.16667   0.49999   0.55104   0.00000  Uiso   1.00
Zn492  Zn    0.16667   0.50001   0.44896   0.00000  Uiso   1.00
Br493  Br    0.25847   0.38121   0.45057   0.00000  Uiso   1.00
Br494  Br    0.07487   0.61879   0.54943   0.00000  Uiso   1.00
C495   C     0.50110   0.42008   0.50009   0.00000  Uiso   1.00
C496   C     0.49890   0.57992   0.49991   0.00000  Uiso   1.00
C497   C     0.40037   0.49997   0.48802   0.00000  Uiso   1.00
C498   C     0.59963   0.50003   0.51198   0.00000  Uiso   1.00
C499   C     0.34531   0.49996   0.48159   0.00000  Uiso   1.00
C500   C     0.65469   0.50004   0.51841   0.00000  Uiso   1.00
C501   C     0.53762   0.35414   0.47817   0.00000  Uiso   1.00
C502   C     0.46238   0.64586   0.52183   0.00000  Uiso   1.00
C503   C     0.53576   0.64445   0.47807   0.00000  Uiso   1.00
C504   C     0.46424   0.35555   0.52193   0.00000  Uiso   1.00
C505   C     0.49858   0.62403   0.49991   0.00000  Uiso   1.00
C506   C     0.50142   0.37597   0.50009   0.00000  Uiso   1.00
C507   C     0.53318   0.52565   0.36169   0.00000  Uiso   1.00
C508   C     0.46682   0.47435   0.63831   0.00000  Uiso   1.00
C509   C     0.53316   0.52564   0.64710   0.00000  Uiso   1.00
C510   C     0.46684   0.47435   0.35290   0.00000  Uiso   1.00
H511   H     0.65796   0.49990   0.44667   0.00000  Uiso   1.00
H512   H     0.34204   0.50010   0.55333   0.00000  Uiso   1.00
H513   H     0.56385   0.62689   0.46181   0.00000  Uiso   1.00
H514   H     0.43615   0.37311   0.53819   0.00000  Uiso   1.00
H515   H     0.55973   0.54618   0.38333   0.00000  Uiso   1.00
H516   H     0.44027   0.45382   0.61667   0.00000  Uiso   1.00
H517   H     0.55969   0.54617   0.63249   0.00000  Uiso   1.00
H518   H     0.44031   0.45383   0.36751   0.00000  Uiso   1.00
N519   N     0.49999   0.49999   0.61907   0.00000  Uiso   1.00
N520   N     0.50001   0.50001   0.38093   0.00000  Uiso   1.00
O521   O     0.50000   0.43892   0.53821   0.00000  Uiso   1.00
O522   O     0.50000   0.56108   0.46179   0.00000  Uiso   1.00
O523   O     0.50000   0.43893   0.46176   0.00000  Uiso   1.00
O524   O     0.50000   0.56107   0.53824   0.00000  Uiso   1.00
O525   O     0.42392   0.50000   0.52928   0.00000  Uiso   1.00
O526   O     0.57608   0.50000   0.47072   0.00000  Uiso   1.00
O527   O     0.42392   0.50000   0.45284   0.00000  Uiso   1.00
O528   O     0.57608   0.50000   0.54716   0.00000  Uiso   1.00
Zn529  Zn    0.50000   0.49999   0.55104   0.00000  Uiso   1.00
Zn530  Zn    0.50000   0.50001   0.44896   0.00000  Uiso   1.00
Br531  Br    0.59180   0.38121   0.45057   0.00000  Uiso   1.00
Br532  Br    0.40820   0.61879   0.54943   0.00000  Uiso   1.00
C533   C     0.83443   0.42008   0.50009   0.00000  Uiso   1.00
C534   C     0.83224   0.57992   0.49991   0.00000  Uiso   1.00
C535   C     0.73370   0.49997   0.48802   0.00000  Uiso   1.00
C536   C     0.93296   0.50003   0.51198   0.00000  Uiso   1.00
C537   C     0.67864   0.49996   0.48159   0.00000  Uiso   1.00
C538   C     0.98803   0.50004   0.51841   0.00000  Uiso   1.00
C539   C     0.87096   0.35414   0.47817   0.00000  Uiso   1.00
C540   C     0.79571   0.64586   0.52183   0.00000  Uiso   1.00
C541   C     0.86909   0.64445   0.47807   0.00000  Uiso   1.00
C542   C     0.79758   0.35555   0.52193   0.00000  Uiso   1.00
C543   C     0.83191   0.62403   0.49991   0.00000  Uiso   1.00
C544   C     0.83476   0.37597   0.50009   0.00000  Uiso   1.00
C545   C     0.86652   0.52565   0.36169   0.00000  Uiso   1.00
C546   C     0.80015   0.47435   0.63831   0.00000  Uiso   1.00
C547   C     0.86649   0.52564   0.64710   0.00000  Uiso   1.00
C548   C     0.80017   0.47435   0.35290   0.00000  Uiso   1.00
H549   H     0.99130   0.49990   0.44667   0.00000  Uiso   1.00
H550   H     0.67537   0.50010   0.55333   0.00000  Uiso   1.00
H551   H     0.89719   0.62689   0.46181   0.00000  Uiso   1.00
H552   H     0.76948   0.37311   0.53819   0.00000  Uiso   1.00
H553   H     0.89306   0.54618   0.38333   0.00000  Uiso   1.00
H554   H     0.77360   0.45382   0.61667   0.00000  Uiso   1.00
H555   H     0.89302   0.54617   0.63249   0.00000  Uiso   1.00
H556   H     0.77365   0.45383   0.36751   0.00000  Uiso   1.00
N557   N     0.83332   0.49999   0.61907   0.00000  Uiso   1.00
N558   N     0.83335   0.50001   0.38093   0.00000  Uiso   1.00
O559   O     0.83333   0.43892   0.53821   0.00000  Uiso   1.00
O560   O     0.83334   0.56108   0.46179   0.00000  Uiso   1.00
O561   O     0.83333   0.43893   0.46176   0.00000  Uiso   1.00
O562   O     0.83334   0.56107   0.53824   0.00000  Uiso   1.00
O563   O     0.75725   0.50000   0.52928   0.00000  Uiso   1.00
O564   O     0.90942   0.50000   0.47072   0.00000  Uiso   1.00
O565   O     0.75725   0.50000   0.45284   0.00000  Uiso   1.00
O566   O     0.90942   0.50000   0.54716   0.00000  Uiso   1.00
Zn567  Zn    0.83333   0.49999   0.55104   0.00000  Uiso   1.00
Zn568  Zn    0.83333   0.50001   0.44896   0.00000  Uiso   1.00
Br569  Br    0.92513   0.38121   0.45057   0.00000  Uiso   1.00
Br570  Br    0.74153   0.61879   0.54943   0.00000  Uiso   1.00
C571   C     0.16776   0.75341   0.50009   0.00000  Uiso   1.00
C572   C     0.16557   0.91325   0.49991   0.00000  Uiso   1.00
C573   C     0.06704   0.83330   0.48802   0.00000  Uiso   1.00
C574   C     0.26630   0.83336   0.51198   0.00000  Uiso   1.00
C575   C     0.01197   0.83330   0.48159   0.00000  Uiso   1.00
C576   C     0.32136   0.83337   0.51841   0.00000  Uiso   1.00
C577   C     0.20429   0.68747   0.47817   0.00000  Uiso   1.00
C578   C     0.12904   0.97919   0.52183   0.00000  Uiso   1.00
C579   C     0.20242   0.97779   0.47807   0.00000  Uiso   1.00
C580   C     0.13091   0.68888   0.52193   0.00000  Uiso   1.00
C581   C     0.16524   0.95737   0.49991   0.00000  Uiso   1.00
C582   C     0.16809   0.70930   0.50009   0.00000  Uiso   1.00
C583   C     0.19985   0.85898   0.36169   0.00000  Uiso   1.00
C584   C     0.13348   0.80768   0.63831   0.00000  Uiso   1.00
C585   C     0.19983   0.85898   0.64710   0.00000  Uiso   1.00
C586   C     0.13351   0.80769   0.35290   0.00000  Uiso   1.00
H587   H     0.32463   0.83323   0.44667   0.00000  Uiso   1.00
H588   H     0.00870   0.83344   0.55333   0.00000  Uiso   1.00
H589   H     0.23052   0.96022   0.46181   0.00000  Uiso   1.00
H590   H     0.10281   0.70645   0.53819   0.00000  Uiso   1.00
H591   H     0.22640   0.87951   0.38333   0.00000  Uiso   1.00
H592   H     0.10694   0.78715   0.61667   0.00000  Uiso   1.00
H593   H     0.22635   0.87950   0.63249   0.00000  Uiso   1.00
H594   H     0.10698   0.78716   0.36751   0.00000  Uiso   1.00
N595   N     0.16665   0.83332   0.61907   0.00000  Uiso   1.00
N596   N     0.16668   0.83334   0.38093   0.00000  Uiso   1.00
O597   O     0.16666   0.77225   0.53821   0.00000  Uiso   1.00
O598   O     0.16667   0.89442   0.46179   0.00000  Uiso   1.00
O599   O     0.16666   0.77226   0.46176   0.00000  Uiso   1.00
O600   O     0.16667   0.89441   0.53824   0.00000  Uiso   1.00
O601   O     0.09058   0.83333   0.52928   0.00000  Uiso   1.00
O602   O     0.24275   0.83334   0.47072   0.00000  Uiso   1.00
O603   O     0.09058   0.83334   0.45284   0.00000  Uiso   1.00
O604   O     0.24275   0.83333   0.54716   0.00000  Uiso   1.00
Zn605  Zn    0.16667   0.83333   0.55104   0.00000  Uiso   1.00
Zn606  Zn    0.16667   0.83334   0.44896   0.00000  Uiso   1.00
Br607  Br    0.25847   0.71455   0.45057   0.00000  Uiso   1.00
Br608  Br    0.07487   0.95212   0.54943   0.00000  Uiso   1.00
C609   C     0.50110   0.75341   0.50009   0.00000  Uiso   1.00
C610   C     0.49890   0.91325   0.49991   0.00000  Uiso   1.00
C611   C     0.40037   0.83330   0.48802   0.00000  Uiso   1.00
C612   C     0.59963   0.83336   0.51198   0.00000  Uiso   1.00
C613   C     0.34531   0.83330   0.48159   0.00000  Uiso   1.00
C614   C     0.65469   0.83337   0.51841   0.00000  Uiso   1.00
C615   C     0.53762   0.68747   0.47817   0.00000  Uiso   1.00
C616   C     0.46238   0.97919   0.52183   0.00000  Uiso   1.00
C617   C     0.53576   0.97779   0.47807   0.00000  Uiso   1.00
C618   C     0.46424   0.68888   0.52193   0.00000  Uiso   1.00
C619   C     0.49858   0.95737   0.49991   0.00000  Uiso   1.00
C620   C     0.50142   0.70930   0.50009   0.00000  Uiso   1.00
C621   C     0.53318   0.85898   0.36169   0.00000  Uiso   1.00
C622   C     0.46682   0.80768   0.63831   0.00000  Uiso   1.00
C623   C     0.53316   0.85898   0.64710   0.00000  Uiso   1.00
C624   C     0.46684   0.80769   0.35290   0.00000  Uiso   1.00
H625   H     0.65796   0.83323   0.44667   0.00000  Uiso   1.00
H626   H     0.34204   0.83344   0.55333   0.00000  Uiso   1.00
H627   H     0.56385   0.96022   0.46181   0.00000  Uiso   1.00
H628   H     0.43615   0.70645   0.53819   0.00000  Uiso   1.00
H629   H     0.55973   0.87951   0.38333   0.00000  Uiso   1.00
H630   H     0.44027   0.78715   0.61667   0.00000  Uiso   1.00
H631   H     0.55969   0.87950   0.63249   0.00000  Uiso   1.00
H632   H     0.44031   0.78716   0.36751   0.00000  Uiso   1.00
N633   N     0.49999   0.83332   0.61907   0.00000  Uiso   1.00
N634   N     0.50001   0.83334   0.38093   0.00000  Uiso   1.00
O635   O     0.50000   0.77225   0.53821   0.00000  Uiso   1.00
O636   O     0.50000   0.89442   0.46179   0.00000  Uiso   1.00
O637   O     0.50000   0.77226   0.46176   0.00000  Uiso   1.00
O638   O     0.50000   0.89441   0.53824   0.00000  Uiso   1.00
O639   O     0.42392   0.83333   0.52928   0.00000  Uiso   1.00
O640   O     0.57608   0.83334   0.47072   0.00000  Uiso   1.00
O641   O     0.42392   0.83334   0.45284   0.00000  Uiso   1.00
O642   O     0.57608   0.83333   0.54716   0.00000  Uiso   1.00
Zn643  Zn    0.50000   0.83333   0.55104   0.00000  Uiso   1.00
Zn644  Zn    0.50000   0.83334   0.44896   0.00000  Uiso   1.00
Br645  Br    0.59180   0.71455   0.45057   0.00000  Uiso   1.00
Br646  Br    0.40820   0.95212   0.54943   0.00000  Uiso   1.00
C647   C     0.83443   0.75341   0.50009   0.00000  Uiso   1.00
C648   C     0.83224   0.91325   0.49991   0.00000  Uiso   1.00
C649   C     0.73370   0.83330   0.48802   0.00000  Uiso   1.00
C650   C     0.93296   0.83336   0.51198   0.00000  Uiso   1.00
C651   C     0.67864   0.83330   0.48159   0.00000  Uiso   1.00
C652   C     0.98803   0.83337   0.51841   0.00000  Uiso   1.00
C653   C     0.87096   0.68747   0.47817   0.00000  Uiso   1.00
C654   C     0.79571   0.97919   0.52183   0.00000  Uiso   1.00
C655   C     0.86909   0.97779   0.47807   0.00000  Uiso   1.00
C656   C     0.79758   0.68888   0.52193   0.00000  Uiso   1.00
C657   C     0.83191   0.95737   0.49991   0.00000  Uiso   1.00
C658   C     0.83476   0.70930   0.50009   0.00000  Uiso   1.00
C659   C     0.86652   0.85898   0.36169   0.00000  Uiso   1.00
C660   C     0.80015   0.80768   0.63831   0.00000  Uiso   1.00
C661   C     0.86649   0.85898   0.64710   0.00000  Uiso   1.00
C662   C     0.80017   0.80769   0.35290   0.00000  Uiso   1.00
H663   H     0.99130   0.83323   0.44667   0.00000  Uiso   1.00
H664   H     0.67537   0.83344   0.55333   0.00000  Uiso   1.00
H665   H     0.89719   0.96022   0.46181   0.00000  Uiso   1.00
H666   H     0.76948   0.70645   0.53819   0.00000  Uiso   1.00
H667   H     0.89306   0.87951   0.38333   0.00000  Uiso   1.00
H668   H     0.77360   0.78715   0.61667   0.00000  Uiso   1.00
H669   H     0.89302   0.87950   0.63249   0.00000  Uiso   1.00
H670   H     0.77365   0.78716   0.36751   0.00000  Uiso   1.00
N671   N     0.83332   0.83332   0.61907   0.00000  Uiso   1.00
N672   N     0.83335   0.83334   0.38093   0.00000  Uiso   1.00
O673   O     0.83333   0.77225   0.53821   0.00000  Uiso   1.00
O674   O     0.83334   0.89442   0.46179   0.00000  Uiso   1.00
O675   O     0.83333   0.77226   0.46176   0.00000  Uiso   1.00
O676   O     0.83334   0.89441   0.53824   0.00000  Uiso   1.00
O677   O     0.75725   0.83333   0.52928   0.00000  Uiso   1.00
O678   O     0.90942   0.83334   0.47072   0.00000  Uiso   1.00
O679   O     0.75725   0.83334   0.45284   0.00000  Uiso   1.00
O680   O     0.90942   0.83333   0.54716   0.00000  Uiso   1.00
Zn681  Zn    0.83333   0.83333   0.55104   0.00000  Uiso   1.00
Zn682  Zn    0.83333   0.83334   0.44896   0.00000  Uiso   1.00
Br683  Br    0.92513   0.71455   0.45057   0.00000  Uiso   1.00
Br684  Br    0.74153   0.95212   0.54943   0.00000  Uiso   1.00
C685   C     0.16776   0.08675   0.83342   0.00000  Uiso   1.00
C686   C     0.16557   0.24659   0.83325   0.00000  Uiso   1.00
C687   C     0.06704   0.16664   0.82135   0.00000  Uiso   1.00
C688   C     0.26630   0.16670   0.84532   0.00000  Uiso   1.00
C689   C     0.01197   0.16663   0.81492   0.00000  Uiso   1.00
C690   C     0.32136   0.16670   0.85175   0.00000  Uiso   1.00
C691   C     0.20429   0.02081   0.81150   0.00000  Uiso   1.00
C692   C     0.12904   0.31253   0.85516   0.00000  Uiso   1.00
C693   C     0.20242   0.31112   0.81140   0.00000  Uiso   1.00
C694   C     0.13091   0.02221   0.85527   0.00000  Uiso   1.00
C695   C     0.16524   0.29070   0.83324   0.00000  Uiso   1.00
C696   C     0.16809   0.04263   0.83342   0.00000  Uiso   1.00
C697   C     0.19985   0.19232   0.69503   0.00000  Uiso   1.00
C698   C     0.13348   0.14101   0.97164   0.00000  Uiso   1.00
C699   C     0.19983   0.19231   0.98043   0.00000  Uiso   1.00
C700   C     0.13351   0.14102   0.68623   0.00000  Uiso   1.00
H701   H     0.32463   0.16656   0.78000   0.00000  Uiso   1.00
H702   H     0.00870   0.16677   0.88666   0.00000  Uiso   1.00
H703   H     0.23052   0.29355   0.79515   0.00000  Uiso   1.00
H704   H     0.10281   0.03978   0.87152   0.00000  Uiso   1.00
H705   H     0.22640   0.21285   0.71667   0.00000  Uiso   1.00
H706   H     0.10694   0.12049   0.95000   0.00000  Uiso   1.00
H707   H     0.22635   0.21284   0.96583   0.00000  Uiso   1.00
H708   H     0.10698   0.12050   0.70084   0.00000  Uiso   1.00
N709   N     0.16665   0.16666   0.95240   0.00000  Uiso   1.00
N710   N     0.16668   0.16668   0.71427   0.00000  Uiso   1.00
O711   O     0.16666   0.10558   0.87154   0.00000  Uiso   1.00
O712   O     0.16667   0.22775   0.79513   0.00000  Uiso   1.00
O713   O     0.16666   0.10559   0.79510   0.00000  Uiso   1.00
O714   O     0.16667   0.22774   0.87157   0.00000  Uiso   1.00
O715   O     0.09058   0.16666   0.86261   0.00000  Uiso   1.00
O716   O     0.24275   0.16667   0.80405   0.00000  Uiso   1.00
O717   O     0.09058   0.16667   0.78617   0.00000  Uiso   1.00
O718   O     0.24275   0.16666   0.88050   0.00000  Uiso   1.00
Zn719  Zn    0.16667   0.16666   0.88437   0.00000  Uiso   1.00
Zn720  Zn    0.16667   0.16667   0.78229   0.00000  Uiso   1.00
Br721  Br    0.25847   0.04788   0.78391   0.00000  Uiso   1.00
Br722  Br    0.07487   0.28545   0.88276   0.00000  Uiso   1.00
C723   C     0.50110   0.08675   0.83342   0.00000  Uiso   1.00
C724   C     0.49890   0.24659   0.83325   0.00000  Uiso   1.00
C725   C     0.40037   0.16664   0.82135   0.00000  Uiso   1.00
C726   C     0.59963   0.16670   0.84532   0.00000  Uiso   1.00
C727   C     0.34531   0.16663   0.81492   0.00000  Uiso   1.00
C728   C     0.65469   0.16670   0.85175   0.00000  Uiso   1.00
C729   C     0.53762   0.02081   0.81150   0.00000  Uiso   1.00
C730   C     0.46238   0.31253   0.85516   0.00000  Uiso   1.00
C731   C     0.53576   0.31112   0.81140   0.00000  Uiso   1.00
C732   C     0.46424   0.02221   0.85527   0.00000  Uiso   1.00
C733   C     0.49858   0.29070   0.83324   0.00000  Uiso   1.00
C734   C     0.50142   0.04263   0.83342   0.00000  Uiso   1.00
C735   C     0.53318   0.19232   0.69503   0.00000  Uiso   1.00
C736   C     0.46682   0.14101   0.97164   0.00000  Uiso   1.00
C737   C     0.53316   0.19231   0.98043   0.00000  Uiso   1.00
C738   C     0.46684   0.14102   0.68623   0.00000  Uiso   1.00
H739   H     0.65796   0.16656   0.78000   0.00000  Uiso   1.00
H740   H     0.34204   0.16677   0.88666   0.00000  Uiso   1.00
H741   H     0.56385   0.29355   0.79515   0.00000  Uiso   1.00
H742   H     0.43615   0.03978   0.87152   0.00000  Uiso   1.00
H743   H     0.55973   0.21285   0.71667   0.00000  Uiso   1.00
H744   H     0.44027   0.12049   0.95000   0.00000  Uiso   1.00
H745   H     0.55969   0.21284   0.96583   0.00000  Uiso   1.00
H746   H     0.44031   0.12050   0.70084   0.00000  Uiso   1.00
N747   N     0.49999   0.16666   0.95240   0.00000  Uiso   1.00
N748   N     0.50001   0.16668   0.71427   0.00000  Uiso   1.00
O749   O     0.50000   0.10558   0.87154   0.00000  Uiso   1.00
O750   O     0.50000   0.22775   0.79513   0.00000  Uiso   1.00
O751   O     0.50000   0.10559   0.79510   0.00000  Uiso   1.00
O752   O     0.50000   0.22774   0.87157   0.00000  Uiso   1.00
O753   O     0.42392   0.16666   0.86261   0.00000  Uiso   1.00
O754   O     0.57608   0.16667   0.80405   0.00000  Uiso   1.00
O755   O     0.42392   0.16667   0.78617   0.00000  Uiso   1.00
O756   O     0.57608   0.16666   0.88050   0.00000  Uiso   1.00
Zn757  Zn    0.50000   0.16666   0.88437   0.00000  Uiso   1.00
Zn758  Zn    0.50000   0.16667   0.78229   0.00000  Uiso   1.00
Br759  Br    0.59180   0.04788   0.78391   0.00000  Uiso   1.00
Br760  Br    0.40820   0.28545   0.88276   0.00000  Uiso   1.00
C761   C     0.83443   0.08675   0.83342   0.00000  Uiso   1.00
C762   C     0.83224   0.24659   0.83325   0.00000  Uiso   1.00
C763   C     0.73370   0.16664   0.82135   0.00000  Uiso   1.00
C764   C     0.93296   0.16670   0.84532   0.00000  Uiso   1.00
C765   C     0.67864   0.16663   0.81492   0.00000  Uiso   1.00
C766   C     0.98803   0.16670   0.85175   0.00000  Uiso   1.00
C767   C     0.87096   0.02081   0.81150   0.00000  Uiso   1.00
C768   C     0.79571   0.31253   0.85516   0.00000  Uiso   1.00
C769   C     0.86909   0.31112   0.81140   0.00000  Uiso   1.00
C770   C     0.79758   0.02221   0.85527   0.00000  Uiso   1.00
C771   C     0.83191   0.29070   0.83324   0.00000  Uiso   1.00
C772   C     0.83476   0.04263   0.83342   0.00000  Uiso   1.00
C773   C     0.86652   0.19232   0.69503   0.00000  Uiso   1.00
C774   C     0.80015   0.14101   0.97164   0.00000  Uiso   1.00
C775   C     0.86649   0.19231   0.98043   0.00000  Uiso   1.00
C776   C     0.80017   0.14102   0.68623   0.00000  Uiso   1.00
H777   H     0.99130   0.16656   0.78000   0.00000  Uiso   1.00
H778   H     0.67537   0.16677   0.88666   0.00000  Uiso   1.00
H779   H     0.89719   0.29355   0.79515   0.00000  Uiso   1.00
H780   H     0.76948   0.03978   0.87152   0.00000  Uiso   1.00
H781   H     0.89306   0.21285   0.71667   0.00000  Uiso   1.00
H782   H     0.77360   0.12049   0.95000   0.00000  Uiso   1.00
H783   H     0.89302   0.21284   0.96583   0.00000  Uiso   1.00
H784   H     0.77365   0.12050   0.70084   0.00000  Uiso   1.00
N785   N     0.83332   0.16666   0.95240   0.00000  Uiso   1.00
N786   N     0.83335   0.16668   0.71427   0.00000  Uiso   1.00
O787   O     0.83333   0.10558   0.87154   0.00000  Uiso   1.00
O788   O     0.83334   0.22775   0.79513   0.00000  Uiso   1.00
O789   O     0.83333   0.10559   0.79510   0.00000  Uiso   1.00
O790   O     0.83334   0.22774   0.87157   0.00000  Uiso   1.00
O791   O     0.75725   0.16666   0.86261   0.00000  Uiso   1.00
O792   O     0.90942   0.16667   0.80405   0.00000  Uiso   1.00
O793   O     0.75725   0.16667   0.78617   0.00000  Uiso   1.00
O794   O     0.90942   0.16666   0.88050   0.00000  Uiso   1.00
Zn795  Zn    0.83333   0.16666   0.88437   0.00000  Uiso   1.00
Zn796  Zn    0.83333   0.16667   0.78229   0.00000  Uiso   1.00
Br797  Br    0.92513   0.04788   0.78391   0.00000  Uiso   1.00
Br798  Br    0.74153   0.28545   0.88276   0.00000  Uiso   1.00
C799   C     0.16776   0.42008   0.83342   0.00000  Uiso   1.00
C800   C     0.16557   0.57992   0.83325   0.00000  Uiso   1.00
C801   C     0.06704   0.49997   0.82135   0.00000  Uiso   1.00
C802   C     0.26630   0.50003   0.84532   0.00000  Uiso   1.00
C803   C     0.01197   0.49996   0.81492   0.00000  Uiso   1.00
C804   C     0.32136   0.50004   0.85175   0.00000  Uiso   1.00
C805   C     0.20429   0.35414   0.81150   0.00000  Uiso   1.00
C806   C     0.12904   0.64586   0.85516   0.00000  Uiso   1.00
C807   C     0.20242   0.64445   0.81140   0.00000  Uiso   1.00
C808   C     0.13091   0.35555   0.85527   0.00000  Uiso   1.00
C809   C     0.16524   0.62403   0.83324   0.00000  Uiso   1.00
C810   C     0.16809   0.37597   0.83342   0.00000  Uiso   1.00
C811   C     0.19985   0.52565   0.69503   0.00000  Uiso   1.00
C812   C     0.13348   0.47435   0.97164   0.00000  Uiso   1.00
C813   C     0.19983   0.52564   0.98043   0.00000  Uiso   1.00
C814   C     0.13351   0.47435   0.68623   0.00000  Uiso   1.00
H815   H     0.32463   0.49990   0.78000   0.00000  Uiso   1.00
H816   H     0.00870   0.50010   0.88666   0.00000  Uiso   1.00
H817   H     0.23052   0.62689   0.79515   0.00000  Uiso   1.00
H818   H     0.10281   0.37311   0.87152   0.00000  Uiso   1.00
H819   H     0.22640   0.54618   0.71667   0.00000  Uiso   1.00
H820   H     0.10694   0.45382   0.95000   0.00000  Uiso   1.00
H821   H     0.22635   0.54617   0.96583   0.00000  Uiso   1.00
H822   H     0.10698   0.45383   0.70084   0.00000  Uiso   1.00
N823   N     0.16665   0.49999   0.95240   0.00000  Uiso   1.00
N824   N     0.16668   0.50001   0.71427   0.00000  Uiso   1.00
O825   O     0.16666   0.43892   0.87154   0.00000  Uiso   1.00
O826   O     0.16667   0.56108   0.79513   0.00000  Uiso   1.00
O827   O     0.16666   0.43893   0.79510   0.00000  Uiso   1.00
O828   O     0.16667   0.56107   0.87157   0.00000  Uiso   1.00
O829   O     0.09058   0.50000   0.86261   0.00000  Uiso   1.00
O830   O     0.24275   0.50000   0.80405   0.00000  Uiso   1.00
O831   O     0.09058   0.50000   0.78617   0.00000  Uiso   1.00
O832   O     0.24275   0.50000   0.88050   0.00000  Uiso   1.00
Zn833  Zn    0.16667   0.49999   0.88437   0.00000  Uiso   1.00
Zn834  Zn    0.16667   0.50001   0.78229   0.00000  Uiso   1.00
Br835  Br    0.25847   0.38121   0.78391   0.00000  Uiso   1.00
Br836  Br    0.07487   0.61879   0.88276   0.00000  Uiso   1.00
C837   C     0.50110   0.42008   0.83342   0.00000  Uiso   1.00
C838   C     0.49890   0.57992   0.83325   0.00000  Uiso   1.00
C839   C     0.40037   0.49997   0.82135   0.00000  Uiso   1.00
C840   C     0.59963   0.50003   0.84532   0.00000  Uiso   1.00
C841   C     0.34531   0.49996   0.81492   0.00000  Uiso   1.00
C842   C     0.65469   0.50004   0.85175   0.00000  Uiso   1.00
C843   C     0.53762   0.35414   0.81150   0.00000  Uiso   1.00
C844   C     0.46238   0.64586   0.85516   0.00000  Uiso   1.00
C845   C     0.53576   0.64445   0.81140   0.00000  Uiso   1.00
C846   C     0.46424   0.35555   0.85527   0.00000  Uiso   1.00
C847   C     0.49858   0.62403   0.83324   0.00000  Uiso   1.00
C848   C     0.50142   0.37597   0.83342   0.00000  Uiso   1.00
C849   C     0.53318   0.52565   0.69503   0.00000  Uiso   1.00
C850   C     0.46682   0.47435   0.97164   0.00000  Uiso   1.00
C851   C     0.53316   0.52564   0.98043   0.00000  Uiso   1.00
C852   C     0.46684   0.47435   0.68623   0.00000  Uiso   1.00
H853   H     0.65796   0.49990   0.78000   0.00000  Uiso   1.00
H854   H     0.34204   0.50010   0.88666   0.00000  Uiso   1.00
H855   H     0.56385   0.62689   0.79515   0.00000  Uiso   1.00
H856   H     0.43615   0.37311   0.87152   0.00000  Uiso   1.00
H857   H     0.55973   0.54618   0.71667   0.00000  Uiso   1.00
H858   H     0.44027   0.45382   0.95000   0.00000  Uiso   1.00
H859   H     0.55969   0.54617   0.96583   0.00000  Uiso   1.00
H860   H     0.44031   0.45383   0.70084   0.00000  Uiso   1.00
N861   N     0.49999   0.49999   0.95240   0.00000  Uiso   1.00
N862   N     0.50001   0.50001   0.71427   0.00000  Uiso   1.00
O863   O     0.50000   0.43892   0.87154   0.00000  Uiso   1.00
O864   O     0.50000   0.56108   0.79513   0.00000  Uiso   1.00
O865   O     0.50000   0.43893   0.79510   0.00000  Uiso   1.00
O866   O     0.50000   0.56107   0.87157   0.00000  Uiso   1.00
O867   O     0.42392   0.50000   0.86261   0.00000  Uiso   1.00
O868   O     0.57608   0.50000   0.80405   0.00000  Uiso   1.00
O869   O     0.42392   0.50000   0.78617   0.00000  Uiso   1.00
O870   O     0.57608   0.50000   0.88050   0.00000  Uiso   1.00
Zn871  Zn    0.50000   0.49999   0.88437   0.00000  Uiso   1.00
Zn872  Zn    0.50000   0.50001   0.78229   0.00000  Uiso   1.00
Br873  Br    0.59180   0.38121   0.78391   0.00000  Uiso   1.00
Br874  Br    0.40820   0.61879   0.88276   0.00000  Uiso   1.00
C875   C     0.83443   0.42008   0.83342   0.00000  Uiso   1.00
C876   C     0.83224   0.57992   0.83325   0.00000  Uiso   1.00
C877   C     0.73370   0.49997   0.82135   0.00000  Uiso   1.00
C878   C     0.93296   0.50003   0.84532   0.00000  Uiso   1.00
C879   C     0.67864   0.49996   0.81492   0.00000  Uiso   1.00
C880   C     0.98803   0.50004   0.85175   0.00000  Uiso   1.00
C881   C     0.87096   0.35414   0.81150   0.00000  Uiso   1.00
C882   C     0.79571   0.64586   0.85516   0.00000  Uiso   1.00
C883   C     0.86909   0.64445   0.81140   0.00000  Uiso   1.00
C884   C     0.79758   0.35555   0.85527   0.00000  Uiso   1.00
C885   C     0.83191   0.62403   0.83324   0.00000  Uiso   1.00
C886   C     0.83476   0.37597   0.83342   0.00000  Uiso   1.00
C887   C     0.86652   0.52565   0.69503   0.00000  Uiso   1.00
C888   C     0.80015   0.47435   0.97164   0.00000  Uiso   1.00
C889   C     0.86649   0.52564   0.98043   0.00000  Uiso   1.00
C890   C     0.80017   0.47435   0.68623   0.00000  Uiso   1.00
H891   H     0.99130   0.49990   0.78000   0.00000  Uiso   1.00
H892   H     0.67537   0.50010   0.88666   0.00000  Uiso   1.00
H893   H     0.89719   0.62689   0.79515   0.00000  Uiso   1.00
H894   H     0.76948   0.37311   0.87152   0.00000  Uiso   1.00
H895   H     0.89306   0.54618   0.71667   0.00000  Uiso   1.00
H896   H     0.77360   0.45382   0.95000   0.00000  Uiso   1.00
H897   H     0.89302   0.54617   0.96583   0.00000  Uiso   1.00
H898   H     0.77365   0.45383   0.70084   0.00000  Uiso   1.00
N899   N     0.83332   0.49999   0.95240   0.00000  Uiso   1.00
N900   N     0.83335   0.50001   0.71427   0.00000  Uiso   1.00
O901   O     0.83333   0.43892   0.87154   0.00000  Uiso   1.00
O902   O     0.83334   0.56108   0.79513   0.00000  Uiso   1.00
O903   O     0.83333   0.43893   0.79510   0.00000  Uiso   1.00
O904   O     0.83334   0.56107   0.87157   0.00000  Uiso   1.00
O905   O     0.75725   0.50000   0.86261   0.00000  Uiso   1.00
O906   O     0.90942   0.50000   0.80405   0.00000  Uiso   1.00
O907   O     0.75725   0.50000   0.78617   0.00000  Uiso   1.00
O908   O     0.90942   0.50000   0.88050   0.00000  Uiso   1.00
Zn909  Zn    0.83333   0.49999   0.88437   0.00000  Uiso   1.00
Zn910  Zn    0.83333   0.50001   0.78229   0.00000  Uiso   1.00
Br911  Br    0.92513   0.38121   0.78391   0.00000  Uiso   1.00
Br912  Br    0.74153   0.61879   0.88276   0.00000  Uiso   1.00
C913   C     0.16776   0.75341   0.83342   0.00000  Uiso   1.00
C914   C     0.16557   0.91325   0.83325   0.00000  Uiso   1.00
C915   C     0.06704   0.83330   0.82135   0.00000  Uiso   1.00
C916   C     0.26630   0.83336   0.84532   0.00000  Uiso   1.00
C917   C     0.01197   0.83330   0.81492   0.00000  Uiso   1.00
C918   C     0.32136   0.83337   0.85175   0.00000  Uiso   1.00
C919   C     0.20429   0.68747   0.81150   0.00000  Uiso   1.00
C920   C     0.12904   0.97919   0.85516   0.00000  Uiso   1.00
C921   C     0.20242   0.97779   0.81140   0.00000  Uiso   1.00
C922   C     0.13091   0.68888   0.85527   0.00000  Uiso   1.00
C923   C     0.16524   0.95737   0.83324   0.00000  Uiso   1.00
C924   C     0.16809   0.70930   0.83342   0.00000  Uiso   1.00
C925   C     0.19985   0.85898   0.69503   0.00000  Uiso   1.00
C926   C     0.13348   0.80768   0.97164   0.00000  Uiso   1.00
C927   C     0.19983   0.85898   0.98043   0.00000  Uiso   1.00
C928   C     0.13351   0.80769   0.68623   0.00000  Uiso   1.00
H929   H     0.32463   0.83323   0.78000   0.00000  Uiso   1.00
H930   H     0.00870   0.83344   0.88666   0.00000  Uiso   1.00
H931   H     0.23052   0.96022   0.79515   0.00000  Uiso   1.00
H932   H     0.10281   0.70645   0.87152   0.00000  Uiso   1.00
H933   H     0.22640   0.87951   0.71667   0.00000  Uiso   1.00
H934   H     0.10694   0.78715   0.95000   0.00000  Uiso   1.00
H935   H     0.22635   0.87950   0.96583   0.00000  Uiso   1.00
H936   H     0.10698   0.78716   0.70084   0.00000  Uiso   1.00
N937   N     0.16665   0.83332   0.95240   0.00000  Uiso   1.00
N938   N     0.16668   0.83334   0.71427   0.00000  Uiso   1.00
O939   O     0.16666   0.77225   0.87154   0.00000  Uiso   1.00
O940   O     0.16667   0.89442   0.79513   0.00000  Uiso   1.00
O941   O     0.16666   0.77226   0.79510   0.00000  Uiso   1.00
O942   O     0.16667   0.89441   0.87157   0.00000  Uiso   1.00
O943   O     0.09058   0.83333   0.86261   0.00000  Uiso   1.00
O944   O     0.24275   0.83334   0.80405   0.00000  Uiso   1.00
O945   O     0.09058   0.83334   0.78617   0.00000  Uiso   1.00
O946   O     0.24275   0.83333   0.88050   0.00000  Uiso   1.00
Zn947  Zn    0.16667   0.83333   0.88437   0.00000  Uiso   1.00
Zn948  Zn    0.16667   0.83334   0.78229   0.00000  Uiso   1.00
Br949  Br    0.25847   0.71455   0.78391   0.00000  Uiso   1.00
Br950  Br    0.07487   0.95212   0.88276   0.00000  Uiso   1.00
C951   C     0.50110   0.75341   0.83342   0.00000  Uiso   1.00
C952   C     0.49890   0.91325   0.83325   0.00000  Uiso   1.00
C953   C     0.40037   0.83330   0.82135   0.00000  Uiso   1.00
C954   C     0.59963   0.83336   0.84532   0.00000  Uiso   1.00
C955   C     0.34531   0.83330   0.81492   0.00000  Uiso   1.00
C956   C     0.65469   0.83337   0.85175   0.00000  Uiso   1.00
C957   C     0.53762   0.68747   0.81150   0.00000  Uiso   1.00
C958   C     0.46238   0.97919   0.85516   0.00000  Uiso   1.00
C959   C     0.53576   0.97779   0.81140   0.00000  Uiso   1.00
C960   C     0.46424   0.68888   0.85527   0.00000  Uiso   1.00
C961   C     0.49858   0.95737   0.83324   0.00000  Uiso   1.00
C962   C     0.50142   0.70930   0.83342   0.00000  Uiso   1.00
C963   C     0.53318   0.85898   0.69503   0.00000  Uiso   1.00
C964   C     0.46682   0.80768   0.97164   0.00000  Uiso   1.00
C965   C     0.53316   0.85898   0.98043   0.00000  Uiso   1.00
C966   C     0.46684   0.80769   0.68623   0.00000  Uiso   1.00
H967   H     0.65796   0.83323   0.78000   0.00000  Uiso   1.00
H968   H     0.34204   0.83344   0.88666   0.00000  Uiso   1.00
H969   H     0.56385   0.96022   0.79515   0.00000  Uiso   1.00
H970   H     0.43615   0.70645   0.87152   0.00000  Uiso   1.00
H971   H     0.55973   0.87951   0.71667   0.00000  Uiso   1.00
H972   H     0.44027   0.78715   0.95000   0.00000  Uiso   1.00
H973   H     0.55969   0.87950   0.96583   0.00000  Uiso   1.00
H974   H     0.44031   0.78716   0.70084   0.00000  Uiso   1.00
N975   N     0.49999   0.83332   0.95240   0.00000  Uiso   1.00
N976   N     0.50001   0.83334   0.71427   0.00000  Uiso   1.00
O977   O     0.50000   0.77225   0.87154   0.00000  Uiso   1.00
O978   O     0.50000   0.89442   0.79513   0.00000  Uiso   1.00
O979   O     0.50000   0.77226   0.79510   0.00000  Uiso   1.00
O980   O     0.50000   0.89441   0.87157   0.00000  Uiso   1.00
O981   O     0.42392   0.83333   0.86261   0.00000  Uiso   1.00
O982   O     0.57608   0.83334   0.80405   0.00000  Uiso   1.00
O983   O     0.42392   0.83334   0.78617   0.00000  Uiso   1.00
O984   O     0.57608   0.83333   0.88050   0.00000  Uiso   1.00
Zn985  Zn    0.50000   0.83333   0.88437   0.00000  Uiso   1.00
Zn986  Zn    0.50000   0.83334   0.78229   0.00000  Uiso   1.00
Br987  Br    0.59180   0.71455   0.78391   0.00000  Uiso   1.00
Br988  Br    0.40820   0.95212   0.88276   0.00000  Uiso   1.00
C989   C     0.83443   0.75341   0.83342   0.00000  Uiso   1.00
C990   C     0.83224   0.91325   0.83325   0.00000  Uiso   1.00
C991   C     0.73370   0.83330   0.82135   0.00000  Uiso   1.00
C992   C     0.93296   0.83336   0.84532   0.00000  Uiso   1.00
C993   C     0.67864   0.83330   0.81492   0.00000  Uiso   1.00
C994   C     0.98803   0.83337   0.85175   0.00000  Uiso   1.00
C995   C     0.87096   0.68747   0.81150   0.00000  Uiso   1.00
C996   C     0.79571   0.97919   0.85516   0.00000  Uiso   1.00
C997   C     0.86909   0.97779   0.81140   0.00000  Uiso   1.00
C998   C     0.79758   0.68888   0.85527   0.00000  Uiso   1.00
C999   C     0.83191   0.95737   0.83324   0.00000  Uiso   1.00
C1000  C     0.83476   0.70930   0.83342   0.00000  Uiso   1.00
C1001  C     0.86652   0.85898   0.69503   0.00000  Uiso   1.00
C1002  C     0.80015   0.80768   0.97164   0.00000  Uiso   1.00
C1003  C     0.86649   0.85898   0.98043   0.00000  Uiso   1.00
C1004  C     0.80017   0.80769   0.68623   0.00000  Uiso   1.00
H1005  H     0.99130   0.83323   0.78000   0.00000  Uiso   1.00
H1006  H     0.67537   0.83344   0.88666   0.00000  Uiso   1.00
H1007  H     0.89719   0.96022   0.79515   0.00000  Uiso   1.00
H1008  H     0.76948   0.70645   0.87152   0.00000  Uiso   1.00
H1009  H     0.89306   0.87951   0.71667   0.00000  Uiso   1.00
H1010  H     0.77360   0.78715   0.95000   0.00000  Uiso   1.00
H1011  H     0.89302   0.87950   0.96583   0.00000  Uiso   1.00
H1012  H     0.77365   0.78716   0.70084   0.00000  Uiso   1.00
N1013  N     0.83332   0.83332   0.95240   0.00000  Uiso   1.00
N1014  N     0.83335   0.83334   0.71427   0.00000  Uiso   1.00
O1015  O     0.83333   0.77225   0.87154   0.00000  Uiso   1.00
O1016  O     0.83334   0.89442   0.79513   0.00000  Uiso   1.00
O1017  O     0.83333   0.77226   0.79510   0.00000  Uiso   1.00
O1018  O     0.83334   0.89441   0.87157   0.00000  Uiso   1.00
O1019  O     0.75725   0.83333   0.86261   0.00000  Uiso   1.00
O1020  O     0.90942   0.83334   0.80405   0.00000  Uiso   1.00
O1021  O     0.75725   0.83334   0.78617   0.00000  Uiso   1.00
O1022  O     0.90942   0.83333   0.88050   0.00000  Uiso   1.00
Zn1023 Zn    0.83333   0.83333   0.88437   0.00000  Uiso   1.00
Zn1024 Zn    0.83333   0.83334   0.78229   0.00000  Uiso   1.00
Br1025 Br    0.92513   0.71455   0.78391   0.00000  Uiso   1.00
Br1026 Br    0.74153   0.95212   0.88276   0.00000  Uiso   1.00
loop_
_geom_bond_atom_site_label_1
_geom_bond_atom_site_label_2
_geom_bond_distance
_geom_bond_site_symmetry_2
_ccdc_geom_bond_type
C1     C12     1.408   .     S
C1     O29     1.280   .     A
C1     O27     1.281   .     A
C2     O30     1.280   .     A
C2     C11     1.408   .     S
C2     O28     1.281   .     A
C3     O31     1.278   .     A
C3     O33     1.281   .     A
C3     C5      1.403   .     S
C4     O34     1.281   .     A
C4     O32     1.278   .     A
C4     C6      1.403   .     S
C5     C82     1.331   1_455 S
C5     H93     1.088   1_455 S
C6     C43     1.331   .     S
C6     H56     1.088   .     S
C7     Br37    1.924   .     S
C7     C12     1.401   .     A
C7     C237    1.374   1_545 S
C8     C11     1.401   .     A
C8     Br38    1.924   .     S
C8     C124    1.374   .     S
C9     C11     1.394   .     A
C9     H19     1.085   .     S
C9     C121    1.374   .     S
C10    C12     1.394   .     A
C10    H20     1.085   .     S
C10    C236    1.374   1_545 S
C13    H21     1.082   .     S
C13    N26     1.367   .     A
C13    C699    1.417   1_554 S
C14    H22     1.082   .     S
C14    N25     1.367   .     A
C14    C358    1.417   .     S
C15    H23     1.082   .     S
C15    N25     1.367   .     A
C15    C355    1.417   .     S
C16    H24     1.082   .     S
C16    N26     1.367   .     A
C16    C698    1.417   1_554 S
H17    C43     1.088   .     S
H18    C82     1.088   1_455 S
N25    Zn35    2.012   .     S
N26    Zn36    2.012   .     S
O27    Zn35    1.985   .     S
O28    Zn36    1.985   .     S
O29    Zn36    1.986   .     S
O30    Zn35    1.986   .     S
O31    Zn35    1.969   .     S
O32    Zn36    1.969   .     S
O33    Zn36    1.981   .     S
O34    Zn35    1.981   .     S
C39    C50     1.408   .     S
C39    O67     1.280   .     A
C39    O65     1.281   .     A
C40    O68     1.280   .     A
C40    C49     1.408   .     S
C40    O66     1.281   .     A
C41    O69     1.278   .     A
C41    O71     1.281   .     A
C41    C43     1.403   .     S
C42    O72     1.281   .     A
C42    O70     1.278   .     A
C42    C44     1.403   .     S
C44    C81     1.331   .     S
C44    H94     1.088   .     S
C45    Br75    1.924   .     S
C45    C50     1.401   .     A
C45    C275    1.374   1_545 S
C46    C49     1.401   .     A
C46    Br76    1.924   .     S
C46    C162    1.374   .     S
C47    C49     1.394   .     A
C47    H57     1.085   .     S
C47    C159    1.374   .     S
C48    C50     1.394   .     A
C48    H58     1.085   .     S
C48    C274    1.374   1_545 S
C51    H59     1.082   .     S
C51    N64     1.367   .     A
C51    C737    1.417   1_554 S
C52    H60     1.082   .     S
C52    N63     1.367   .     A
C52    C396    1.417   .     S
C53    H61     1.082   .     S
C53    N63     1.367   .     A
C53    C393    1.417   .     S
C54    H62     1.082   .     S
C54    N64     1.367   .     A
C54    C736    1.417   1_554 S
H55    C81     1.088   .     S
N63    Zn73    2.012   .     S
N64    Zn74    2.012   .     S
O65    Zn73    1.985   .     S
O66    Zn74    1.985   .     S
O67    Zn74    1.986   .     S
O68    Zn73    1.986   .     S
O69    Zn73    1.969   .     S
O70    Zn74    1.969   .     S
O71    Zn74    1.981   .     S
O72    Zn73    1.981   .     S
C77    C88     1.408   .     S
C77    O105    1.280   .     A
C77    O103    1.281   .     A
C78    O106    1.280   .     A
C78    C87     1.408   .     S
C78    O104    1.281   .     A
C79    O107    1.278   .     A
C79    O109    1.281   .     A
C79    C81     1.403   .     S
C80    O110    1.281   .     A
C80    O108    1.278   .     A
C80    C82     1.403   .     S
C82    C5      1.331   1_655 S
C82    H18     1.088   1_655 S
C83    Br113   1.924   .     S
C83    C88     1.401   .     A
C83    C313    1.374   1_545 S
C84    C87     1.401   .     A
C84    Br114   1.924   .     S
C84    C200    1.374   .     S
C85    C87     1.394   .     A
C85    H95     1.085   .     S
C85    C197    1.374   .     S
C86    C88     1.394   .     A
C86    H96     1.085   .     S
C86    C312    1.374   1_545 S
C89    H97     1.082   .     S
C89    N102    1.367   .     A
C89    C775    1.417   1_554 S
C90    H98     1.082   .     S
C90    N101    1.367   .     A
C90    C434    1.417   .     S
C91    H99     1.082   .     S
C91    N101    1.367   .     A
C91    C431    1.417   .     S
C92    H100    1.082   .     S
C92    N102    1.367   .     A
C92    C774    1.417   1_554 S
H93    C5      1.088   1_655 S
N101   Zn111   2.012   .     S
N102   Zn112   2.012   .     S
O103   Zn111   1.985   .     S
O104   Zn112   1.985   .     S
O105   Zn112   1.986   .     S
O106   Zn111   1.986   .     S
O107   Zn111   1.969   .     S
O108   Zn112   1.969   .     S
O109   Zn112   1.981   .     S
O110   Zn111   1.981   .     S
C115   C126    1.408   .     S
C115   O143    1.280   .     A
C115   O141    1.281   .     A
C116   O144    1.280   .     A
C116   C125    1.408   .     S
C116   O142    1.281   .     A
C117   O145    1.278   .     A
C117   O147    1.281   .     A
C117   C119    1.403   .     S
C118   O148    1.281   .     A
C118   O146    1.278   .     A
C118   C120    1.403   .     S
C119   C196    1.331   1_455 S
C119   H207    1.088   1_455 S
C120   C157    1.331   .     S
C120   H170    1.088   .     S
C121   Br151   1.924   .     S
C121   C126    1.401   .     A
C122   C125    1.401   .     A
C122   Br152   1.924   .     S
C122   C238    1.374   .     S
C123   C125    1.394   .     A
C123   H133    1.085   .     S
C123   C235    1.374   .     S
C124   C126    1.394   .     A
C124   H134    1.085   .     S
C127   H135    1.082   .     S
C127   N140    1.367   .     A
C127   C813    1.417   1_554 S
C128   H136    1.082   .     S
C128   N139    1.367   .     A
C128   C472    1.417   .     S
C129   H137    1.082   .     S
C129   N139    1.367   .     A
C129   C469    1.417   .     S
C130   H138    1.082   .     S
C130   N140    1.367   .     A
C130   C812    1.417   1_554 S
H131   C157    1.088   .     S
H132   C196    1.088   1_455 S
N139   Zn149   2.012   .     S
N140   Zn150   2.012   .     S
O141   Zn149   1.985   .     S
O142   Zn150   1.985   .     S
O143   Zn150   1.986   .     S
O144   Zn149   1.986   .     S
O145   Zn149   1.969   .     S
O146   Zn150   1.969   .     S
O147   Zn150   1.981   .     S
O148   Zn149   1.981   .     S
C153   C164    1.408   .     S
C153   O181    1.280   .     A
C153   O179    1.281   .     A
C154   O182    1.280   .     A
C154   C163    1.408   .     S
C154   O180    1.281   .     A
C155   O183    1.278   .     A
C155   O185    1.281   .     A
C155   C157    1.403   .     S
C156   O186    1.281   .     A
C156   O184    1.278   .     A
C156   C158    1.403   .     S
C158   C195    1.331   .     S
C158   H208    1.088   .     S
C159   Br189   1.924   .     S
C159   C164    1.401   .     A
C160   C163    1.401   .     A
C160   Br190   1.924   .     S
C160   C276    1.374   .     S
C161   C163    1.394   .     A
C161   H171    1.085   .     S
C161   C273    1.374   .     S
C162   C164    1.394   .     A
C162   H172    1.085   .     S
C165   H173    1.082   .     S
C165   N178    1.367   .     A
C165   C851    1.417   1_554 S
C166   H174    1.082   .     S
C166   N177    1.367   .     A
C166   C510    1.417   .     S
C167   H175    1.082   .     S
C167   N177    1.367   .     A
C167   C507    1.417   .     S
C168   H176    1.082   .     S
C168   N178    1.367   .     A
C168   C850    1.417   1_554 S
H169   C195    1.088   .     S
N177   Zn187   2.012   .     S
N178   Zn188   2.012   .     S
O179   Zn187   1.985   .     S
O180   Zn188   1.985   .     S
O181   Zn188   1.986   .     S
O182   Zn187   1.986   .     S
O183   Zn187   1.969   .     S
O184   Zn188   1.969   .     S
O185   Zn188   1.981   .     S
O186   Zn187   1.981   .     S
C191   C202    1.408   .     S
C191   O219    1.280   .     A
C191   O217    1.281   .     A
C192   O220    1.280   .     A
C192   C201    1.408   .     S
C192   O218    1.281   .     A
C193   O221    1.278   .     A
C193   O223    1.281   .     A
C193   C195    1.403   .     S
C194   O224    1.281   .     A
C194   O222    1.278   .     A
C194   C196    1.403   .     S
C196   C119    1.331   1_655 S
C196   H132    1.088   1_655 S
C197   Br227   1.924   .     S
C197   C202    1.401   .     A
C198   C201    1.401   .     A
C198   Br228   1.924   .     S
C198   C314    1.374   .     S
C199   C201    1.394   .     A
C199   H209    1.085   .     S
C199   C311    1.374   .     S
C200   C202    1.394   .     A
C200   H210    1.085   .     S
C203   H211    1.082   .     S
C203   N216    1.367   .     A
C203   C889    1.417   1_554 S
C204   H212    1.082   .     S
C204   N215    1.367   .     A
C204   C548    1.417   .     S
C205   H213    1.082   .     S
C205   N215    1.367   .     A
C205   C545    1.417   .     S
C206   H214    1.082   .     S
C206   N216    1.367   .     A
C206   C888    1.417   1_554 S
H207   C119    1.088   1_655 S
N215   Zn225   2.012   .     S
N216   Zn226   2.012   .     S
O217   Zn225   1.985   .     S
O218   Zn226   1.985   .     S
O219   Zn226   1.986   .     S
O220   Zn225   1.986   .     S
O221   Zn225   1.969   .     S
O222   Zn226   1.969   .     S
O223   Zn226   1.981   .     S
O224   Zn225   1.981   .     S
C229   C240    1.408   .     S
C229   O257    1.280   .     A
C229   O255    1.281   .     A
C230   O258    1.280   .     A
C230   C239    1.408   .     S
C230   O256    1.281   .     A
C231   O259    1.278   .     A
C231   O261    1.281   .     A
C231   C233    1.403   .     S
C232   O262    1.281   .     A
C232   O260    1.278   .     A
C232   C234    1.403   .     S
C233   C310    1.331   1_455 S
C233   H321    1.088   1_455 S
C234   C271    1.331   .     S
C234   H284    1.088   .     S
C235   Br265   1.924   .     S
C235   C240    1.401   .     A
C236   C239    1.401   .     A
C236   Br266   1.924   .     S
C236   C10     1.374   1_565 S
C237   C239    1.394   .     A
C237   H247    1.085   .     S
C237   C7      1.374   1_565 S
C238   C240    1.394   .     A
C238   H248    1.085   .     S
C241   H249    1.082   .     S
C241   N254    1.367   .     A
C241   C927    1.417   1_554 S
C242   H250    1.082   .     S
C242   N253    1.367   .     A
C242   C586    1.417   .     S
C243   H251    1.082   .     S
C243   N253    1.367   .     A
C243   C583    1.417   .     S
C244   H252    1.082   .     S
C244   N254    1.367   .     A
C244   C926    1.417   1_554 S
H245   C271    1.088   .     S
H246   C310    1.088   1_455 S
N253   Zn263   2.012   .     S
N254   Zn264   2.012   .     S
O255   Zn263   1.985   .     S
O256   Zn264   1.985   .     S
O257   Zn264   1.986   .     S
O258   Zn263   1.986   .     S
O259   Zn263   1.969   .     S
O260   Zn264   1.969   .     S
O261   Zn264   1.981   .     S
O262   Zn263   1.981   .     S
C267   C278    1.408   .     S
C267   O295    1.280   .     A
C267   O293    1.281   .     A
C268   O296    1.280   .     A
C268   C277    1.408   .     S
C268   O294    1.281   .     A
C269   O297    1.278   .     A
C269   O299    1.281   .     A
C269   C271    1.403   .     S
C270   O300    1.281   .     A
C270   O298    1.278   .     A
C270   C272    1.403   .     S
C272   C309    1.331   .     S
C272   H322    1.088   .     S
C273   Br303   1.924   .     S
C273   C278    1.401   .     A
C274   C277    1.401   .     A
C274   Br304   1.924   .     S
C274   C48     1.374   1_565 S
C275   C277    1.394   .     A
C275   H285    1.085   .     S
C275   C45     1.374   1_565 S
C276   C278    1.394   .     A
C276   H286    1.085   .     S
C279   H287    1.082   .     S
C279   N292    1.367   .     A
C279   C965    1.417   1_554 S
C280   H288    1.082   .     S
C280   N291    1.367   .     A
C280   C624    1.417   .     S
C281   H289    1.082   .     S
C281   N291    1.367   .     A
C281   C621    1.417   .     S
C282   H290    1.082   .     S
C282   N292    1.367   .     A
C282   C964    1.417   1_554 S
H283   C309    1.088   .     S
N291   Zn301   2.012   .     S
N292   Zn302   2.012   .     S
O293   Zn301   1.985   .     S
O294   Zn302   1.985   .     S
O295   Zn302   1.986   .     S
O296   Zn301   1.986   .     S
O297   Zn301   1.969   .     S
O298   Zn302   1.969   .     S
O299   Zn302   1.981   .     S
O300   Zn301   1.981   .     S
C305   C316    1.408   .     S
C305   O333    1.280   .     A
C305   O331    1.281   .     A
C306   O334    1.280   .     A
C306   C315    1.408   .     S
C306   O332    1.281   .     A
C307   O335    1.278   .     A
C307   O337    1.281   .     A
C307   C309    1.403   .     S
C308   O338    1.281   .     A
C308   O336    1.278   .     A
C308   C310    1.403   .     S
C310   C233    1.331   1_655 S
C310   H246    1.088   1_655 S
C311   Br341   1.924   .     S
C311   C316    1.401   .     A
C312   C315    1.401   .     A
C312   Br342   1.924   .     S
C312   C86     1.374   1_565 S
C313   C315    1.394   .     A
C313   H323    1.085   .     S
C313   C83     1.374   1_565 S
C314   C316    1.394   .     A
C314   H324    1.085   .     S
C317   H325    1.082   .     S
C317   N330    1.367   .     A
C317   C1003   1.417   1_554 S
C318   H326    1.082   .     S
C318   N329    1.367   .     A
C318   C662    1.417   .     S
C319   H327    1.082   .     S
C319   N329    1.367   .     A
C319   C659    1.417   .     S
C320   H328    1.082   .     S
C320   N330    1.367   .     A
C320   C1002   1.417   1_554 S
H321   C233    1.088   1_655 S
N329   Zn339   2.012   .     S
N330   Zn340   2.012   .     S
O331   Zn339   1.985   .     S
O332   Zn340   1.985   .     S
O333   Zn340   1.986   .     S
O334   Zn339   1.986   .     S
O335   Zn339   1.969   .     S
O336   Zn340   1.969   .     S
O337   Zn340   1.981   .     S
O338   Zn339   1.981   .     S
C343   C354    1.408   .     S
C343   O371    1.280   .     A
C343   O369    1.281   .     A
C344   O372    1.280   .     A
C344   C353    1.408   .     S
C344   O370    1.281   .     A
C345   O373    1.278   .     A
C345   O375    1.281   .     A
C345   C347    1.403   .     S
C346   O376    1.281   .     A
C346   O374    1.278   .     A
C346   C348    1.403   .     S
C347   C424    1.331   1_455 S
C347   H435    1.088   1_455 S
C348   C385    1.331   .     S
C348   H398    1.088   .     S
C349   Br379   1.924   .     S
C349   C354    1.401   .     A
C349   C579    1.374   1_545 S
C350   C353    1.401   .     A
C350   Br380   1.924   .     S
C350   C466    1.374   .     S
C351   C353    1.394   .     A
C351   H361    1.085   .     S
C351   C463    1.374   .     S
C352   C354    1.394   .     A
C352   H362    1.085   .     S
C352   C578    1.374   1_545 S
C355   H363    1.082   .     S
C355   N368    1.367   .     A
C356   H364    1.082   .     S
C356   N367    1.367   .     A
C356   C700    1.417   .     S
C357   H365    1.082   .     S
C357   N367    1.367   .     A
C357   C697    1.417   .     S
C358   H366    1.082   .     S
C358   N368    1.367   .     A
H359   C385    1.088   .     S
H360   C424    1.088   1_455 S
N367   Zn377   2.012   .     S
N368   Zn378   2.012   .     S
O369   Zn377   1.985   .     S
O370   Zn378   1.985   .     S
O371   Zn378   1.986   .     S
O372   Zn377   1.986   .     S
O373   Zn377   1.969   .     S
O374   Zn378   1.969   .     S
O375   Zn378   1.981   .     S
O376   Zn377   1.981   .     S
C381   C392    1.408   .     S
C381   O409    1.280   .     A
C381   O407    1.281   .     A
C382   O410    1.280   .     A
C382   C391    1.408   .     S
C382   O408    1.281   .     A
C383   O411    1.278   .     A
C383   O413    1.281   .     A
C383   C385    1.403   .     S
C384   O414    1.281   .     A
C384   O412    1.278   .     A
C384   C386    1.403   .     S
C386   C423    1.331   .     S
C386   H436    1.088   .     S
C387   Br417   1.924   .     S
C387   C392    1.401   .     A
C387   C617    1.374   1_545 S
C388   C391    1.401   .     A
C388   Br418   1.924   .     S
C388   C504    1.374   .     S
C389   C391    1.394   .     A
C389   H399    1.085   .     S
C389   C501    1.374   .     S
C390   C392    1.394   .     A
C390   H400    1.085   .     S
C390   C616    1.374   1_545 S
C393   H401    1.082   .     S
C393   N406    1.367   .     A
C394   H402    1.082   .     S
C394   N405    1.367   .     A
C394   C738    1.417   .     S
C395   H403    1.082   .     S
C395   N405    1.367   .     A
C395   C735    1.417   .     S
C396   H404    1.082   .     S
C396   N406    1.367   .     A
H397   C423    1.088   .     S
N405   Zn415   2.012   .     S
N406   Zn416   2.012   .     S
O407   Zn415   1.985   .     S
O408   Zn416   1.985   .     S
O409   Zn416   1.986   .     S
O410   Zn415   1.986   .     S
O411   Zn415   1.969   .     S
O412   Zn416   1.969   .     S
O413   Zn416   1.981   .     S
O414   Zn415   1.981   .     S
C419   C430    1.408   .     S
C419   O447    1.280   .     A
C419   O445    1.281   .     A
C420   O448    1.280   .     A
C420   C429    1.408   .     S
C420   O446    1.281   .     A
C421   O449    1.278   .     A
C421   O451    1.281   .     A
C421   C423    1.403   .     S
C422   O452    1.281   .     A
C422   O450    1.278   .     A
C422   C424    1.403   .     S
C424   C347    1.331   1_655 S
C424   H360    1.088   1_655 S
C425   Br455   1.924   .     S
C425   C430    1.401   .     A
C425   C655    1.374   1_545 S
C426   C429    1.401   .     A
C426   Br456   1.924   .     S
C426   C542    1.374   .     S
C427   C429    1.394   .     A
C427   H437    1.085   .     S
C427   C539    1.374   .     S
C428   C430    1.394   .     A
C428   H438    1.085   .     S
C428   C654    1.374   1_545 S
C431   H439    1.082   .     S
C431   N444    1.367   .     A
C432   H440    1.082   .     S
C432   N443    1.367   .     A
C432   C776    1.417   .     S
C433   H441    1.082   .     S
C433   N443    1.367   .     A
C433   C773    1.417   .     S
C434   H442    1.082   .     S
C434   N444    1.367   .     A
H435   C347    1.088   1_655 S
N443   Zn453   2.012   .     S
N444   Zn454   2.012   .     S
O445   Zn453   1.985   .     S
O446   Zn454   1.985   .     S
O447   Zn454   1.986   .     S
O448   Zn453   1.986   .     S
O449   Zn453   1.969   .     S
O450   Zn454   1.969   .     S
O451   Zn454   1.981   .     S
O452   Zn453   1.981   .     S
C457   C468    1.408   .     S
C457   O485    1.280   .     A
C457   O483    1.281   .     A
C458   O486    1.280   .     A
C458   C467    1.408   .     S
C458   O484    1.281   .     A
C459   O487    1.278   .     A
C459   O489    1.281   .     A
C459   C461    1.403   .     S
C460   O490    1.281   .     A
C460   O488    1.278   .     A
C460   C462    1.403   .     S
C461   C538    1.331   1_455 S
C461   H549    1.088   1_455 S
C462   C499    1.331   .     S
C462   H512    1.088   .     S
C463   Br493   1.924   .     S
C463   C468    1.401   .     A
C464   C467    1.401   .     A
C464   Br494   1.924   .     S
C464   C580    1.374   .     S
C465   C467    1.394   .     A
C465   H475    1.085   .     S
C465   C577    1.374   .     S
C466   C468    1.394   .     A
C466   H476    1.085   .     S
C469   H477    1.082   .     S
C469   N482    1.367   .     A
C470   H478    1.082   .     S
C470   N481    1.367   .     A
C470   C814    1.417   .     S
C471   H479    1.082   .     S
C471   N481    1.367   .     A
C471   C811    1.417   .     S
C472   H480    1.082   .     S
C472   N482    1.367   .     A
H473   C499    1.088   .     S
H474   C538    1.088   1_455 S
N481   Zn491   2.012   .     S
N482   Zn492   2.012   .     S
O483   Zn491   1.985   .     S
O484   Zn492   1.985   .     S
O485   Zn492   1.986   .     S
O486   Zn491   1.986   .     S
O487   Zn491   1.969   .     S
O488   Zn492   1.969   .     S
O489   Zn492   1.981   .     S
O490   Zn491   1.981   .     S
C495   C506    1.408   .     S
C495   O523    1.280   .     A
C495   O521    1.281   .     A
C496   O524    1.280   .     A
C496   C505    1.408   .     S
C496   O522    1.281   .     A
C497   O525    1.278   .     A
C497   O527    1.281   .     A
C497   C499    1.403   .     S
C498   O528    1.281   .     A
C498   O526    1.278   .     A
C498   C500    1.403   .     S
C500   C537    1.331   .     S
C500   H550    1.088   .     S
C501   Br531   1.924   .     S
C501   C506    1.401   .     A
C502   C505    1.401   .     A
C502   Br532   1.924   .     S
C502   C618    1.374   .     S
C503   C505    1.394   .     A
C503   H513    1.085   .     S
C503   C615    1.374   .     S
C504   C506    1.394   .     A
C504   H514    1.085   .     S
C507   H515    1.082   .     S
C507   N520    1.367   .     A
C508   H516    1.082   .     S
C508   N519    1.367   .     A
C508   C852    1.417   .     S
C509   H517    1.082   .     S
C509   N519    1.367   .     A
C509   C849    1.417   .     S
C510   H518    1.082   .     S
C510   N520    1.367   .     A
H511   C537    1.088   .     S
N519   Zn529   2.012   .     S
N520   Zn530   2.012   .     S
O521   Zn529   1.985   .     S
O522   Zn530   1.985   .     S
O523   Zn530   1.986   .     S
O524   Zn529   1.986   .     S
O525   Zn529   1.969   .     S
O526   Zn530   1.969   .     S
O527   Zn530   1.981   .     S
O528   Zn529   1.981   .     S
C533   C544    1.408   .     S
C533   O561    1.280   .     A
C533   O559    1.281   .     A
C534   O562    1.280   .     A
C534   C543    1.408   .     S
C534   O560    1.281   .     A
C535   O563    1.278   .     A
C535   O565    1.281   .     A
C535   C537    1.403   .     S
C536   O566    1.281   .     A
C536   O564    1.278   .     A
C536   C538    1.403   .     S
C538   C461    1.331   1_655 S
C538   H474    1.088   1_655 S
C539   Br569   1.924   .     S
C539   C544    1.401   .     A
C540   C543    1.401   .     A
C540   Br570   1.924   .     S
C540   C656    1.374   .     S
C541   C543    1.394   .     A
C541   H551    1.085   .     S
C541   C653    1.374   .     S
C542   C544    1.394   .     A
C542   H552    1.085   .     S
C545   H553    1.082   .     S
C545   N558    1.367   .     A
C546   H554    1.082   .     S
C546   N557    1.367   .     A
C546   C890    1.417   .     S
C547   H555    1.082   .     S
C547   N557    1.367   .     A
C547   C887    1.417   .     S
C548   H556    1.082   .     S
C548   N558    1.367   .     A
H549   C461    1.088   1_655 S
N557   Zn567   2.012   .     S
N558   Zn568   2.012   .     S
O559   Zn567   1.985   .     S
O560   Zn568   1.985   .     S
O561   Zn568   1.986   .     S
O562   Zn567   1.986   .     S
O563   Zn567   1.969   .     S
O564   Zn568   1.969   .     S
O565   Zn568   1.981   .     S
O566   Zn567   1.981   .     S
C571   C582    1.408   .     S
C571   O599    1.280   .     A
C571   O597    1.281   .     A
C572   O600    1.280   .     A
C572   C581    1.408   .     S
C572   O598    1.281   .     A
C573   O601    1.278   .     A
C573   O603    1.281   .     A
C573   C575    1.403   .     S
C574   O604    1.281   .     A
C574   O602    1.278   .     A
C574   C576    1.403   .     S
C575   C652    1.331   1_455 S
C575   H663    1.088   1_455 S
C576   C613    1.331   .     S
C576   H626    1.088   .     S
C577   Br607   1.924   .     S
C577   C582    1.401   .     A
C578   C581    1.401   .     A
C578   Br608   1.924   .     S
C578   C352    1.374   1_565 S
C579   C581    1.394   .     A
C579   H589    1.085   .     S
C579   C349    1.374   1_565 S
C580   C582    1.394   .     A
C580   H590    1.085   .     S
C583   H591    1.082   .     S
C583   N596    1.367   .     A
C584   H592    1.082   .     S
C584   N595    1.367   .     A
C584   C928    1.417   .     S
C585   H593    1.082   .     S
C585   N595    1.367   .     A
C585   C925    1.417   .     S
C586   H594    1.082   .     S
C586   N596    1.367   .     A
H587   C613    1.088   .     S
H588   C652    1.088   1_455 S
N595   Zn605   2.012   .     S
N596   Zn606   2.012   .     S
O597   Zn605   1.985   .     S
O598   Zn606   1.985   .     S
O599   Zn606   1.986   .     S
O600   Zn605   1.986   .     S
O601   Zn605   1.969   .     S
O602   Zn606   1.969   .     S
O603   Zn606   1.981   .     S
O604   Zn605   1.981   .     S
C609   C620    1.408   .     S
C609   O637    1.280   .     A
C609   O635    1.281   .     A
C610   O638    1.280   .     A
C610   C619    1.408   .     S
C610   O636    1.281   .     A
C611   O639    1.278   .     A
C611   O641    1.281   .     A
C611   C613    1.403   .     S
C612   O642    1.281   .     A
C612   O640    1.278   .     A
C612   C614    1.403   .     S
C614   C651    1.331   .     S
C614   H664    1.088   .     S
C615   Br645   1.924   .     S
C615   C620    1.401   .     A
C616   C619    1.401   .     A
C616   Br646   1.924   .     S
C616   C390    1.374   1_565 S
C617   C619    1.394   .     A
C617   H627    1.085   .     S
C617   C387    1.374   1_565 S
C618   C620    1.394   .     A
C618   H628    1.085   .     S
C621   H629    1.082   .     S
C621   N634    1.367   .     A
C622   H630    1.082   .     S
C622   N633    1.367   .     A
C622   C966    1.417   .     S
C623   H631    1.082   .     S
C623   N633    1.367   .     A
C623   C963    1.417   .     S
C624   H632    1.082   .     S
C624   N634    1.367   .     A
H625   C651    1.088   .     S
N633   Zn643   2.012   .     S
N634   Zn644   2.012   .     S
O635   Zn643   1.985   .     S
O636   Zn644   1.985   .     S
O637   Zn644   1.986   .     S
O638   Zn643   1.986   .     S
O639   Zn643   1.969   .     S
O640   Zn644   1.969   .     S
O641   Zn644   1.981   .     S
O642   Zn643   1.981   .     S
C647   C658    1.408   .     S
C647   O675    1.280   .     A
C647   O673    1.281   .     A
C648   O676    1.280   .     A
C648   C657    1.408   .     S
C648   O674    1.281   .     A
C649   O677    1.278   .     A
C649   O679    1.281   .     A
C649   C651    1.403   .     S
C650   O680    1.281   .     A
C650   O678    1.278   .     A
C650   C652    1.403   .     S
C652   C575    1.331   1_655 S
C652   H588    1.088   1_655 S
C653   Br683   1.924   .     S
C653   C658    1.401   .     A
C654   C657    1.401   .     A
C654   Br684   1.924   .     S
C654   C428    1.374   1_565 S
C655   C657    1.394   .     A
C655   H665    1.085   .     S
C655   C425    1.374   1_565 S
C656   C658    1.394   .     A
C656   H666    1.085   .     S
C659   H667    1.082   .     S
C659   N672    1.367   .     A
C660   H668    1.082   .     S
C660   N671    1.367   .     A
C660   C1004   1.417   .     S
C661   H669    1.082   .     S
C661   N671    1.367   .     A
C661   C1001   1.417   .     S
C662   H670    1.082   .     S
C662   N672    1.367   .     A
H663   C575    1.088   1_655 S
N671   Zn681   2.012   .     S
N672   Zn682   2.012   .     S
O673   Zn681   1.985   .     S
O674   Zn682   1.985   .     S
O675   Zn682   1.986   .     S
O676   Zn681   1.986   .     S
O677   Zn681   1.969   .     S
O678   Zn682   1.969   .     S
O679   Zn682   1.981   .     S
O680   Zn681   1.981   .     S
C685   C696    1.408   .     S
C685   O713    1.280   .     A
C685   O711    1.281   .     A
C686   O714    1.280   .     A
C686   C695    1.408   .     S
C686   O712    1.281   .     A
C687   O715    1.278   .     A
C687   O717    1.281   .     A
C687   C689    1.403   .     S
C688   O718    1.281   .     A
C688   O716    1.278   .     A
C688   C690    1.403   .     S
C689   C766    1.331   1_455 S
C689   H777    1.088   1_455 S
C690   C727    1.331   .     S
C690   H740    1.088   .     S
C691   Br721   1.924   .     S
C691   C696    1.401   .     A
C691   C921    1.374   1_545 S
C692   C695    1.401   .     A
C692   Br722   1.924   .     S
C692   C808    1.374   .     S
C693   C695    1.394   .     A
C693   H703    1.085   .     S
C693   C805    1.374   .     S
C694   C696    1.394   .     A
C694   H704    1.085   .     S
C694   C920    1.374   1_545 S
C697   H705    1.082   .     S
C697   N710    1.367   .     A
C698   H706    1.082   .     S
C698   N709    1.367   .     A
C698   C16     1.417   1_556 S
C699   H707    1.082   .     S
C699   N709    1.367   .     A
C699   C13     1.417   1_556 S
C700   H708    1.082   .     S
C700   N710    1.367   .     A
H701   C727    1.088   .     S
H702   C766    1.088   1_455 S
N709   Zn719   2.012   .     S
N710   Zn720   2.012   .     S
O711   Zn719   1.985   .     S
O712   Zn720   1.985   .     S
O713   Zn720   1.986   .     S
O714   Zn719   1.986   .     S
O715   Zn719   1.969   .     S
O716   Zn720   1.969   .     S
O717   Zn720   1.981   .     S
O718   Zn719   1.981   .     S
C723   C734    1.408   .     S
C723   O751    1.280   .     A
C723   O749    1.281   .     A
C724   O752    1.280   .     A
C724   C733    1.408   .     S
C724   O750    1.281   .     A
C725   O753    1.278   .     A
C725   O755    1.281   .     A
C725   C727    1.403   .     S
C726   O756    1.281   .     A
C726   O754    1.278   .     A
C726   C728    1.403   .     S
C728   C765    1.331   .     S
C728   H778    1.088   .     S
C729   Br759   1.924   .     S
C729   C734    1.401   .     A
C729   C959    1.374   1_545 S
C730   C733    1.401   .     A
C730   Br760   1.924   .     S
C730   C846    1.374   .     S
C731   C733    1.394   .     A
C731   H741    1.085   .     S
C731   C843    1.374   .     S
C732   C734    1.394   .     A
C732   H742    1.085   .     S
C732   C958    1.374   1_545 S
C735   H743    1.082   .     S
C735   N748    1.367   .     A
C736   H744    1.082   .     S
C736   N747    1.367   .     A
C736   C54     1.417   1_556 S
C737   H745    1.082   .     S
C737   N747    1.367   .     A
C737   C51     1.417   1_556 S
C738   H746    1.082   .     S
C738   N748    1.367   .     A
H739   C765    1.088   .     S
N747   Zn757   2.012   .     S
N748   Zn758   2.012   .     S
O749   Zn757   1.985   .     S
O750   Zn758   1.985   .     S
O751   Zn758   1.986   .     S
O752   Zn757   1.986   .     S
O753   Zn757   1.969   .     S
O754   Zn758   1.969   .     S
O755   Zn758   1.981   .     S
O756   Zn757   1.981   .     S
C761   C772    1.408   .     S
C761   O789    1.280   .     A
C761   O787    1.281   .     A
C762   O790    1.280   .     A
C762   C771    1.408   .     S
C762   O788    1.281   .     A
C763   O791    1.278   .     A
C763   O793    1.281   .     A
C763   C765    1.403   .     S
C764   O794    1.281   .     A
C764   O792    1.278   .     A
C764   C766    1.403   .     S
C766   C689    1.331   1_655 S
C766   H702    1.088   1_655 S
C767   Br797   1.924   .     S
C767   C772    1.401   .     A
C767   C997    1.374   1_545 S
C768   C771    1.401   .     A
C768   Br798   1.924   .     S
C768   C884    1.374   .     S
C769   C771    1.394   .     A
C769   H779    1.085   .     S
C769   C881    1.374   .     S
C770   C772    1.394   .     A
C770   H780    1.085   .     S
C770   C996    1.374   1_545 S
C773   H781    1.082   .     S
C773   N786    1.367   .     A
C774   H782    1.082   .     S
C774   N785    1.367   .     A
C774   C92     1.417   1_556 S
C775   H783    1.082   .     S
C775   N785    1.367   .     A
C775   C89     1.417   1_556 S
C776   H784    1.082   .     S
C776   N786    1.367   .     A
H777   C689    1.088   1_655 S
N785   Zn795   2.012   .     S
N786   Zn796   2.012   .     S
O787   Zn795   1.985   .     S
O788   Zn796   1.985   .     S
O789   Zn796   1.986   .     S
O790   Zn795   1.986   .     S
O791   Zn795   1.969   .     S
O792   Zn796   1.969   .     S
O793   Zn796   1.981   .     S
O794   Zn795   1.981   .     S
C799   C810    1.408   .     S
C799   O827    1.280   .     A
C799   O825    1.281   .     A
C800   O828    1.280   .     A
C800   C809    1.408   .     S
C800   O826    1.281   .     A
C801   O829    1.278   .     A
C801   O831    1.281   .     A
C801   C803    1.403   .     S
C802   O832    1.281   .     A
C802   O830    1.278   .     A
C802   C804    1.403   .     S
C803   C880    1.331   1_455 S
C803   H891    1.088   1_455 S
C804   C841    1.331   .     S
C804   H854    1.088   .     S
C805   Br835   1.924   .     S
C805   C810    1.401   .     A
C806   C809    1.401   .     A
C806   Br836   1.924   .     S
C806   C922    1.374   .     S
C807   C809    1.394   .     A
C807   H817    1.085   .     S
C807   C919    1.374   .     S
C808   C810    1.394   .     A
C808   H818    1.085   .     S
C811   H819    1.082   .     S
C811   N824    1.367   .     A
C812   H820    1.082   .     S
C812   N823    1.367   .     A
C812   C130    1.417   1_556 S
C813   H821    1.082   .     S
C813   N823    1.367   .     A
C813   C127    1.417   1_556 S
C814   H822    1.082   .     S
C814   N824    1.367   .     A
H815   C841    1.088   .     S
H816   C880    1.088   1_455 S
N823   Zn833   2.012   .     S
N824   Zn834   2.012   .     S
O825   Zn833   1.985   .     S
O826   Zn834   1.985   .     S
O827   Zn834   1.986   .     S
O828   Zn833   1.986   .     S
O829   Zn833   1.969   .     S
O830   Zn834   1.969   .     S
O831   Zn834   1.981   .     S
O832   Zn833   1.981   .     S
C837   C848    1.408   .     S
C837   O865    1.280   .     A
C837   O863    1.281   .     A
C838   O866    1.280   .     A
C838   C847    1.408   .     S
C838   O864    1.281   .     A
C839   O867    1.278   .     A
C839   O869    1.281   .     A
C839   C841    1.403   .     S
C840   O870    1.281   .     A
C840   O868    1.278   .     A
C840   C842    1.403   .     S
C842   C879    1.331   .     S
C842   H892    1.088   .     S
C843   Br873   1.924   .     S
C843   C848    1.401   .     A
C844   C847    1.401   .     A
C844   Br874   1.924   .     S
C844   C960    1.374   .     S
C845   C847    1.394   .     A
C845   H855    1.085   .     S
C845   C957    1.374   .     S
C846   C848    1.394   .     A
C846   H856    1.085   .     S
C849   H857    1.082   .     S
C849   N862    1.367   .     A
C850   H858    1.082   .     S
C850   N861    1.367   .     A
C850   C168    1.417   1_556 S
C851   H859    1.082   .     S
C851   N861    1.367   .     A
C851   C165    1.417   1_556 S
C852   H860    1.082   .     S
C852   N862    1.367   .     A
H853   C879    1.088   .     S
N861   Zn871   2.012   .     S
N862   Zn872   2.012   .     S
O863   Zn871   1.985   .     S
O864   Zn872   1.985   .     S
O865   Zn872   1.986   .     S
O866   Zn871   1.986   .     S
O867   Zn871   1.969   .     S
O868   Zn872   1.969   .     S
O869   Zn872   1.981   .     S
O870   Zn871   1.981   .     S
C875   C886    1.408   .     S
C875   O903    1.280   .     A
C875   O901    1.281   .     A
C876   O904    1.280   .     A
C876   C885    1.408   .     S
C876   O902    1.281   .     A
C877   O905    1.278   .     A
C877   O907    1.281   .     A
C877   C879    1.403   .     S
C878   O908    1.281   .     A
C878   O906    1.278   .     A
C878   C880    1.403   .     S
C880   C803    1.331   1_655 S
C880   H816    1.088   1_655 S
C881   Br911   1.924   .     S
C881   C886    1.401   .     A
C882   C885    1.401   .     A
C882   Br912   1.924   .     S
C882   C998    1.374   .     S
C883   C885    1.394   .     A
C883   H893    1.085   .     S
C883   C995    1.374   .     S
C884   C886    1.394   .     A
C884   H894    1.085   .     S
C887   H895    1.082   .     S
C887   N900    1.367   .     A
C888   H896    1.082   .     S
C888   N899    1.367   .     A
C888   C206    1.417   1_556 S
C889   H897    1.082   .     S
C889   N899    1.367   .     A
C889   C203    1.417   1_556 S
C890   H898    1.082   .     S
C890   N900    1.367   .     A
H891   C803    1.088   1_655 S
N899   Zn909   2.012   .     S
N900   Zn910   2.012   .     S
O901   Zn909   1.985   .     S
O902   Zn910   1.985   .     S
O903   Zn910   1.986   .     S
O904   Zn909   1.986   .     S
O905   Zn909   1.969   .     S
O906   Zn910   1.969   .     S
O907   Zn910   1.981   .     S
O908   Zn909   1.981   .     S
C913   C924    1.408   .     S
C913   O941    1.280   .     A
C913   O939    1.281   .     A
C914   O942    1.280   .     A
C914   C923    1.408   .     S
C914   O940    1.281   .     A
C915   O943    1.278   .     A
C915   O945    1.281   .     A
C915   C917    1.403   .     S
C916   O946    1.281   .     A
C916   O944    1.278   .     A
C916   C918    1.403   .     S
C917   C994    1.331   1_455 S
C917   H1005   1.088   1_455 S
C918   C955    1.331   .     S
C918   H968    1.088   .     S
C919   Br949   1.924   .     S
C919   C924    1.401   .     A
C920   C923    1.401   .     A
C920   Br950   1.924   .     S
C920   C694    1.374   1_565 S
C921   C923    1.394   .     A
C921   H931    1.085   .     S
C921   C691    1.374   1_565 S
C922   C924    1.394   .     A
C922   H932    1.085   .     S
C925   H933    1.082   .     S
C925   N938    1.367   .     A
C926   H934    1.082   .     S
C926   N937    1.367   .     A
C926   C244    1.417   1_556 S
C927   H935    1.082   .     S
C927   N937    1.367   .     A
C927   C241    1.417   1_556 S
C928   H936    1.082   .     S
C928   N938    1.367   .     A
H929   C955    1.088   .     S
H930   C994    1.088   1_455 S
N937   Zn947   2.012   .     S
N938   Zn948   2.012   .     S
O939   Zn947   1.985   .     S
O940   Zn948   1.985   .     S
O941   Zn948   1.986   .     S
O942   Zn947   1.986   .     S
O943   Zn947   1.969   .     S
O944   Zn948   1.969   .     S
O945   Zn948   1.981   .     S
O946   Zn947   1.981   .     S
C951   C962    1.408   .     S
C951   O979    1.280   .     A
C951   O977    1.281   .     A
C952   O980    1.280   .     A
C952   C961    1.408   .     S
C952   O978    1.281   .     A
C953   O981    1.278   .     A
C953   O983    1.281   .     A
C953   C955    1.403   .     S
C954   O984    1.281   .     A
C954   O982    1.278   .     A
C954   C956    1.403   .     S
C956   C993    1.331   .     S
C956   H1006   1.088   .     S
C957   Br987   1.924   .     S
C957   C962    1.401   .     A
C958   C961    1.401   .     A
C958   Br988   1.924   .     S
C958   C732    1.374   1_565 S
C959   C961    1.394   .     A
C959   H969    1.085   .     S
C959   C729    1.374   1_565 S
C960   C962    1.394   .     A
C960   H970    1.085   .     S
C963   H971    1.082   .     S
C963   N976    1.367   .     A
C964   H972    1.082   .     S
C964   N975    1.367   .     A
C964   C282    1.417   1_556 S
C965   H973    1.082   .     S
C965   N975    1.367   .     A
C965   C279    1.417   1_556 S
C966   H974    1.082   .     S
C966   N976    1.367   .     A
H967   C993    1.088   .     S
N975   Zn985   2.012   .     S
N976   Zn986   2.012   .     S
O977   Zn985   1.985   .     S
O978   Zn986   1.985   .     S
O979   Zn986   1.986   .     S
O980   Zn985   1.986   .     S
O981   Zn985   1.969   .     S
O982   Zn986   1.969   .     S
O983   Zn986   1.981   .     S
O984   Zn985   1.981   .     S
C989   C1000   1.408   .     S
C989   O1017   1.280   .     A
C989   O1015   1.281   .     A
C990   O1018   1.280   .     A
C990   C999    1.408   .     S
C990   O1016   1.281   .     A
C991   O1019   1.278   .     A
C991   O1021   1.281   .     A
C991   C993    1.403   .     S
C992   O1022   1.281   .     A
C992   O1020   1.278   .     A
C992   C994    1.403   .     S
C994   C917    1.331   1_655 S
C994   H930    1.088   1_655 S
C995   Br1025  1.924   .     S
C995   C1000   1.401   .     A
C996   C999    1.401   .     A
C996   Br1026  1.924   .     S
C996   C770    1.374   1_565 S
C997   C999    1.394   .     A
C997   H1007   1.085   .     S
C997   C767    1.374   1_565 S
C998   C1000   1.394   .     A
C998   H1008   1.085   .     S
C1001  H1009   1.082   .     S
C1001  N1014   1.367   .     A
C1002  H1010   1.082   .     S
C1002  N1013   1.367   .     A
C1002  C320    1.417   1_556 S
C1003  H1011   1.082   .     S
C1003  N1013   1.367   .     A
C1003  C317    1.417   1_556 S
C1004  H1012   1.082   .     S
C1004  N1014   1.367   .     A
H1005  C917    1.088   1_655 S
N1013  Zn1023  2.012   .     S
N1014  Zn1024  2.012   .     S
O1015  Zn1023  1.985   .     S
O1016  Zn1024  1.985   .     S
O1017  Zn1024  1.986   .     S
O1018  Zn1023  1.986   .     S
O1019  Zn1023  1.969   .     S
O1020  Zn1024  1.969   .     S
O1021  Zn1024  1.981   .     S
O1022  Zn1023  1.981   .     S
