data_str_m3_o1_o2_pcu_sym.119
_audit_creation_date              2020-01-03
_audit_creation_method            'Materials Studio'
_symmetry_space_group_name_H-M    'P1'
_symmetry_Int_Tables_number       1
_symmetry_cell_setting            triclinic
loop_
_symmetry_equiv_pos_as_xyz
  x,y,z
_cell_length_a                    32.1869
_cell_length_b                    29.6849
_cell_length_c                    30.3163
_cell_angle_alpha                 89.9996
_cell_angle_beta                  92.8347
_cell_angle_gamma                 90.0004
loop_
_atom_site_label
_atom_site_type_symbol
_atom_site_fract_x
_atom_site_fract_y
_atom_site_fract_z
_atom_site_U_iso_or_equiv
_atom_site_adp_type
_atom_site_occupancy
C1     C     0.08668   0.16665   0.25020   0.00000  Uiso   1.00
C2     C     0.24665   0.16665   0.24980   0.00000  Uiso   1.00
C3     C     0.16927   0.16670   0.16409   0.00000  Uiso   1.00
C4     C     0.16406   0.16670   0.33591   0.00000  Uiso   1.00
C5     C     0.19454   0.02402   0.27666   0.00000  Uiso   1.00
C6     C     0.13797   0.30953   0.22430   0.00000  Uiso   1.00
C7     C     0.13880   0.02402   0.22334   0.00000  Uiso   1.00
C8     C     0.19537   0.30953   0.27570   0.00000  Uiso   1.00
C9     C     0.02129   0.12548   0.25023   0.00000  Uiso   1.00
C10    C     0.31206   0.20759   0.24950   0.00000  Uiso   1.00
C11    C     0.31204   0.12548   0.24975   0.00000  Uiso   1.00
C12    C     0.02127   0.20759   0.25051   0.00000  Uiso   1.00
C13    C     0.15976   0.20453   0.04675   0.00000  Uiso   1.00
C14    C     0.15277   0.12631   0.45240   0.00000  Uiso   1.00
C15    C     0.17353   0.20454   0.45326   0.00000  Uiso   1.00
C16    C     0.18054   0.12631   0.04760   0.00000  Uiso   1.00
C17    C     0.16593   0.20687   0.09183   0.00000  Uiso   1.00
C18    C     0.15068   0.12658   0.40658   0.00000  Uiso   1.00
C19    C     0.16738   0.20687   0.40817   0.00000  Uiso   1.00
C20    C     0.18264   0.12658   0.09341   0.00000  Uiso   1.00
C21    C     0.17317   0.16678   0.11626   0.00000  Uiso   1.00
C22    C     0.16015   0.16678   0.38374   0.00000  Uiso   1.00
C23    C     0.16785   0.16480   0.02411   0.00000  Uiso   1.00
C24    C     0.16544   0.16480   0.47589   0.00000  Uiso   1.00
C25    C     0.29083   0.16656   0.24955   0.00000  Uiso   1.00
C26    C     0.04251   0.16656   0.25045   0.00000  Uiso   1.00
N27    N     0.16667   0.28573   0.25000   0.00000  Uiso   1.00
N28    N     0.16667   0.04760   0.25000   0.00000  Uiso   1.00
O29    O     0.10559   0.20487   0.24999   0.00000  Uiso   1.00
O30    O     0.22774   0.12846   0.25000   0.00000  Uiso   1.00
O31    O     0.22774   0.20487   0.25000   0.00000  Uiso   1.00
O32    O     0.10559   0.12846   0.24999   0.00000  Uiso   1.00
O33    O     0.16666   0.20489   0.18453   0.00000  Uiso   1.00
O34    O     0.16667   0.12845   0.31547   0.00000  Uiso   1.00
O35    O     0.16667   0.20489   0.31547   0.00000  Uiso   1.00
O36    O     0.16666   0.12845   0.18453   0.00000  Uiso   1.00
Zn37   Zn    0.16667   0.21771   0.25000   0.00000  Uiso   1.00
Zn38   Zn    0.16667   0.11563   0.25000   0.00000  Uiso   1.00
Br39   Br    0.23262   0.05560   0.31650   0.00000  Uiso   1.00
Br40   Br    0.09529   0.27889   0.18937   0.00000  Uiso   1.00
Br41   Br    0.10072   0.05560   0.18349   0.00000  Uiso   1.00
Br42   Br    0.23804   0.27889   0.31063   0.00000  Uiso   1.00
H43    H     0.14973   0.23484   0.02954   0.00000  Uiso   1.00
H44    H     0.14400   0.09603   0.46955   0.00000  Uiso   1.00
H45    H     0.18355   0.23484   0.47047   0.00000  Uiso   1.00
H46    H     0.18931   0.09603   0.03044   0.00000  Uiso   1.00
Br47   Br    0.16968   0.26735   0.11458   0.00000  Uiso   1.00
Br48   Br    0.13053   0.07182   0.37883   0.00000  Uiso   1.00
Br49   Br    0.16366   0.26734   0.38542   0.00000  Uiso   1.00
Br50   Br    0.20282   0.07183   0.12116   0.00000  Uiso   1.00
H51    H     0.03739   0.09344   0.25045   0.00000  Uiso   1.00
H52    H     0.29604   0.23964   0.24874   0.00000  Uiso   1.00
H53    H     0.29594   0.09344   0.24952   0.00000  Uiso   1.00
H54    H     0.03729   0.23964   0.25129   0.00000  Uiso   1.00
C55    C     0.42001   0.16665   0.25020   0.00000  Uiso   1.00
C56    C     0.57999   0.16665   0.24980   0.00000  Uiso   1.00
C57    C     0.50261   0.16670   0.16409   0.00000  Uiso   1.00
C58    C     0.49739   0.16670   0.33591   0.00000  Uiso   1.00
C59    C     0.52787   0.02402   0.27666   0.00000  Uiso   1.00
C60    C     0.47130   0.30953   0.22430   0.00000  Uiso   1.00
C61    C     0.47213   0.02402   0.22334   0.00000  Uiso   1.00
C62    C     0.52870   0.30953   0.27570   0.00000  Uiso   1.00
C63    C     0.35462   0.12548   0.25023   0.00000  Uiso   1.00
C64    C     0.64540   0.20759   0.24950   0.00000  Uiso   1.00
C65    C     0.64538   0.12548   0.24975   0.00000  Uiso   1.00
C66    C     0.35460   0.20759   0.25051   0.00000  Uiso   1.00
C67    C     0.49310   0.20453   0.04675   0.00000  Uiso   1.00
C68    C     0.48610   0.12631   0.45240   0.00000  Uiso   1.00
C69    C     0.50686   0.20454   0.45326   0.00000  Uiso   1.00
C70    C     0.51387   0.12631   0.04760   0.00000  Uiso   1.00
C71    C     0.49927   0.20687   0.09183   0.00000  Uiso   1.00
C72    C     0.48401   0.12658   0.40658   0.00000  Uiso   1.00
C73    C     0.50071   0.20687   0.40817   0.00000  Uiso   1.00
C74    C     0.51598   0.12658   0.09341   0.00000  Uiso   1.00
C75    C     0.50651   0.16678   0.11626   0.00000  Uiso   1.00
C76    C     0.49349   0.16678   0.38374   0.00000  Uiso   1.00
C77    C     0.50118   0.16480   0.02411   0.00000  Uiso   1.00
C78    C     0.49877   0.16480   0.47589   0.00000  Uiso   1.00
C79    C     0.62416   0.16656   0.24955   0.00000  Uiso   1.00
C80    C     0.37584   0.16656   0.25045   0.00000  Uiso   1.00
N81    N     0.50000   0.28573   0.25000   0.00000  Uiso   1.00
N82    N     0.50000   0.04760   0.25000   0.00000  Uiso   1.00
O83    O     0.43892   0.20487   0.24999   0.00000  Uiso   1.00
O84    O     0.56108   0.12846   0.25000   0.00000  Uiso   1.00
O85    O     0.56108   0.20487   0.25000   0.00000  Uiso   1.00
O86    O     0.43892   0.12846   0.24999   0.00000  Uiso   1.00
O87    O     0.50000   0.20489   0.18453   0.00000  Uiso   1.00
O88    O     0.50000   0.12845   0.31547   0.00000  Uiso   1.00
O89    O     0.50000   0.20489   0.31547   0.00000  Uiso   1.00
O90    O     0.50000   0.12845   0.18453   0.00000  Uiso   1.00
Zn91   Zn    0.50000   0.21771   0.25000   0.00000  Uiso   1.00
Zn92   Zn    0.50000   0.11563   0.25000   0.00000  Uiso   1.00
Br93   Br    0.56595   0.05560   0.31650   0.00000  Uiso   1.00
Br94   Br    0.42862   0.27889   0.18937   0.00000  Uiso   1.00
Br95   Br    0.43405   0.05560   0.18349   0.00000  Uiso   1.00
Br96   Br    0.57137   0.27889   0.31063   0.00000  Uiso   1.00
H97    H     0.48306   0.23484   0.02954   0.00000  Uiso   1.00
H98    H     0.47733   0.09603   0.46955   0.00000  Uiso   1.00
H99    H     0.51689   0.23484   0.47047   0.00000  Uiso   1.00
H100   H     0.52265   0.09603   0.03044   0.00000  Uiso   1.00
Br101  Br    0.50301   0.26735   0.11458   0.00000  Uiso   1.00
Br102  Br    0.46387   0.07182   0.37883   0.00000  Uiso   1.00
Br103  Br    0.49699   0.26734   0.38542   0.00000  Uiso   1.00
Br104  Br    0.53615   0.07183   0.12116   0.00000  Uiso   1.00
H105   H     0.37073   0.09344   0.25045   0.00000  Uiso   1.00
H106   H     0.62938   0.23964   0.24874   0.00000  Uiso   1.00
H107   H     0.62927   0.09344   0.24952   0.00000  Uiso   1.00
H108   H     0.37062   0.23964   0.25129   0.00000  Uiso   1.00
C109   C     0.75335   0.16665   0.25020   0.00000  Uiso   1.00
C110   C     0.91332   0.16665   0.24980   0.00000  Uiso   1.00
C111   C     0.83594   0.16670   0.16409   0.00000  Uiso   1.00
C112   C     0.83073   0.16670   0.33591   0.00000  Uiso   1.00
C113   C     0.86121   0.02402   0.27666   0.00000  Uiso   1.00
C114   C     0.80463   0.30953   0.22430   0.00000  Uiso   1.00
C115   C     0.80546   0.02402   0.22334   0.00000  Uiso   1.00
C116   C     0.86203   0.30953   0.27570   0.00000  Uiso   1.00
C117   C     0.68796   0.12548   0.25023   0.00000  Uiso   1.00
C118   C     0.97873   0.20759   0.24950   0.00000  Uiso   1.00
C119   C     0.97871   0.12548   0.24975   0.00000  Uiso   1.00
C120   C     0.68794   0.20759   0.25051   0.00000  Uiso   1.00
C121   C     0.82643   0.20453   0.04675   0.00000  Uiso   1.00
C122   C     0.81943   0.12631   0.45240   0.00000  Uiso   1.00
C123   C     0.84019   0.20454   0.45326   0.00000  Uiso   1.00
C124   C     0.84721   0.12631   0.04760   0.00000  Uiso   1.00
C125   C     0.83260   0.20687   0.09183   0.00000  Uiso   1.00
C126   C     0.81735   0.12658   0.40658   0.00000  Uiso   1.00
C127   C     0.83404   0.20687   0.40817   0.00000  Uiso   1.00
C128   C     0.84931   0.12658   0.09341   0.00000  Uiso   1.00
C129   C     0.83984   0.16678   0.11626   0.00000  Uiso   1.00
C130   C     0.82682   0.16678   0.38374   0.00000  Uiso   1.00
C131   C     0.83452   0.16480   0.02411   0.00000  Uiso   1.00
C132   C     0.83211   0.16480   0.47589   0.00000  Uiso   1.00
C133   C     0.95749   0.16656   0.24955   0.00000  Uiso   1.00
C134   C     0.70917   0.16656   0.25045   0.00000  Uiso   1.00
N135   N     0.83333   0.28573   0.25000   0.00000  Uiso   1.00
N136   N     0.83333   0.04760   0.25000   0.00000  Uiso   1.00
O137   O     0.77226   0.20487   0.24999   0.00000  Uiso   1.00
O138   O     0.89441   0.12846   0.25000   0.00000  Uiso   1.00
O139   O     0.89441   0.20487   0.25000   0.00000  Uiso   1.00
O140   O     0.77226   0.12846   0.24999   0.00000  Uiso   1.00
O141   O     0.83333   0.20489   0.18453   0.00000  Uiso   1.00
O142   O     0.83334   0.12845   0.31547   0.00000  Uiso   1.00
O143   O     0.83334   0.20489   0.31547   0.00000  Uiso   1.00
O144   O     0.83333   0.12845   0.18453   0.00000  Uiso   1.00
Zn145  Zn    0.83333   0.21771   0.25000   0.00000  Uiso   1.00
Zn146  Zn    0.83333   0.11563   0.25000   0.00000  Uiso   1.00
Br147  Br    0.89929   0.05560   0.31650   0.00000  Uiso   1.00
Br148  Br    0.76196   0.27889   0.18937   0.00000  Uiso   1.00
Br149  Br    0.76739   0.05560   0.18349   0.00000  Uiso   1.00
Br150  Br    0.90471   0.27889   0.31063   0.00000  Uiso   1.00
H151   H     0.81640   0.23484   0.02954   0.00000  Uiso   1.00
H152   H     0.81067   0.09603   0.46955   0.00000  Uiso   1.00
H153   H     0.85022   0.23484   0.47047   0.00000  Uiso   1.00
H154   H     0.85598   0.09603   0.03044   0.00000  Uiso   1.00
Br155  Br    0.83635   0.26735   0.11458   0.00000  Uiso   1.00
Br156  Br    0.79720   0.07182   0.37883   0.00000  Uiso   1.00
Br157  Br    0.83032   0.26734   0.38542   0.00000  Uiso   1.00
Br158  Br    0.86948   0.07183   0.12116   0.00000  Uiso   1.00
H159   H     0.70406   0.09344   0.25045   0.00000  Uiso   1.00
H160   H     0.96271   0.23964   0.24874   0.00000  Uiso   1.00
H161   H     0.96261   0.09344   0.24952   0.00000  Uiso   1.00
H162   H     0.70396   0.23964   0.25129   0.00000  Uiso   1.00
C163   C     0.08668   0.49998   0.25020   0.00000  Uiso   1.00
C164   C     0.24665   0.49998   0.24980   0.00000  Uiso   1.00
C165   C     0.16927   0.50003   0.16409   0.00000  Uiso   1.00
C166   C     0.16406   0.50003   0.33591   0.00000  Uiso   1.00
C167   C     0.19454   0.35735   0.27666   0.00000  Uiso   1.00
C168   C     0.13797   0.64287   0.22430   0.00000  Uiso   1.00
C169   C     0.13880   0.35735   0.22334   0.00000  Uiso   1.00
C170   C     0.19537   0.64287   0.27570   0.00000  Uiso   1.00
C171   C     0.02129   0.45881   0.25023   0.00000  Uiso   1.00
C172   C     0.31206   0.54092   0.24950   0.00000  Uiso   1.00
C173   C     0.31204   0.45881   0.24975   0.00000  Uiso   1.00
C174   C     0.02127   0.54092   0.25051   0.00000  Uiso   1.00
C175   C     0.15976   0.53787   0.04675   0.00000  Uiso   1.00
C176   C     0.15277   0.45964   0.45240   0.00000  Uiso   1.00
C177   C     0.17353   0.53787   0.45326   0.00000  Uiso   1.00
C178   C     0.18054   0.45964   0.04760   0.00000  Uiso   1.00
C179   C     0.16593   0.54020   0.09183   0.00000  Uiso   1.00
C180   C     0.15068   0.45991   0.40658   0.00000  Uiso   1.00
C181   C     0.16738   0.54020   0.40817   0.00000  Uiso   1.00
C182   C     0.18264   0.45991   0.09341   0.00000  Uiso   1.00
C183   C     0.17317   0.50012   0.11626   0.00000  Uiso   1.00
C184   C     0.16015   0.50011   0.38374   0.00000  Uiso   1.00
C185   C     0.16785   0.49813   0.02411   0.00000  Uiso   1.00
C186   C     0.16544   0.49813   0.47589   0.00000  Uiso   1.00
C187   C     0.29083   0.49990   0.24955   0.00000  Uiso   1.00
C188   C     0.04251   0.49990   0.25045   0.00000  Uiso   1.00
N189   N     0.16667   0.61907   0.25000   0.00000  Uiso   1.00
N190   N     0.16667   0.38093   0.25000   0.00000  Uiso   1.00
O191   O     0.10559   0.53821   0.24999   0.00000  Uiso   1.00
O192   O     0.22774   0.46179   0.25000   0.00000  Uiso   1.00
O193   O     0.22774   0.53821   0.25000   0.00000  Uiso   1.00
O194   O     0.10559   0.46179   0.24999   0.00000  Uiso   1.00
O195   O     0.16666   0.53822   0.18453   0.00000  Uiso   1.00
O196   O     0.16667   0.46178   0.31547   0.00000  Uiso   1.00
O197   O     0.16667   0.53822   0.31547   0.00000  Uiso   1.00
O198   O     0.16666   0.46178   0.18453   0.00000  Uiso   1.00
Zn199  Zn    0.16667   0.55104   0.25000   0.00000  Uiso   1.00
Zn200  Zn    0.16667   0.44896   0.25000   0.00000  Uiso   1.00
Br201  Br    0.23262   0.38893   0.31650   0.00000  Uiso   1.00
Br202  Br    0.09529   0.61222   0.18937   0.00000  Uiso   1.00
Br203  Br    0.10072   0.38893   0.18349   0.00000  Uiso   1.00
Br204  Br    0.23804   0.61222   0.31063   0.00000  Uiso   1.00
H205   H     0.14973   0.56817   0.02954   0.00000  Uiso   1.00
H206   H     0.14400   0.42936   0.46955   0.00000  Uiso   1.00
H207   H     0.18355   0.56818   0.47047   0.00000  Uiso   1.00
H208   H     0.18931   0.42936   0.03044   0.00000  Uiso   1.00
Br209  Br    0.16968   0.60068   0.11458   0.00000  Uiso   1.00
Br210  Br    0.13053   0.40515   0.37883   0.00000  Uiso   1.00
Br211  Br    0.16366   0.60068   0.38542   0.00000  Uiso   1.00
Br212  Br    0.20282   0.40516   0.12116   0.00000  Uiso   1.00
H213   H     0.03739   0.42677   0.25045   0.00000  Uiso   1.00
H214   H     0.29604   0.57297   0.24874   0.00000  Uiso   1.00
H215   H     0.29594   0.42677   0.24952   0.00000  Uiso   1.00
H216   H     0.03729   0.57297   0.25129   0.00000  Uiso   1.00
C217   C     0.42001   0.49998   0.25020   0.00000  Uiso   1.00
C218   C     0.57999   0.49998   0.24980   0.00000  Uiso   1.00
C219   C     0.50261   0.50003   0.16409   0.00000  Uiso   1.00
C220   C     0.49739   0.50003   0.33591   0.00000  Uiso   1.00
C221   C     0.52787   0.35735   0.27666   0.00000  Uiso   1.00
C222   C     0.47130   0.64287   0.22430   0.00000  Uiso   1.00
C223   C     0.47213   0.35735   0.22334   0.00000  Uiso   1.00
C224   C     0.52870   0.64287   0.27570   0.00000  Uiso   1.00
C225   C     0.35462   0.45881   0.25023   0.00000  Uiso   1.00
C226   C     0.64540   0.54092   0.24950   0.00000  Uiso   1.00
C227   C     0.64538   0.45881   0.24975   0.00000  Uiso   1.00
C228   C     0.35460   0.54092   0.25051   0.00000  Uiso   1.00
C229   C     0.49310   0.53787   0.04675   0.00000  Uiso   1.00
C230   C     0.48610   0.45964   0.45240   0.00000  Uiso   1.00
C231   C     0.50686   0.53787   0.45326   0.00000  Uiso   1.00
C232   C     0.51387   0.45964   0.04760   0.00000  Uiso   1.00
C233   C     0.49927   0.54020   0.09183   0.00000  Uiso   1.00
C234   C     0.48401   0.45991   0.40658   0.00000  Uiso   1.00
C235   C     0.50071   0.54020   0.40817   0.00000  Uiso   1.00
C236   C     0.51598   0.45991   0.09341   0.00000  Uiso   1.00
C237   C     0.50651   0.50012   0.11626   0.00000  Uiso   1.00
C238   C     0.49349   0.50011   0.38374   0.00000  Uiso   1.00
C239   C     0.50118   0.49813   0.02411   0.00000  Uiso   1.00
C240   C     0.49877   0.49813   0.47589   0.00000  Uiso   1.00
C241   C     0.62416   0.49990   0.24955   0.00000  Uiso   1.00
C242   C     0.37584   0.49990   0.25045   0.00000  Uiso   1.00
N243   N     0.50000   0.61907   0.25000   0.00000  Uiso   1.00
N244   N     0.50000   0.38093   0.25000   0.00000  Uiso   1.00
O245   O     0.43892   0.53821   0.24999   0.00000  Uiso   1.00
O246   O     0.56108   0.46179   0.25000   0.00000  Uiso   1.00
O247   O     0.56108   0.53821   0.25000   0.00000  Uiso   1.00
O248   O     0.43892   0.46179   0.24999   0.00000  Uiso   1.00
O249   O     0.50000   0.53822   0.18453   0.00000  Uiso   1.00
O250   O     0.50000   0.46178   0.31547   0.00000  Uiso   1.00
O251   O     0.50000   0.53822   0.31547   0.00000  Uiso   1.00
O252   O     0.50000   0.46178   0.18453   0.00000  Uiso   1.00
Zn253  Zn    0.50000   0.55104   0.25000   0.00000  Uiso   1.00
Zn254  Zn    0.50000   0.44896   0.25000   0.00000  Uiso   1.00
Br255  Br    0.56595   0.38893   0.31650   0.00000  Uiso   1.00
Br256  Br    0.42862   0.61222   0.18937   0.00000  Uiso   1.00
Br257  Br    0.43405   0.38893   0.18349   0.00000  Uiso   1.00
Br258  Br    0.57137   0.61222   0.31063   0.00000  Uiso   1.00
H259   H     0.48306   0.56817   0.02954   0.00000  Uiso   1.00
H260   H     0.47733   0.42936   0.46955   0.00000  Uiso   1.00
H261   H     0.51689   0.56818   0.47047   0.00000  Uiso   1.00
H262   H     0.52265   0.42936   0.03044   0.00000  Uiso   1.00
Br263  Br    0.50301   0.60068   0.11458   0.00000  Uiso   1.00
Br264  Br    0.46387   0.40515   0.37883   0.00000  Uiso   1.00
Br265  Br    0.49699   0.60068   0.38542   0.00000  Uiso   1.00
Br266  Br    0.53615   0.40516   0.12116   0.00000  Uiso   1.00
H267   H     0.37073   0.42677   0.25045   0.00000  Uiso   1.00
H268   H     0.62938   0.57297   0.24874   0.00000  Uiso   1.00
H269   H     0.62927   0.42677   0.24952   0.00000  Uiso   1.00
H270   H     0.37062   0.57297   0.25129   0.00000  Uiso   1.00
C271   C     0.75335   0.49998   0.25020   0.00000  Uiso   1.00
C272   C     0.91332   0.49998   0.24980   0.00000  Uiso   1.00
C273   C     0.83594   0.50003   0.16409   0.00000  Uiso   1.00
C274   C     0.83073   0.50003   0.33591   0.00000  Uiso   1.00
C275   C     0.86121   0.35735   0.27666   0.00000  Uiso   1.00
C276   C     0.80463   0.64287   0.22430   0.00000  Uiso   1.00
C277   C     0.80546   0.35735   0.22334   0.00000  Uiso   1.00
C278   C     0.86203   0.64287   0.27570   0.00000  Uiso   1.00
C279   C     0.68796   0.45881   0.25023   0.00000  Uiso   1.00
C280   C     0.97873   0.54092   0.24950   0.00000  Uiso   1.00
C281   C     0.97871   0.45881   0.24975   0.00000  Uiso   1.00
C282   C     0.68794   0.54092   0.25051   0.00000  Uiso   1.00
C283   C     0.82643   0.53787   0.04675   0.00000  Uiso   1.00
C284   C     0.81943   0.45964   0.45240   0.00000  Uiso   1.00
C285   C     0.84019   0.53787   0.45326   0.00000  Uiso   1.00
C286   C     0.84721   0.45964   0.04760   0.00000  Uiso   1.00
C287   C     0.83260   0.54020   0.09183   0.00000  Uiso   1.00
C288   C     0.81735   0.45991   0.40658   0.00000  Uiso   1.00
C289   C     0.83404   0.54020   0.40817   0.00000  Uiso   1.00
C290   C     0.84931   0.45991   0.09341   0.00000  Uiso   1.00
C291   C     0.83984   0.50012   0.11626   0.00000  Uiso   1.00
C292   C     0.82682   0.50011   0.38374   0.00000  Uiso   1.00
C293   C     0.83452   0.49813   0.02411   0.00000  Uiso   1.00
C294   C     0.83211   0.49813   0.47589   0.00000  Uiso   1.00
C295   C     0.95749   0.49990   0.24955   0.00000  Uiso   1.00
C296   C     0.70917   0.49990   0.25045   0.00000  Uiso   1.00
N297   N     0.83333   0.61907   0.25000   0.00000  Uiso   1.00
N298   N     0.83333   0.38093   0.25000   0.00000  Uiso   1.00
O299   O     0.77226   0.53821   0.24999   0.00000  Uiso   1.00
O300   O     0.89441   0.46179   0.25000   0.00000  Uiso   1.00
O301   O     0.89441   0.53821   0.25000   0.00000  Uiso   1.00
O302   O     0.77226   0.46179   0.24999   0.00000  Uiso   1.00
O303   O     0.83333   0.53822   0.18453   0.00000  Uiso   1.00
O304   O     0.83334   0.46178   0.31547   0.00000  Uiso   1.00
O305   O     0.83334   0.53822   0.31547   0.00000  Uiso   1.00
O306   O     0.83333   0.46178   0.18453   0.00000  Uiso   1.00
Zn307  Zn    0.83333   0.55104   0.25000   0.00000  Uiso   1.00
Zn308  Zn    0.83333   0.44896   0.25000   0.00000  Uiso   1.00
Br309  Br    0.89929   0.38893   0.31650   0.00000  Uiso   1.00
Br310  Br    0.76196   0.61222   0.18937   0.00000  Uiso   1.00
Br311  Br    0.76739   0.38893   0.18349   0.00000  Uiso   1.00
Br312  Br    0.90471   0.61222   0.31063   0.00000  Uiso   1.00
H313   H     0.81640   0.56817   0.02954   0.00000  Uiso   1.00
H314   H     0.81067   0.42936   0.46955   0.00000  Uiso   1.00
H315   H     0.85022   0.56818   0.47047   0.00000  Uiso   1.00
H316   H     0.85598   0.42936   0.03044   0.00000  Uiso   1.00
Br317  Br    0.83635   0.60068   0.11458   0.00000  Uiso   1.00
Br318  Br    0.79720   0.40515   0.37883   0.00000  Uiso   1.00
Br319  Br    0.83032   0.60068   0.38542   0.00000  Uiso   1.00
Br320  Br    0.86948   0.40516   0.12116   0.00000  Uiso   1.00
H321   H     0.70406   0.42677   0.25045   0.00000  Uiso   1.00
H322   H     0.96271   0.57297   0.24874   0.00000  Uiso   1.00
H323   H     0.96261   0.42677   0.24952   0.00000  Uiso   1.00
H324   H     0.70396   0.57297   0.25129   0.00000  Uiso   1.00
C325   C     0.08668   0.83331   0.25020   0.00000  Uiso   1.00
C326   C     0.24665   0.83331   0.24980   0.00000  Uiso   1.00
C327   C     0.16927   0.83337   0.16409   0.00000  Uiso   1.00
C328   C     0.16406   0.83336   0.33591   0.00000  Uiso   1.00
C329   C     0.19454   0.69068   0.27666   0.00000  Uiso   1.00
C330   C     0.13797   0.97620   0.22430   0.00000  Uiso   1.00
C331   C     0.13880   0.69068   0.22334   0.00000  Uiso   1.00
C332   C     0.19537   0.97620   0.27570   0.00000  Uiso   1.00
C333   C     0.02129   0.79214   0.25023   0.00000  Uiso   1.00
C334   C     0.31206   0.87425   0.24950   0.00000  Uiso   1.00
C335   C     0.31204   0.79214   0.24975   0.00000  Uiso   1.00
C336   C     0.02127   0.87425   0.25051   0.00000  Uiso   1.00
C337   C     0.15976   0.87120   0.04675   0.00000  Uiso   1.00
C338   C     0.15277   0.79298   0.45240   0.00000  Uiso   1.00
C339   C     0.17353   0.87120   0.45326   0.00000  Uiso   1.00
C340   C     0.18054   0.79298   0.04760   0.00000  Uiso   1.00
C341   C     0.16593   0.87354   0.09183   0.00000  Uiso   1.00
C342   C     0.15068   0.79324   0.40658   0.00000  Uiso   1.00
C343   C     0.16738   0.87354   0.40817   0.00000  Uiso   1.00
C344   C     0.18264   0.79325   0.09341   0.00000  Uiso   1.00
C345   C     0.17317   0.83345   0.11626   0.00000  Uiso   1.00
C346   C     0.16015   0.83345   0.38374   0.00000  Uiso   1.00
C347   C     0.16785   0.83146   0.02411   0.00000  Uiso   1.00
C348   C     0.16544   0.83146   0.47589   0.00000  Uiso   1.00
C349   C     0.29083   0.83323   0.24955   0.00000  Uiso   1.00
C350   C     0.04251   0.83323   0.25045   0.00000  Uiso   1.00
N351   N     0.16667   0.95240   0.25000   0.00000  Uiso   1.00
N352   N     0.16667   0.71427   0.25000   0.00000  Uiso   1.00
O353   O     0.10559   0.87154   0.24999   0.00000  Uiso   1.00
O354   O     0.22774   0.79513   0.25000   0.00000  Uiso   1.00
O355   O     0.22774   0.87154   0.25000   0.00000  Uiso   1.00
O356   O     0.10559   0.79513   0.24999   0.00000  Uiso   1.00
O357   O     0.16666   0.87155   0.18453   0.00000  Uiso   1.00
O358   O     0.16667   0.79511   0.31547   0.00000  Uiso   1.00
O359   O     0.16667   0.87155   0.31547   0.00000  Uiso   1.00
O360   O     0.16666   0.79511   0.18453   0.00000  Uiso   1.00
Zn361  Zn    0.16667   0.88437   0.25000   0.00000  Uiso   1.00
Zn362  Zn    0.16667   0.78229   0.25000   0.00000  Uiso   1.00
Br363  Br    0.23262   0.72227   0.31650   0.00000  Uiso   1.00
Br364  Br    0.09529   0.94556   0.18937   0.00000  Uiso   1.00
Br365  Br    0.10072   0.72227   0.18349   0.00000  Uiso   1.00
Br366  Br    0.23804   0.94556   0.31063   0.00000  Uiso   1.00
H367   H     0.14973   0.90150   0.02954   0.00000  Uiso   1.00
H368   H     0.14400   0.76269   0.46955   0.00000  Uiso   1.00
H369   H     0.18355   0.90151   0.47047   0.00000  Uiso   1.00
H370   H     0.18931   0.76270   0.03044   0.00000  Uiso   1.00
Br371  Br    0.16968   0.93402   0.11458   0.00000  Uiso   1.00
Br372  Br    0.13053   0.73849   0.37883   0.00000  Uiso   1.00
Br373  Br    0.16366   0.93401   0.38542   0.00000  Uiso   1.00
Br374  Br    0.20282   0.73850   0.12116   0.00000  Uiso   1.00
H375   H     0.03739   0.76010   0.25045   0.00000  Uiso   1.00
H376   H     0.29604   0.90630   0.24874   0.00000  Uiso   1.00
H377   H     0.29594   0.76010   0.24952   0.00000  Uiso   1.00
H378   H     0.03729   0.90630   0.25129   0.00000  Uiso   1.00
C379   C     0.42001   0.83331   0.25020   0.00000  Uiso   1.00
C380   C     0.57999   0.83331   0.24980   0.00000  Uiso   1.00
C381   C     0.50261   0.83337   0.16409   0.00000  Uiso   1.00
C382   C     0.49739   0.83336   0.33591   0.00000  Uiso   1.00
C383   C     0.52787   0.69068   0.27666   0.00000  Uiso   1.00
C384   C     0.47130   0.97620   0.22430   0.00000  Uiso   1.00
C385   C     0.47213   0.69068   0.22334   0.00000  Uiso   1.00
C386   C     0.52870   0.97620   0.27570   0.00000  Uiso   1.00
C387   C     0.35462   0.79214   0.25023   0.00000  Uiso   1.00
C388   C     0.64540   0.87425   0.24950   0.00000  Uiso   1.00
C389   C     0.64538   0.79214   0.24975   0.00000  Uiso   1.00
C390   C     0.35460   0.87425   0.25051   0.00000  Uiso   1.00
C391   C     0.49310   0.87120   0.04675   0.00000  Uiso   1.00
C392   C     0.48610   0.79298   0.45240   0.00000  Uiso   1.00
C393   C     0.50686   0.87120   0.45326   0.00000  Uiso   1.00
C394   C     0.51387   0.79298   0.04760   0.00000  Uiso   1.00
C395   C     0.49927   0.87354   0.09183   0.00000  Uiso   1.00
C396   C     0.48401   0.79324   0.40658   0.00000  Uiso   1.00
C397   C     0.50071   0.87354   0.40817   0.00000  Uiso   1.00
C398   C     0.51598   0.79325   0.09341   0.00000  Uiso   1.00
C399   C     0.50651   0.83345   0.11626   0.00000  Uiso   1.00
C400   C     0.49349   0.83345   0.38374   0.00000  Uiso   1.00
C401   C     0.50118   0.83146   0.02411   0.00000  Uiso   1.00
C402   C     0.49877   0.83146   0.47589   0.00000  Uiso   1.00
C403   C     0.62416   0.83323   0.24955   0.00000  Uiso   1.00
C404   C     0.37584   0.83323   0.25045   0.00000  Uiso   1.00
N405   N     0.50000   0.95240   0.25000   0.00000  Uiso   1.00
N406   N     0.50000   0.71427   0.25000   0.00000  Uiso   1.00
O407   O     0.43892   0.87154   0.24999   0.00000  Uiso   1.00
O408   O     0.56108   0.79513   0.25000   0.00000  Uiso   1.00
O409   O     0.56108   0.87154   0.25000   0.00000  Uiso   1.00
O410   O     0.43892   0.79513   0.24999   0.00000  Uiso   1.00
O411   O     0.50000   0.87155   0.18453   0.00000  Uiso   1.00
O412   O     0.50000   0.79511   0.31547   0.00000  Uiso   1.00
O413   O     0.50000   0.87155   0.31547   0.00000  Uiso   1.00
O414   O     0.50000   0.79511   0.18453   0.00000  Uiso   1.00
Zn415  Zn    0.50000   0.88437   0.25000   0.00000  Uiso   1.00
Zn416  Zn    0.50000   0.78229   0.25000   0.00000  Uiso   1.00
Br417  Br    0.56595   0.72227   0.31650   0.00000  Uiso   1.00
Br418  Br    0.42862   0.94556   0.18937   0.00000  Uiso   1.00
Br419  Br    0.43405   0.72227   0.18349   0.00000  Uiso   1.00
Br420  Br    0.57137   0.94556   0.31063   0.00000  Uiso   1.00
H421   H     0.48306   0.90150   0.02954   0.00000  Uiso   1.00
H422   H     0.47733   0.76269   0.46955   0.00000  Uiso   1.00
H423   H     0.51689   0.90151   0.47047   0.00000  Uiso   1.00
H424   H     0.52265   0.76270   0.03044   0.00000  Uiso   1.00
Br425  Br    0.50301   0.93402   0.11458   0.00000  Uiso   1.00
Br426  Br    0.46387   0.73849   0.37883   0.00000  Uiso   1.00
Br427  Br    0.49699   0.93401   0.38542   0.00000  Uiso   1.00
Br428  Br    0.53615   0.73850   0.12116   0.00000  Uiso   1.00
H429   H     0.37073   0.76010   0.25045   0.00000  Uiso   1.00
H430   H     0.62938   0.90630   0.24874   0.00000  Uiso   1.00
H431   H     0.62927   0.76010   0.24952   0.00000  Uiso   1.00
H432   H     0.37062   0.90630   0.25129   0.00000  Uiso   1.00
C433   C     0.75335   0.83331   0.25020   0.00000  Uiso   1.00
C434   C     0.91332   0.83331   0.24980   0.00000  Uiso   1.00
C435   C     0.83594   0.83337   0.16409   0.00000  Uiso   1.00
C436   C     0.83073   0.83336   0.33591   0.00000  Uiso   1.00
C437   C     0.86121   0.69068   0.27666   0.00000  Uiso   1.00
C438   C     0.80463   0.97620   0.22430   0.00000  Uiso   1.00
C439   C     0.80546   0.69068   0.22334   0.00000  Uiso   1.00
C440   C     0.86203   0.97620   0.27570   0.00000  Uiso   1.00
C441   C     0.68796   0.79214   0.25023   0.00000  Uiso   1.00
C442   C     0.97873   0.87425   0.24950   0.00000  Uiso   1.00
C443   C     0.97871   0.79214   0.24975   0.00000  Uiso   1.00
C444   C     0.68794   0.87425   0.25051   0.00000  Uiso   1.00
C445   C     0.82643   0.87120   0.04675   0.00000  Uiso   1.00
C446   C     0.81943   0.79298   0.45240   0.00000  Uiso   1.00
C447   C     0.84019   0.87120   0.45326   0.00000  Uiso   1.00
C448   C     0.84721   0.79298   0.04760   0.00000  Uiso   1.00
C449   C     0.83260   0.87354   0.09183   0.00000  Uiso   1.00
C450   C     0.81735   0.79324   0.40658   0.00000  Uiso   1.00
C451   C     0.83404   0.87354   0.40817   0.00000  Uiso   1.00
C452   C     0.84931   0.79325   0.09341   0.00000  Uiso   1.00
C453   C     0.83984   0.83345   0.11626   0.00000  Uiso   1.00
C454   C     0.82682   0.83345   0.38374   0.00000  Uiso   1.00
C455   C     0.83452   0.83146   0.02411   0.00000  Uiso   1.00
C456   C     0.83211   0.83146   0.47589   0.00000  Uiso   1.00
C457   C     0.95749   0.83323   0.24955   0.00000  Uiso   1.00
C458   C     0.70917   0.83323   0.25045   0.00000  Uiso   1.00
N459   N     0.83333   0.95240   0.25000   0.00000  Uiso   1.00
N460   N     0.83333   0.71427   0.25000   0.00000  Uiso   1.00
O461   O     0.77226   0.87154   0.24999   0.00000  Uiso   1.00
O462   O     0.89441   0.79513   0.25000   0.00000  Uiso   1.00
O463   O     0.89441   0.87154   0.25000   0.00000  Uiso   1.00
O464   O     0.77226   0.79513   0.24999   0.00000  Uiso   1.00
O465   O     0.83333   0.87155   0.18453   0.00000  Uiso   1.00
O466   O     0.83334   0.79511   0.31547   0.00000  Uiso   1.00
O467   O     0.83334   0.87155   0.31547   0.00000  Uiso   1.00
O468   O     0.83333   0.79511   0.18453   0.00000  Uiso   1.00
Zn469  Zn    0.83333   0.88437   0.25000   0.00000  Uiso   1.00
Zn470  Zn    0.83333   0.78229   0.25000   0.00000  Uiso   1.00
Br471  Br    0.89929   0.72227   0.31650   0.00000  Uiso   1.00
Br472  Br    0.76196   0.94556   0.18937   0.00000  Uiso   1.00
Br473  Br    0.76739   0.72227   0.18349   0.00000  Uiso   1.00
Br474  Br    0.90471   0.94556   0.31063   0.00000  Uiso   1.00
H475   H     0.81640   0.90150   0.02954   0.00000  Uiso   1.00
H476   H     0.81067   0.76269   0.46955   0.00000  Uiso   1.00
H477   H     0.85022   0.90151   0.47047   0.00000  Uiso   1.00
H478   H     0.85598   0.76270   0.03044   0.00000  Uiso   1.00
Br479  Br    0.83635   0.93402   0.11458   0.00000  Uiso   1.00
Br480  Br    0.79720   0.73849   0.37883   0.00000  Uiso   1.00
Br481  Br    0.83032   0.93401   0.38542   0.00000  Uiso   1.00
Br482  Br    0.86948   0.73850   0.12116   0.00000  Uiso   1.00
H483   H     0.70406   0.76010   0.25045   0.00000  Uiso   1.00
H484   H     0.96271   0.90630   0.24874   0.00000  Uiso   1.00
H485   H     0.96261   0.76010   0.24952   0.00000  Uiso   1.00
H486   H     0.70396   0.90630   0.25129   0.00000  Uiso   1.00
C487   C     0.08668   0.16665   0.75020   0.00000  Uiso   1.00
C488   C     0.24665   0.16665   0.74980   0.00000  Uiso   1.00
C489   C     0.16927   0.16670   0.66409   0.00000  Uiso   1.00
C490   C     0.16406   0.16670   0.83591   0.00000  Uiso   1.00
C491   C     0.19454   0.02402   0.77666   0.00000  Uiso   1.00
C492   C     0.13797   0.30953   0.72430   0.00000  Uiso   1.00
C493   C     0.13880   0.02402   0.72334   0.00000  Uiso   1.00
C494   C     0.19537   0.30953   0.77570   0.00000  Uiso   1.00
C495   C     0.02129   0.12548   0.75023   0.00000  Uiso   1.00
C496   C     0.31206   0.20759   0.74950   0.00000  Uiso   1.00
C497   C     0.31204   0.12548   0.74975   0.00000  Uiso   1.00
C498   C     0.02127   0.20759   0.75051   0.00000  Uiso   1.00
C499   C     0.15976   0.20453   0.54675   0.00000  Uiso   1.00
C500   C     0.15277   0.12631   0.95240   0.00000  Uiso   1.00
C501   C     0.17353   0.20454   0.95326   0.00000  Uiso   1.00
C502   C     0.18054   0.12631   0.54760   0.00000  Uiso   1.00
C503   C     0.16593   0.20687   0.59183   0.00000  Uiso   1.00
C504   C     0.15068   0.12658   0.90658   0.00000  Uiso   1.00
C505   C     0.16738   0.20687   0.90817   0.00000  Uiso   1.00
C506   C     0.18264   0.12658   0.59341   0.00000  Uiso   1.00
C507   C     0.17317   0.16678   0.61626   0.00000  Uiso   1.00
C508   C     0.16015   0.16678   0.88374   0.00000  Uiso   1.00
C509   C     0.16785   0.16480   0.52411   0.00000  Uiso   1.00
C510   C     0.16544   0.16480   0.97589   0.00000  Uiso   1.00
C511   C     0.29083   0.16656   0.74955   0.00000  Uiso   1.00
C512   C     0.04251   0.16656   0.75045   0.00000  Uiso   1.00
N513   N     0.16667   0.28573   0.75000   0.00000  Uiso   1.00
N514   N     0.16667   0.04760   0.75000   0.00000  Uiso   1.00
O515   O     0.10559   0.20487   0.74999   0.00000  Uiso   1.00
O516   O     0.22774   0.12846   0.75000   0.00000  Uiso   1.00
O517   O     0.22774   0.20487   0.75000   0.00000  Uiso   1.00
O518   O     0.10559   0.12846   0.74999   0.00000  Uiso   1.00
O519   O     0.16666   0.20489   0.68453   0.00000  Uiso   1.00
O520   O     0.16667   0.12845   0.81547   0.00000  Uiso   1.00
O521   O     0.16667   0.20489   0.81547   0.00000  Uiso   1.00
O522   O     0.16666   0.12845   0.68453   0.00000  Uiso   1.00
Zn523  Zn    0.16667   0.21771   0.75000   0.00000  Uiso   1.00
Zn524  Zn    0.16667   0.11563   0.75000   0.00000  Uiso   1.00
Br525  Br    0.23262   0.05560   0.81650   0.00000  Uiso   1.00
Br526  Br    0.09529   0.27889   0.68937   0.00000  Uiso   1.00
Br527  Br    0.10072   0.05560   0.68349   0.00000  Uiso   1.00
Br528  Br    0.23804   0.27889   0.81063   0.00000  Uiso   1.00
H529   H     0.14973   0.23484   0.52954   0.00000  Uiso   1.00
H530   H     0.14400   0.09603   0.96955   0.00000  Uiso   1.00
H531   H     0.18355   0.23484   0.97047   0.00000  Uiso   1.00
H532   H     0.18931   0.09603   0.53044   0.00000  Uiso   1.00
Br533  Br    0.16968   0.26735   0.61458   0.00000  Uiso   1.00
Br534  Br    0.13053   0.07182   0.87883   0.00000  Uiso   1.00
Br535  Br    0.16366   0.26734   0.88542   0.00000  Uiso   1.00
Br536  Br    0.20282   0.07183   0.62116   0.00000  Uiso   1.00
H537   H     0.03739   0.09344   0.75045   0.00000  Uiso   1.00
H538   H     0.29604   0.23964   0.74874   0.00000  Uiso   1.00
H539   H     0.29594   0.09344   0.74952   0.00000  Uiso   1.00
H540   H     0.03729   0.23964   0.75129   0.00000  Uiso   1.00
C541   C     0.42001   0.16665   0.75020   0.00000  Uiso   1.00
C542   C     0.57999   0.16665   0.74980   0.00000  Uiso   1.00
C543   C     0.50261   0.16670   0.66409   0.00000  Uiso   1.00
C544   C     0.49739   0.16670   0.83591   0.00000  Uiso   1.00
C545   C     0.52787   0.02402   0.77666   0.00000  Uiso   1.00
C546   C     0.47130   0.30953   0.72430   0.00000  Uiso   1.00
C547   C     0.47213   0.02402   0.72334   0.00000  Uiso   1.00
C548   C     0.52870   0.30953   0.77570   0.00000  Uiso   1.00
C549   C     0.35462   0.12548   0.75023   0.00000  Uiso   1.00
C550   C     0.64540   0.20759   0.74950   0.00000  Uiso   1.00
C551   C     0.64538   0.12548   0.74975   0.00000  Uiso   1.00
C552   C     0.35460   0.20759   0.75051   0.00000  Uiso   1.00
C553   C     0.49310   0.20453   0.54675   0.00000  Uiso   1.00
C554   C     0.48610   0.12631   0.95240   0.00000  Uiso   1.00
C555   C     0.50686   0.20454   0.95326   0.00000  Uiso   1.00
C556   C     0.51387   0.12631   0.54760   0.00000  Uiso   1.00
C557   C     0.49927   0.20687   0.59183   0.00000  Uiso   1.00
C558   C     0.48401   0.12658   0.90658   0.00000  Uiso   1.00
C559   C     0.50071   0.20687   0.90817   0.00000  Uiso   1.00
C560   C     0.51598   0.12658   0.59341   0.00000  Uiso   1.00
C561   C     0.50651   0.16678   0.61626   0.00000  Uiso   1.00
C562   C     0.49349   0.16678   0.88374   0.00000  Uiso   1.00
C563   C     0.50118   0.16480   0.52411   0.00000  Uiso   1.00
C564   C     0.49877   0.16480   0.97589   0.00000  Uiso   1.00
C565   C     0.62416   0.16656   0.74955   0.00000  Uiso   1.00
C566   C     0.37584   0.16656   0.75045   0.00000  Uiso   1.00
N567   N     0.50000   0.28573   0.75000   0.00000  Uiso   1.00
N568   N     0.50000   0.04760   0.75000   0.00000  Uiso   1.00
O569   O     0.43892   0.20487   0.74999   0.00000  Uiso   1.00
O570   O     0.56108   0.12846   0.75000   0.00000  Uiso   1.00
O571   O     0.56108   0.20487   0.75000   0.00000  Uiso   1.00
O572   O     0.43892   0.12846   0.74999   0.00000  Uiso   1.00
O573   O     0.50000   0.20489   0.68453   0.00000  Uiso   1.00
O574   O     0.50000   0.12845   0.81547   0.00000  Uiso   1.00
O575   O     0.50000   0.20489   0.81547   0.00000  Uiso   1.00
O576   O     0.50000   0.12845   0.68453   0.00000  Uiso   1.00
Zn577  Zn    0.50000   0.21771   0.75000   0.00000  Uiso   1.00
Zn578  Zn    0.50000   0.11563   0.75000   0.00000  Uiso   1.00
Br579  Br    0.56595   0.05560   0.81650   0.00000  Uiso   1.00
Br580  Br    0.42862   0.27889   0.68937   0.00000  Uiso   1.00
Br581  Br    0.43405   0.05560   0.68349   0.00000  Uiso   1.00
Br582  Br    0.57137   0.27889   0.81063   0.00000  Uiso   1.00
H583   H     0.48306   0.23484   0.52954   0.00000  Uiso   1.00
H584   H     0.47733   0.09603   0.96955   0.00000  Uiso   1.00
H585   H     0.51689   0.23484   0.97047   0.00000  Uiso   1.00
H586   H     0.52265   0.09603   0.53044   0.00000  Uiso   1.00
Br587  Br    0.50301   0.26735   0.61458   0.00000  Uiso   1.00
Br588  Br    0.46387   0.07182   0.87883   0.00000  Uiso   1.00
Br589  Br    0.49699   0.26734   0.88542   0.00000  Uiso   1.00
Br590  Br    0.53615   0.07183   0.62116   0.00000  Uiso   1.00
H591   H     0.37073   0.09344   0.75045   0.00000  Uiso   1.00
H592   H     0.62938   0.23964   0.74874   0.00000  Uiso   1.00
H593   H     0.62927   0.09344   0.74952   0.00000  Uiso   1.00
H594   H     0.37062   0.23964   0.75129   0.00000  Uiso   1.00
C595   C     0.75335   0.16665   0.75020   0.00000  Uiso   1.00
C596   C     0.91332   0.16665   0.74980   0.00000  Uiso   1.00
C597   C     0.83594   0.16670   0.66409   0.00000  Uiso   1.00
C598   C     0.83073   0.16670   0.83591   0.00000  Uiso   1.00
C599   C     0.86121   0.02402   0.77666   0.00000  Uiso   1.00
C600   C     0.80463   0.30953   0.72430   0.00000  Uiso   1.00
C601   C     0.80546   0.02402   0.72334   0.00000  Uiso   1.00
C602   C     0.86203   0.30953   0.77570   0.00000  Uiso   1.00
C603   C     0.68796   0.12548   0.75023   0.00000  Uiso   1.00
C604   C     0.97873   0.20759   0.74950   0.00000  Uiso   1.00
C605   C     0.97871   0.12548   0.74975   0.00000  Uiso   1.00
C606   C     0.68794   0.20759   0.75051   0.00000  Uiso   1.00
C607   C     0.82643   0.20453   0.54675   0.00000  Uiso   1.00
C608   C     0.81943   0.12631   0.95240   0.00000  Uiso   1.00
C609   C     0.84019   0.20454   0.95326   0.00000  Uiso   1.00
C610   C     0.84721   0.12631   0.54760   0.00000  Uiso   1.00
C611   C     0.83260   0.20687   0.59183   0.00000  Uiso   1.00
C612   C     0.81735   0.12658   0.90658   0.00000  Uiso   1.00
C613   C     0.83404   0.20687   0.90817   0.00000  Uiso   1.00
C614   C     0.84931   0.12658   0.59341   0.00000  Uiso   1.00
C615   C     0.83984   0.16678   0.61626   0.00000  Uiso   1.00
C616   C     0.82682   0.16678   0.88374   0.00000  Uiso   1.00
C617   C     0.83452   0.16480   0.52411   0.00000  Uiso   1.00
C618   C     0.83211   0.16480   0.97589   0.00000  Uiso   1.00
C619   C     0.95749   0.16656   0.74955   0.00000  Uiso   1.00
C620   C     0.70917   0.16656   0.75045   0.00000  Uiso   1.00
N621   N     0.83333   0.28573   0.75000   0.00000  Uiso   1.00
N622   N     0.83333   0.04760   0.75000   0.00000  Uiso   1.00
O623   O     0.77226   0.20487   0.74999   0.00000  Uiso   1.00
O624   O     0.89441   0.12846   0.75000   0.00000  Uiso   1.00
O625   O     0.89441   0.20487   0.75000   0.00000  Uiso   1.00
O626   O     0.77226   0.12846   0.74999   0.00000  Uiso   1.00
O627   O     0.83333   0.20489   0.68453   0.00000  Uiso   1.00
O628   O     0.83334   0.12845   0.81547   0.00000  Uiso   1.00
O629   O     0.83334   0.20489   0.81547   0.00000  Uiso   1.00
O630   O     0.83333   0.12845   0.68453   0.00000  Uiso   1.00
Zn631  Zn    0.83333   0.21771   0.75000   0.00000  Uiso   1.00
Zn632  Zn    0.83333   0.11563   0.75000   0.00000  Uiso   1.00
Br633  Br    0.89929   0.05560   0.81650   0.00000  Uiso   1.00
Br634  Br    0.76196   0.27889   0.68937   0.00000  Uiso   1.00
Br635  Br    0.76739   0.05560   0.68349   0.00000  Uiso   1.00
Br636  Br    0.90471   0.27889   0.81063   0.00000  Uiso   1.00
H637   H     0.81640   0.23484   0.52954   0.00000  Uiso   1.00
H638   H     0.81067   0.09603   0.96955   0.00000  Uiso   1.00
H639   H     0.85022   0.23484   0.97047   0.00000  Uiso   1.00
H640   H     0.85598   0.09603   0.53044   0.00000  Uiso   1.00
Br641  Br    0.83635   0.26735   0.61458   0.00000  Uiso   1.00
Br642  Br    0.79720   0.07182   0.87883   0.00000  Uiso   1.00
Br643  Br    0.83032   0.26734   0.88542   0.00000  Uiso   1.00
Br644  Br    0.86948   0.07183   0.62116   0.00000  Uiso   1.00
H645   H     0.70406   0.09344   0.75045   0.00000  Uiso   1.00
H646   H     0.96271   0.23964   0.74874   0.00000  Uiso   1.00
H647   H     0.96261   0.09344   0.74952   0.00000  Uiso   1.00
H648   H     0.70396   0.23964   0.75129   0.00000  Uiso   1.00
C649   C     0.08668   0.49998   0.75020   0.00000  Uiso   1.00
C650   C     0.24665   0.49998   0.74980   0.00000  Uiso   1.00
C651   C     0.16927   0.50003   0.66409   0.00000  Uiso   1.00
C652   C     0.16406   0.50003   0.83591   0.00000  Uiso   1.00
C653   C     0.19454   0.35735   0.77666   0.00000  Uiso   1.00
C654   C     0.13797   0.64287   0.72430   0.00000  Uiso   1.00
C655   C     0.13880   0.35735   0.72334   0.00000  Uiso   1.00
C656   C     0.19537   0.64287   0.77570   0.00000  Uiso   1.00
C657   C     0.02129   0.45881   0.75023   0.00000  Uiso   1.00
C658   C     0.31206   0.54092   0.74950   0.00000  Uiso   1.00
C659   C     0.31204   0.45881   0.74975   0.00000  Uiso   1.00
C660   C     0.02127   0.54092   0.75051   0.00000  Uiso   1.00
C661   C     0.15976   0.53787   0.54675   0.00000  Uiso   1.00
C662   C     0.15277   0.45964   0.95240   0.00000  Uiso   1.00
C663   C     0.17353   0.53787   0.95326   0.00000  Uiso   1.00
C664   C     0.18054   0.45964   0.54760   0.00000  Uiso   1.00
C665   C     0.16593   0.54020   0.59183   0.00000  Uiso   1.00
C666   C     0.15068   0.45991   0.90658   0.00000  Uiso   1.00
C667   C     0.16738   0.54020   0.90817   0.00000  Uiso   1.00
C668   C     0.18264   0.45991   0.59341   0.00000  Uiso   1.00
C669   C     0.17317   0.50012   0.61626   0.00000  Uiso   1.00
C670   C     0.16015   0.50011   0.88374   0.00000  Uiso   1.00
C671   C     0.16785   0.49813   0.52411   0.00000  Uiso   1.00
C672   C     0.16544   0.49813   0.97589   0.00000  Uiso   1.00
C673   C     0.29083   0.49990   0.74955   0.00000  Uiso   1.00
C674   C     0.04251   0.49990   0.75045   0.00000  Uiso   1.00
N675   N     0.16667   0.61907   0.75000   0.00000  Uiso   1.00
N676   N     0.16667   0.38093   0.75000   0.00000  Uiso   1.00
O677   O     0.10559   0.53821   0.74999   0.00000  Uiso   1.00
O678   O     0.22774   0.46179   0.75000   0.00000  Uiso   1.00
O679   O     0.22774   0.53821   0.75000   0.00000  Uiso   1.00
O680   O     0.10559   0.46179   0.74999   0.00000  Uiso   1.00
O681   O     0.16666   0.53822   0.68453   0.00000  Uiso   1.00
O682   O     0.16667   0.46178   0.81547   0.00000  Uiso   1.00
O683   O     0.16667   0.53822   0.81547   0.00000  Uiso   1.00
O684   O     0.16666   0.46178   0.68453   0.00000  Uiso   1.00
Zn685  Zn    0.16667   0.55104   0.75000   0.00000  Uiso   1.00
Zn686  Zn    0.16667   0.44896   0.75000   0.00000  Uiso   1.00
Br687  Br    0.23262   0.38893   0.81650   0.00000  Uiso   1.00
Br688  Br    0.09529   0.61222   0.68937   0.00000  Uiso   1.00
Br689  Br    0.10072   0.38893   0.68349   0.00000  Uiso   1.00
Br690  Br    0.23804   0.61222   0.81063   0.00000  Uiso   1.00
H691   H     0.14973   0.56817   0.52954   0.00000  Uiso   1.00
H692   H     0.14400   0.42936   0.96955   0.00000  Uiso   1.00
H693   H     0.18355   0.56818   0.97047   0.00000  Uiso   1.00
H694   H     0.18931   0.42936   0.53044   0.00000  Uiso   1.00
Br695  Br    0.16968   0.60068   0.61458   0.00000  Uiso   1.00
Br696  Br    0.13053   0.40515   0.87883   0.00000  Uiso   1.00
Br697  Br    0.16366   0.60068   0.88542   0.00000  Uiso   1.00
Br698  Br    0.20282   0.40516   0.62116   0.00000  Uiso   1.00
H699   H     0.03739   0.42677   0.75045   0.00000  Uiso   1.00
H700   H     0.29604   0.57297   0.74874   0.00000  Uiso   1.00
H701   H     0.29594   0.42677   0.74952   0.00000  Uiso   1.00
H702   H     0.03729   0.57297   0.75129   0.00000  Uiso   1.00
C703   C     0.42001   0.49998   0.75020   0.00000  Uiso   1.00
C704   C     0.57999   0.49998   0.74980   0.00000  Uiso   1.00
C705   C     0.50261   0.50003   0.66409   0.00000  Uiso   1.00
C706   C     0.49739   0.50003   0.83591   0.00000  Uiso   1.00
C707   C     0.52787   0.35735   0.77666   0.00000  Uiso   1.00
C708   C     0.47130   0.64287   0.72430   0.00000  Uiso   1.00
C709   C     0.47213   0.35735   0.72334   0.00000  Uiso   1.00
C710   C     0.52870   0.64287   0.77570   0.00000  Uiso   1.00
C711   C     0.35462   0.45881   0.75023   0.00000  Uiso   1.00
C712   C     0.64540   0.54092   0.74950   0.00000  Uiso   1.00
C713   C     0.64538   0.45881   0.74975   0.00000  Uiso   1.00
C714   C     0.35460   0.54092   0.75051   0.00000  Uiso   1.00
C715   C     0.49310   0.53787   0.54675   0.00000  Uiso   1.00
C716   C     0.48610   0.45964   0.95240   0.00000  Uiso   1.00
C717   C     0.50686   0.53787   0.95326   0.00000  Uiso   1.00
C718   C     0.51387   0.45964   0.54760   0.00000  Uiso   1.00
C719   C     0.49927   0.54020   0.59183   0.00000  Uiso   1.00
C720   C     0.48401   0.45991   0.90658   0.00000  Uiso   1.00
C721   C     0.50071   0.54020   0.90817   0.00000  Uiso   1.00
C722   C     0.51598   0.45991   0.59341   0.00000  Uiso   1.00
C723   C     0.50651   0.50012   0.61626   0.00000  Uiso   1.00
C724   C     0.49349   0.50011   0.88374   0.00000  Uiso   1.00
C725   C     0.50118   0.49813   0.52411   0.00000  Uiso   1.00
C726   C     0.49877   0.49813   0.97589   0.00000  Uiso   1.00
C727   C     0.62416   0.49990   0.74955   0.00000  Uiso   1.00
C728   C     0.37584   0.49990   0.75045   0.00000  Uiso   1.00
N729   N     0.50000   0.61907   0.75000   0.00000  Uiso   1.00
N730   N     0.50000   0.38093   0.75000   0.00000  Uiso   1.00
O731   O     0.43892   0.53821   0.74999   0.00000  Uiso   1.00
O732   O     0.56108   0.46179   0.75000   0.00000  Uiso   1.00
O733   O     0.56108   0.53821   0.75000   0.00000  Uiso   1.00
O734   O     0.43892   0.46179   0.74999   0.00000  Uiso   1.00
O735   O     0.50000   0.53822   0.68453   0.00000  Uiso   1.00
O736   O     0.50000   0.46178   0.81547   0.00000  Uiso   1.00
O737   O     0.50000   0.53822   0.81547   0.00000  Uiso   1.00
O738   O     0.50000   0.46178   0.68453   0.00000  Uiso   1.00
Zn739  Zn    0.50000   0.55104   0.75000   0.00000  Uiso   1.00
Zn740  Zn    0.50000   0.44896   0.75000   0.00000  Uiso   1.00
Br741  Br    0.56595   0.38893   0.81650   0.00000  Uiso   1.00
Br742  Br    0.42862   0.61222   0.68937   0.00000  Uiso   1.00
Br743  Br    0.43405   0.38893   0.68349   0.00000  Uiso   1.00
Br744  Br    0.57137   0.61222   0.81063   0.00000  Uiso   1.00
H745   H     0.48306   0.56817   0.52954   0.00000  Uiso   1.00
H746   H     0.47733   0.42936   0.96955   0.00000  Uiso   1.00
H747   H     0.51689   0.56818   0.97047   0.00000  Uiso   1.00
H748   H     0.52265   0.42936   0.53044   0.00000  Uiso   1.00
Br749  Br    0.50301   0.60068   0.61458   0.00000  Uiso   1.00
Br750  Br    0.46387   0.40515   0.87883   0.00000  Uiso   1.00
Br751  Br    0.49699   0.60068   0.88542   0.00000  Uiso   1.00
Br752  Br    0.53615   0.40516   0.62116   0.00000  Uiso   1.00
H753   H     0.37073   0.42677   0.75045   0.00000  Uiso   1.00
H754   H     0.62938   0.57297   0.74874   0.00000  Uiso   1.00
H755   H     0.62927   0.42677   0.74952   0.00000  Uiso   1.00
H756   H     0.37062   0.57297   0.75129   0.00000  Uiso   1.00
C757   C     0.75335   0.49998   0.75020   0.00000  Uiso   1.00
C758   C     0.91332   0.49998   0.74980   0.00000  Uiso   1.00
C759   C     0.83594   0.50003   0.66409   0.00000  Uiso   1.00
C760   C     0.83073   0.50003   0.83591   0.00000  Uiso   1.00
C761   C     0.86121   0.35735   0.77666   0.00000  Uiso   1.00
C762   C     0.80463   0.64287   0.72430   0.00000  Uiso   1.00
C763   C     0.80546   0.35735   0.72334   0.00000  Uiso   1.00
C764   C     0.86203   0.64287   0.77570   0.00000  Uiso   1.00
C765   C     0.68796   0.45881   0.75023   0.00000  Uiso   1.00
C766   C     0.97873   0.54092   0.74950   0.00000  Uiso   1.00
C767   C     0.97871   0.45881   0.74975   0.00000  Uiso   1.00
C768   C     0.68794   0.54092   0.75051   0.00000  Uiso   1.00
C769   C     0.82643   0.53787   0.54675   0.00000  Uiso   1.00
C770   C     0.81943   0.45964   0.95240   0.00000  Uiso   1.00
C771   C     0.84019   0.53787   0.95326   0.00000  Uiso   1.00
C772   C     0.84721   0.45964   0.54760   0.00000  Uiso   1.00
C773   C     0.83260   0.54020   0.59183   0.00000  Uiso   1.00
C774   C     0.81735   0.45991   0.90658   0.00000  Uiso   1.00
C775   C     0.83404   0.54020   0.90817   0.00000  Uiso   1.00
C776   C     0.84931   0.45991   0.59341   0.00000  Uiso   1.00
C777   C     0.83984   0.50012   0.61626   0.00000  Uiso   1.00
C778   C     0.82682   0.50011   0.88374   0.00000  Uiso   1.00
C779   C     0.83452   0.49813   0.52411   0.00000  Uiso   1.00
C780   C     0.83211   0.49813   0.97589   0.00000  Uiso   1.00
C781   C     0.95749   0.49990   0.74955   0.00000  Uiso   1.00
C782   C     0.70917   0.49990   0.75045   0.00000  Uiso   1.00
N783   N     0.83333   0.61907   0.75000   0.00000  Uiso   1.00
N784   N     0.83333   0.38093   0.75000   0.00000  Uiso   1.00
O785   O     0.77226   0.53821   0.74999   0.00000  Uiso   1.00
O786   O     0.89441   0.46179   0.75000   0.00000  Uiso   1.00
O787   O     0.89441   0.53821   0.75000   0.00000  Uiso   1.00
O788   O     0.77226   0.46179   0.74999   0.00000  Uiso   1.00
O789   O     0.83333   0.53822   0.68453   0.00000  Uiso   1.00
O790   O     0.83334   0.46178   0.81547   0.00000  Uiso   1.00
O791   O     0.83334   0.53822   0.81547   0.00000  Uiso   1.00
O792   O     0.83333   0.46178   0.68453   0.00000  Uiso   1.00
Zn793  Zn    0.83333   0.55104   0.75000   0.00000  Uiso   1.00
Zn794  Zn    0.83333   0.44896   0.75000   0.00000  Uiso   1.00
Br795  Br    0.89929   0.38893   0.81650   0.00000  Uiso   1.00
Br796  Br    0.76196   0.61222   0.68937   0.00000  Uiso   1.00
Br797  Br    0.76739   0.38893   0.68349   0.00000  Uiso   1.00
Br798  Br    0.90471   0.61222   0.81063   0.00000  Uiso   1.00
H799   H     0.81640   0.56817   0.52954   0.00000  Uiso   1.00
H800   H     0.81067   0.42936   0.96955   0.00000  Uiso   1.00
H801   H     0.85022   0.56818   0.97047   0.00000  Uiso   1.00
H802   H     0.85598   0.42936   0.53044   0.00000  Uiso   1.00
Br803  Br    0.83635   0.60068   0.61458   0.00000  Uiso   1.00
Br804  Br    0.79720   0.40515   0.87883   0.00000  Uiso   1.00
Br805  Br    0.83032   0.60068   0.88542   0.00000  Uiso   1.00
Br806  Br    0.86948   0.40516   0.62116   0.00000  Uiso   1.00
H807   H     0.70406   0.42677   0.75045   0.00000  Uiso   1.00
H808   H     0.96271   0.57297   0.74874   0.00000  Uiso   1.00
H809   H     0.96261   0.42677   0.74952   0.00000  Uiso   1.00
H810   H     0.70396   0.57297   0.75129   0.00000  Uiso   1.00
C811   C     0.08668   0.83331   0.75020   0.00000  Uiso   1.00
C812   C     0.24665   0.83331   0.74980   0.00000  Uiso   1.00
C813   C     0.16927   0.83337   0.66409   0.00000  Uiso   1.00
C814   C     0.16406   0.83336   0.83591   0.00000  Uiso   1.00
C815   C     0.19454   0.69068   0.77666   0.00000  Uiso   1.00
C816   C     0.13797   0.97620   0.72430   0.00000  Uiso   1.00
C817   C     0.13880   0.69068   0.72334   0.00000  Uiso   1.00
C818   C     0.19537   0.97620   0.77570   0.00000  Uiso   1.00
C819   C     0.02129   0.79214   0.75023   0.00000  Uiso   1.00
C820   C     0.31206   0.87425   0.74950   0.00000  Uiso   1.00
C821   C     0.31204   0.79214   0.74975   0.00000  Uiso   1.00
C822   C     0.02127   0.87425   0.75051   0.00000  Uiso   1.00
C823   C     0.15976   0.87120   0.54675   0.00000  Uiso   1.00
C824   C     0.15277   0.79298   0.95240   0.00000  Uiso   1.00
C825   C     0.17353   0.87120   0.95326   0.00000  Uiso   1.00
C826   C     0.18054   0.79298   0.54760   0.00000  Uiso   1.00
C827   C     0.16593   0.87354   0.59183   0.00000  Uiso   1.00
C828   C     0.15068   0.79324   0.90658   0.00000  Uiso   1.00
C829   C     0.16738   0.87354   0.90817   0.00000  Uiso   1.00
C830   C     0.18264   0.79325   0.59341   0.00000  Uiso   1.00
C831   C     0.17317   0.83345   0.61626   0.00000  Uiso   1.00
C832   C     0.16015   0.83345   0.88374   0.00000  Uiso   1.00
C833   C     0.16785   0.83146   0.52411   0.00000  Uiso   1.00
C834   C     0.16544   0.83146   0.97589   0.00000  Uiso   1.00
C835   C     0.29083   0.83323   0.74955   0.00000  Uiso   1.00
C836   C     0.04251   0.83323   0.75045   0.00000  Uiso   1.00
N837   N     0.16667   0.95240   0.75000   0.00000  Uiso   1.00
N838   N     0.16667   0.71427   0.75000   0.00000  Uiso   1.00
O839   O     0.10559   0.87154   0.74999   0.00000  Uiso   1.00
O840   O     0.22774   0.79513   0.75000   0.00000  Uiso   1.00
O841   O     0.22774   0.87154   0.75000   0.00000  Uiso   1.00
O842   O     0.10559   0.79513   0.74999   0.00000  Uiso   1.00
O843   O     0.16666   0.87155   0.68453   0.00000  Uiso   1.00
O844   O     0.16667   0.79511   0.81547   0.00000  Uiso   1.00
O845   O     0.16667   0.87155   0.81547   0.00000  Uiso   1.00
O846   O     0.16666   0.79511   0.68453   0.00000  Uiso   1.00
Zn847  Zn    0.16667   0.88437   0.75000   0.00000  Uiso   1.00
Zn848  Zn    0.16667   0.78229   0.75000   0.00000  Uiso   1.00
Br849  Br    0.23262   0.72227   0.81650   0.00000  Uiso   1.00
Br850  Br    0.09529   0.94556   0.68937   0.00000  Uiso   1.00
Br851  Br    0.10072   0.72227   0.68349   0.00000  Uiso   1.00
Br852  Br    0.23804   0.94556   0.81063   0.00000  Uiso   1.00
H853   H     0.14973   0.90150   0.52954   0.00000  Uiso   1.00
H854   H     0.14400   0.76269   0.96955   0.00000  Uiso   1.00
H855   H     0.18355   0.90151   0.97047   0.00000  Uiso   1.00
H856   H     0.18931   0.76270   0.53044   0.00000  Uiso   1.00
Br857  Br    0.16968   0.93402   0.61458   0.00000  Uiso   1.00
Br858  Br    0.13053   0.73849   0.87883   0.00000  Uiso   1.00
Br859  Br    0.16366   0.93401   0.88542   0.00000  Uiso   1.00
Br860  Br    0.20282   0.73850   0.62116   0.00000  Uiso   1.00
H861   H     0.03739   0.76010   0.75045   0.00000  Uiso   1.00
H862   H     0.29604   0.90630   0.74874   0.00000  Uiso   1.00
H863   H     0.29594   0.76010   0.74952   0.00000  Uiso   1.00
H864   H     0.03729   0.90630   0.75129   0.00000  Uiso   1.00
C865   C     0.42001   0.83331   0.75020   0.00000  Uiso   1.00
C866   C     0.57999   0.83331   0.74980   0.00000  Uiso   1.00
C867   C     0.50261   0.83337   0.66409   0.00000  Uiso   1.00
C868   C     0.49739   0.83336   0.83591   0.00000  Uiso   1.00
C869   C     0.52787   0.69068   0.77666   0.00000  Uiso   1.00
C870   C     0.47130   0.97620   0.72430   0.00000  Uiso   1.00
C871   C     0.47213   0.69068   0.72334   0.00000  Uiso   1.00
C872   C     0.52870   0.97620   0.77570   0.00000  Uiso   1.00
C873   C     0.35462   0.79214   0.75023   0.00000  Uiso   1.00
C874   C     0.64540   0.87425   0.74950   0.00000  Uiso   1.00
C875   C     0.64538   0.79214   0.74975   0.00000  Uiso   1.00
C876   C     0.35460   0.87425   0.75051   0.00000  Uiso   1.00
C877   C     0.49310   0.87120   0.54675   0.00000  Uiso   1.00
C878   C     0.48610   0.79298   0.95240   0.00000  Uiso   1.00
C879   C     0.50686   0.87120   0.95326   0.00000  Uiso   1.00
C880   C     0.51387   0.79298   0.54760   0.00000  Uiso   1.00
C881   C     0.49927   0.87354   0.59183   0.00000  Uiso   1.00
C882   C     0.48401   0.79324   0.90658   0.00000  Uiso   1.00
C883   C     0.50071   0.87354   0.90817   0.00000  Uiso   1.00
C884   C     0.51598   0.79325   0.59341   0.00000  Uiso   1.00
C885   C     0.50651   0.83345   0.61626   0.00000  Uiso   1.00
C886   C     0.49349   0.83345   0.88374   0.00000  Uiso   1.00
C887   C     0.50118   0.83146   0.52411   0.00000  Uiso   1.00
C888   C     0.49877   0.83146   0.97589   0.00000  Uiso   1.00
C889   C     0.62416   0.83323   0.74955   0.00000  Uiso   1.00
C890   C     0.37584   0.83323   0.75045   0.00000  Uiso   1.00
N891   N     0.50000   0.95240   0.75000   0.00000  Uiso   1.00
N892   N     0.50000   0.71427   0.75000   0.00000  Uiso   1.00
O893   O     0.43892   0.87154   0.74999   0.00000  Uiso   1.00
O894   O     0.56108   0.79513   0.75000   0.00000  Uiso   1.00
O895   O     0.56108   0.87154   0.75000   0.00000  Uiso   1.00
O896   O     0.43892   0.79513   0.74999   0.00000  Uiso   1.00
O897   O     0.50000   0.87155   0.68453   0.00000  Uiso   1.00
O898   O     0.50000   0.79511   0.81547   0.00000  Uiso   1.00
O899   O     0.50000   0.87155   0.81547   0.00000  Uiso   1.00
O900   O     0.50000   0.79511   0.68453   0.00000  Uiso   1.00
Zn901  Zn    0.50000   0.88437   0.75000   0.00000  Uiso   1.00
Zn902  Zn    0.50000   0.78229   0.75000   0.00000  Uiso   1.00
Br903  Br    0.56595   0.72227   0.81650   0.00000  Uiso   1.00
Br904  Br    0.42862   0.94556   0.68937   0.00000  Uiso   1.00
Br905  Br    0.43405   0.72227   0.68349   0.00000  Uiso   1.00
Br906  Br    0.57137   0.94556   0.81063   0.00000  Uiso   1.00
H907   H     0.48306   0.90150   0.52954   0.00000  Uiso   1.00
H908   H     0.47733   0.76269   0.96955   0.00000  Uiso   1.00
H909   H     0.51689   0.90151   0.97047   0.00000  Uiso   1.00
H910   H     0.52265   0.76270   0.53044   0.00000  Uiso   1.00
Br911  Br    0.50301   0.93402   0.61458   0.00000  Uiso   1.00
Br912  Br    0.46387   0.73849   0.87883   0.00000  Uiso   1.00
Br913  Br    0.49699   0.93401   0.88542   0.00000  Uiso   1.00
Br914  Br    0.53615   0.73850   0.62116   0.00000  Uiso   1.00
H915   H     0.37073   0.76010   0.75045   0.00000  Uiso   1.00
H916   H     0.62938   0.90630   0.74874   0.00000  Uiso   1.00
H917   H     0.62927   0.76010   0.74952   0.00000  Uiso   1.00
H918   H     0.37062   0.90630   0.75129   0.00000  Uiso   1.00
C919   C     0.75335   0.83331   0.75020   0.00000  Uiso   1.00
C920   C     0.91332   0.83331   0.74980   0.00000  Uiso   1.00
C921   C     0.83594   0.83337   0.66409   0.00000  Uiso   1.00
C922   C     0.83073   0.83336   0.83591   0.00000  Uiso   1.00
C923   C     0.86121   0.69068   0.77666   0.00000  Uiso   1.00
C924   C     0.80463   0.97620   0.72430   0.00000  Uiso   1.00
C925   C     0.80546   0.69068   0.72334   0.00000  Uiso   1.00
C926   C     0.86203   0.97620   0.77570   0.00000  Uiso   1.00
C927   C     0.68796   0.79214   0.75023   0.00000  Uiso   1.00
C928   C     0.97873   0.87425   0.74950   0.00000  Uiso   1.00
C929   C     0.97871   0.79214   0.74975   0.00000  Uiso   1.00
C930   C     0.68794   0.87425   0.75051   0.00000  Uiso   1.00
C931   C     0.82643   0.87120   0.54675   0.00000  Uiso   1.00
C932   C     0.81943   0.79298   0.95240   0.00000  Uiso   1.00
C933   C     0.84019   0.87120   0.95326   0.00000  Uiso   1.00
C934   C     0.84721   0.79298   0.54760   0.00000  Uiso   1.00
C935   C     0.83260   0.87354   0.59183   0.00000  Uiso   1.00
C936   C     0.81735   0.79324   0.90658   0.00000  Uiso   1.00
C937   C     0.83404   0.87354   0.90817   0.00000  Uiso   1.00
C938   C     0.84931   0.79325   0.59341   0.00000  Uiso   1.00
C939   C     0.83984   0.83345   0.61626   0.00000  Uiso   1.00
C940   C     0.82682   0.83345   0.88374   0.00000  Uiso   1.00
C941   C     0.83452   0.83146   0.52411   0.00000  Uiso   1.00
C942   C     0.83211   0.83146   0.97589   0.00000  Uiso   1.00
C943   C     0.95749   0.83323   0.74955   0.00000  Uiso   1.00
C944   C     0.70917   0.83323   0.75045   0.00000  Uiso   1.00
N945   N     0.83333   0.95240   0.75000   0.00000  Uiso   1.00
N946   N     0.83333   0.71427   0.75000   0.00000  Uiso   1.00
O947   O     0.77226   0.87154   0.74999   0.00000  Uiso   1.00
O948   O     0.89441   0.79513   0.75000   0.00000  Uiso   1.00
O949   O     0.89441   0.87154   0.75000   0.00000  Uiso   1.00
O950   O     0.77226   0.79513   0.74999   0.00000  Uiso   1.00
O951   O     0.83333   0.87155   0.68453   0.00000  Uiso   1.00
O952   O     0.83334   0.79511   0.81547   0.00000  Uiso   1.00
O953   O     0.83334   0.87155   0.81547   0.00000  Uiso   1.00
O954   O     0.83333   0.79511   0.68453   0.00000  Uiso   1.00
Zn955  Zn    0.83333   0.88437   0.75000   0.00000  Uiso   1.00
Zn956  Zn    0.83333   0.78229   0.75000   0.00000  Uiso   1.00
Br957  Br    0.89929   0.72227   0.81650   0.00000  Uiso   1.00
Br958  Br    0.76196   0.94556   0.68937   0.00000  Uiso   1.00
Br959  Br    0.76739   0.72227   0.68349   0.00000  Uiso   1.00
Br960  Br    0.90471   0.94556   0.81063   0.00000  Uiso   1.00
H961   H     0.81640   0.90150   0.52954   0.00000  Uiso   1.00
H962   H     0.81067   0.76269   0.96955   0.00000  Uiso   1.00
H963   H     0.85022   0.90151   0.97047   0.00000  Uiso   1.00
H964   H     0.85598   0.76270   0.53044   0.00000  Uiso   1.00
Br965  Br    0.83635   0.93402   0.61458   0.00000  Uiso   1.00
Br966  Br    0.79720   0.73849   0.87883   0.00000  Uiso   1.00
Br967  Br    0.83032   0.93401   0.88542   0.00000  Uiso   1.00
Br968  Br    0.86948   0.73850   0.62116   0.00000  Uiso   1.00
H969   H     0.70406   0.76010   0.75045   0.00000  Uiso   1.00
H970   H     0.96271   0.90630   0.74874   0.00000  Uiso   1.00
H971   H     0.96261   0.76010   0.74952   0.00000  Uiso   1.00
H972   H     0.70396   0.90630   0.75129   0.00000  Uiso   1.00
loop_
_geom_bond_atom_site_label_1
_geom_bond_atom_site_label_2
_geom_bond_distance
_geom_bond_site_symmetry_2
_ccdc_geom_bond_type
C1     O29     1.288   .     A
C1     C26     1.422   .     S
C1     O32     1.287   .     A
C2     C25     1.422   .     S
C2     O30     1.287   .     A
C2     O31     1.288   .     A
C3     O36     1.298   .     A
C3     C21     1.462   .     S
C3     O33     1.297   .     A
C4     C22     1.462   .     S
C4     O35     1.297   .     A
C4     O34     1.298   .     A
C5     N28     1.370   .     A
C5     Br39    1.922   .     S
C5     C332    1.420   1_545 S
C6     N27     1.374   .     A
C6     Br40    1.921   .     S
C6     C169    1.420   .     S
C7     N28     1.370   .     A
C7     Br41    1.922   .     S
C7     C330    1.420   1_545 S
C8     Br42    1.921   .     S
C8     N27     1.374   .     A
C8     C167    1.420   .     S
C9     C26     1.398   .     A
C9     H51     1.083   .     S
C9     C119    1.370   1_455 S
C10    H52     1.082   .     S
C10    C25     1.397   .     A
C10    C66     1.368   .     S
C11    H53     1.083   .     S
C11    C25     1.398   .     A
C11    C63     1.370   .     S
C12    H54     1.082   .     S
C12    C26     1.397   .     A
C12    C118    1.368   1_455 S
C13    C17     1.373   .     A
C13    C23     1.396   .     A
C13    H43     1.081   .     S
C14    C24     1.397   .     A
C14    H44     1.083   .     S
C14    C18     1.387   .     A
C15    C19     1.373   .     A
C15    C24     1.396   .     A
C15    H45     1.081   .     S
C16    C23     1.397   .     A
C16    C20     1.387   .     A
C16    H46     1.083   .     S
C17    C21     1.415   .     A
C17    Br47    1.925   .     S
C18    Br48    1.928   .     S
C18    C22     1.420   .     A
C19    Br49    1.925   .     S
C19    C22     1.415   .     A
C20    C21     1.421   .     A
C20    Br50    1.928   .     S
C23    C510    1.460   1_554 S
C24    C509    1.460   .     S
N27    Zn37    2.019   .     S
N28    Zn38    2.019   .     S
O29    Zn37    2.002   .     S
O30    Zn38    2.002   .     S
O31    Zn37    2.002   .     S
O32    Zn38    2.002   .     S
O33    Zn37    2.021   .     S
O34    Zn38    2.021   .     S
O35    Zn37    2.021   .     S
O36    Zn38    2.021   .     S
C55    O83     1.288   .     A
C55    C80     1.422   .     S
C55    O86     1.287   .     A
C56    C79     1.422   .     S
C56    O84     1.287   .     A
C56    O85     1.288   .     A
C57    O90     1.298   .     A
C57    C75     1.462   .     S
C57    O87     1.297   .     A
C58    C76     1.462   .     S
C58    O89     1.297   .     A
C58    O88     1.298   .     A
C59    N82     1.370   .     A
C59    Br93    1.922   .     S
C59    C386    1.420   1_545 S
C60    N81     1.374   .     A
C60    Br94    1.921   .     S
C60    C223    1.420   .     S
C61    N82     1.370   .     A
C61    Br95    1.922   .     S
C61    C384    1.420   1_545 S
C62    Br96    1.921   .     S
C62    N81     1.374   .     A
C62    C221    1.420   .     S
C63    C80     1.398   .     A
C63    H105    1.083   .     S
C64    H106    1.082   .     S
C64    C79     1.397   .     A
C64    C120    1.368   .     S
C65    H107    1.083   .     S
C65    C79     1.398   .     A
C65    C117    1.370   .     S
C66    H108    1.082   .     S
C66    C80     1.397   .     A
C67    C71     1.373   .     A
C67    C77     1.396   .     A
C67    H97     1.081   .     S
C68    C78     1.397   .     A
C68    H98     1.083   .     S
C68    C72     1.387   .     A
C69    C73     1.373   .     A
C69    C78     1.396   .     A
C69    H99     1.081   .     S
C70    C77     1.397   .     A
C70    C74     1.387   .     A
C70    H100    1.083   .     S
C71    C75     1.415   .     A
C71    Br101   1.925   .     S
C72    Br102   1.928   .     S
C72    C76     1.420   .     A
C73    Br103   1.925   .     S
C73    C76     1.415   .     A
C74    C75     1.421   .     A
C74    Br104   1.928   .     S
C77    C564    1.460   1_554 S
C78    C563    1.460   .     S
N81    Zn91    2.019   .     S
N82    Zn92    2.019   .     S
O83    Zn91    2.002   .     S
O84    Zn92    2.002   .     S
O85    Zn91    2.002   .     S
O86    Zn92    2.002   .     S
O87    Zn91    2.021   .     S
O88    Zn92    2.021   .     S
O89    Zn91    2.021   .     S
O90    Zn92    2.021   .     S
C109   O137    1.288   .     A
C109   C134    1.422   .     S
C109   O140    1.287   .     A
C110   C133    1.422   .     S
C110   O138    1.287   .     A
C110   O139    1.288   .     A
C111   O144    1.298   .     A
C111   C129    1.462   .     S
C111   O141    1.297   .     A
C112   C130    1.462   .     S
C112   O143    1.297   .     A
C112   O142    1.298   .     A
C113   N136    1.370   .     A
C113   Br147   1.922   .     S
C113   C440    1.420   1_545 S
C114   N135    1.374   .     A
C114   Br148   1.921   .     S
C114   C277    1.420   .     S
C115   N136    1.370   .     A
C115   Br149   1.922   .     S
C115   C438    1.420   1_545 S
C116   Br150   1.921   .     S
C116   N135    1.374   .     A
C116   C275    1.420   .     S
C117   C134    1.398   .     A
C117   H159    1.083   .     S
C118   H160    1.082   .     S
C118   C133    1.397   .     A
C118   C12     1.368   1_655 S
C119   H161    1.083   .     S
C119   C133    1.398   .     A
C119   C9      1.370   1_655 S
C120   H162    1.082   .     S
C120   C134    1.397   .     A
C121   C125    1.373   .     A
C121   C131    1.396   .     A
C121   H151    1.081   .     S
C122   C132    1.397   .     A
C122   H152    1.083   .     S
C122   C126    1.387   .     A
C123   C127    1.373   .     A
C123   C132    1.396   .     A
C123   H153    1.081   .     S
C124   C131    1.397   .     A
C124   C128    1.387   .     A
C124   H154    1.083   .     S
C125   C129    1.415   .     A
C125   Br155   1.925   .     S
C126   Br156   1.928   .     S
C126   C130    1.420   .     A
C127   Br157   1.925   .     S
C127   C130    1.415   .     A
C128   C129    1.421   .     A
C128   Br158   1.928   .     S
C131   C618    1.460   1_554 S
C132   C617    1.460   .     S
N135   Zn145   2.019   .     S
N136   Zn146   2.019   .     S
O137   Zn145   2.002   .     S
O138   Zn146   2.002   .     S
O139   Zn145   2.002   .     S
O140   Zn146   2.002   .     S
O141   Zn145   2.021   .     S
O142   Zn146   2.021   .     S
O143   Zn145   2.021   .     S
O144   Zn146   2.021   .     S
C163   O191    1.288   .     A
C163   C188    1.422   .     S
C163   O194    1.287   .     A
C164   C187    1.422   .     S
C164   O192    1.287   .     A
C164   O193    1.288   .     A
C165   O198    1.298   .     A
C165   C183    1.462   .     S
C165   O195    1.297   .     A
C166   C184    1.462   .     S
C166   O197    1.297   .     A
C166   O196    1.298   .     A
C167   N190    1.370   .     A
C167   Br201   1.922   .     S
C168   N189    1.374   .     A
C168   Br202   1.921   .     S
C168   C331    1.420   .     S
C169   N190    1.370   .     A
C169   Br203   1.922   .     S
C170   Br204   1.921   .     S
C170   N189    1.374   .     A
C170   C329    1.420   .     S
C171   C188    1.398   .     A
C171   H213    1.083   .     S
C171   C281    1.370   1_455 S
C172   H214    1.082   .     S
C172   C187    1.397   .     A
C172   C228    1.368   .     S
C173   H215    1.083   .     S
C173   C187    1.398   .     A
C173   C225    1.370   .     S
C174   H216    1.082   .     S
C174   C188    1.397   .     A
C174   C280    1.368   1_455 S
C175   C179    1.373   .     A
C175   C185    1.396   .     A
C175   H205    1.081   .     S
C176   C186    1.397   .     A
C176   H206    1.083   .     S
C176   C180    1.387   .     A
C177   C181    1.373   .     A
C177   C186    1.396   .     A
C177   H207    1.081   .     S
C178   C185    1.397   .     A
C178   C182    1.387   .     A
C178   H208    1.083   .     S
C179   C183    1.415   .     A
C179   Br209   1.925   .     S
C180   Br210   1.928   .     S
C180   C184    1.420   .     A
C181   Br211   1.925   .     S
C181   C184    1.415   .     A
C182   C183    1.421   .     A
C182   Br212   1.928   .     S
C185   C672    1.460   1_554 S
C186   C671    1.460   .     S
N189   Zn199   2.019   .     S
N190   Zn200   2.019   .     S
O191   Zn199   2.002   .     S
O192   Zn200   2.002   .     S
O193   Zn199   2.002   .     S
O194   Zn200   2.002   .     S
O195   Zn199   2.021   .     S
O196   Zn200   2.021   .     S
O197   Zn199   2.021   .     S
O198   Zn200   2.021   .     S
C217   O245    1.288   .     A
C217   C242    1.422   .     S
C217   O248    1.287   .     A
C218   C241    1.422   .     S
C218   O246    1.287   .     A
C218   O247    1.288   .     A
C219   O252    1.298   .     A
C219   C237    1.462   .     S
C219   O249    1.297   .     A
C220   C238    1.462   .     S
C220   O251    1.297   .     A
C220   O250    1.298   .     A
C221   N244    1.370   .     A
C221   Br255   1.922   .     S
C222   N243    1.374   .     A
C222   Br256   1.921   .     S
C222   C385    1.420   .     S
C223   N244    1.370   .     A
C223   Br257   1.922   .     S
C224   Br258   1.921   .     S
C224   N243    1.374   .     A
C224   C383    1.420   .     S
C225   C242    1.398   .     A
C225   H267    1.083   .     S
C226   H268    1.082   .     S
C226   C241    1.397   .     A
C226   C282    1.368   .     S
C227   H269    1.083   .     S
C227   C241    1.398   .     A
C227   C279    1.370   .     S
C228   H270    1.082   .     S
C228   C242    1.397   .     A
C229   C233    1.373   .     A
C229   C239    1.396   .     A
C229   H259    1.081   .     S
C230   C240    1.397   .     A
C230   H260    1.083   .     S
C230   C234    1.387   .     A
C231   C235    1.373   .     A
C231   C240    1.396   .     A
C231   H261    1.081   .     S
C232   C239    1.397   .     A
C232   C236    1.387   .     A
C232   H262    1.083   .     S
C233   C237    1.415   .     A
C233   Br263   1.925   .     S
C234   Br264   1.928   .     S
C234   C238    1.420   .     A
C235   Br265   1.925   .     S
C235   C238    1.415   .     A
C236   C237    1.421   .     A
C236   Br266   1.928   .     S
C239   C726    1.460   1_554 S
C240   C725    1.460   .     S
N243   Zn253   2.019   .     S
N244   Zn254   2.019   .     S
O245   Zn253   2.002   .     S
O246   Zn254   2.002   .     S
O247   Zn253   2.002   .     S
O248   Zn254   2.002   .     S
O249   Zn253   2.021   .     S
O250   Zn254   2.021   .     S
O251   Zn253   2.021   .     S
O252   Zn254   2.021   .     S
C271   O299    1.288   .     A
C271   C296    1.422   .     S
C271   O302    1.287   .     A
C272   C295    1.422   .     S
C272   O300    1.287   .     A
C272   O301    1.288   .     A
C273   O306    1.298   .     A
C273   C291    1.462   .     S
C273   O303    1.297   .     A
C274   C292    1.462   .     S
C274   O305    1.297   .     A
C274   O304    1.298   .     A
C275   N298    1.370   .     A
C275   Br309   1.922   .     S
C276   N297    1.374   .     A
C276   Br310   1.921   .     S
C276   C439    1.420   .     S
C277   N298    1.370   .     A
C277   Br311   1.922   .     S
C278   Br312   1.921   .     S
C278   N297    1.374   .     A
C278   C437    1.420   .     S
C279   C296    1.398   .     A
C279   H321    1.083   .     S
C280   H322    1.082   .     S
C280   C295    1.397   .     A
C280   C174    1.368   1_655 S
C281   H323    1.083   .     S
C281   C295    1.398   .     A
C281   C171    1.370   1_655 S
C282   H324    1.082   .     S
C282   C296    1.397   .     A
C283   C287    1.373   .     A
C283   C293    1.396   .     A
C283   H313    1.081   .     S
C284   C294    1.397   .     A
C284   H314    1.083   .     S
C284   C288    1.387   .     A
C285   C289    1.373   .     A
C285   C294    1.396   .     A
C285   H315    1.081   .     S
C286   C293    1.397   .     A
C286   C290    1.387   .     A
C286   H316    1.083   .     S
C287   C291    1.415   .     A
C287   Br317   1.925   .     S
C288   Br318   1.928   .     S
C288   C292    1.420   .     A
C289   Br319   1.925   .     S
C289   C292    1.415   .     A
C290   C291    1.421   .     A
C290   Br320   1.928   .     S
C293   C780    1.460   1_554 S
C294   C779    1.460   .     S
N297   Zn307   2.019   .     S
N298   Zn308   2.019   .     S
O299   Zn307   2.002   .     S
O300   Zn308   2.002   .     S
O301   Zn307   2.002   .     S
O302   Zn308   2.002   .     S
O303   Zn307   2.021   .     S
O304   Zn308   2.021   .     S
O305   Zn307   2.021   .     S
O306   Zn308   2.021   .     S
C325   O353    1.288   .     A
C325   C350    1.422   .     S
C325   O356    1.287   .     A
C326   C349    1.422   .     S
C326   O354    1.287   .     A
C326   O355    1.288   .     A
C327   O360    1.298   .     A
C327   C345    1.462   .     S
C327   O357    1.297   .     A
C328   C346    1.462   .     S
C328   O359    1.297   .     A
C328   O358    1.298   .     A
C329   N352    1.370   .     A
C329   Br363   1.922   .     S
C330   N351    1.374   .     A
C330   Br364   1.921   .     S
C330   C7      1.420   1_565 S
C331   N352    1.370   .     A
C331   Br365   1.922   .     S
C332   Br366   1.921   .     S
C332   N351    1.374   .     A
C332   C5      1.420   1_565 S
C333   C350    1.398   .     A
C333   H375    1.083   .     S
C333   C443    1.370   1_455 S
C334   H376    1.082   .     S
C334   C349    1.397   .     A
C334   C390    1.368   .     S
C335   H377    1.083   .     S
C335   C349    1.398   .     A
C335   C387    1.370   .     S
C336   H378    1.082   .     S
C336   C350    1.397   .     A
C336   C442    1.368   1_455 S
C337   C341    1.373   .     A
C337   C347    1.396   .     A
C337   H367    1.081   .     S
C338   C348    1.397   .     A
C338   H368    1.083   .     S
C338   C342    1.387   .     A
C339   C343    1.373   .     A
C339   C348    1.396   .     A
C339   H369    1.081   .     S
C340   C347    1.397   .     A
C340   C344    1.387   .     A
C340   H370    1.083   .     S
C341   C345    1.415   .     A
C341   Br371   1.925   .     S
C342   Br372   1.928   .     S
C342   C346    1.420   .     A
C343   Br373   1.925   .     S
C343   C346    1.415   .     A
C344   C345    1.421   .     A
C344   Br374   1.928   .     S
C347   C834    1.460   1_554 S
C348   C833    1.460   .     S
N351   Zn361   2.019   .     S
N352   Zn362   2.019   .     S
O353   Zn361   2.002   .     S
O354   Zn362   2.002   .     S
O355   Zn361   2.002   .     S
O356   Zn362   2.002   .     S
O357   Zn361   2.021   .     S
O358   Zn362   2.021   .     S
O359   Zn361   2.021   .     S
O360   Zn362   2.021   .     S
C379   O407    1.288   .     A
C379   C404    1.422   .     S
C379   O410    1.287   .     A
C380   C403    1.422   .     S
C380   O408    1.287   .     A
C380   O409    1.288   .     A
C381   O414    1.298   .     A
C381   C399    1.462   .     S
C381   O411    1.297   .     A
C382   C400    1.462   .     S
C382   O413    1.297   .     A
C382   O412    1.298   .     A
C383   N406    1.370   .     A
C383   Br417   1.922   .     S
C384   N405    1.374   .     A
C384   Br418   1.921   .     S
C384   C61     1.420   1_565 S
C385   N406    1.370   .     A
C385   Br419   1.922   .     S
C386   Br420   1.921   .     S
C386   N405    1.374   .     A
C386   C59     1.420   1_565 S
C387   C404    1.398   .     A
C387   H429    1.083   .     S
C388   H430    1.082   .     S
C388   C403    1.397   .     A
C388   C444    1.368   .     S
C389   H431    1.083   .     S
C389   C403    1.398   .     A
C389   C441    1.370   .     S
C390   H432    1.082   .     S
C390   C404    1.397   .     A
C391   C395    1.373   .     A
C391   C401    1.396   .     A
C391   H421    1.081   .     S
C392   C402    1.397   .     A
C392   H422    1.083   .     S
C392   C396    1.387   .     A
C393   C397    1.373   .     A
C393   C402    1.396   .     A
C393   H423    1.081   .     S
C394   C401    1.397   .     A
C394   C398    1.387   .     A
C394   H424    1.083   .     S
C395   C399    1.415   .     A
C395   Br425   1.925   .     S
C396   Br426   1.928   .     S
C396   C400    1.420   .     A
C397   Br427   1.925   .     S
C397   C400    1.415   .     A
C398   C399    1.421   .     A
C398   Br428   1.928   .     S
C401   C888    1.460   1_554 S
C402   C887    1.460   .     S
N405   Zn415   2.019   .     S
N406   Zn416   2.019   .     S
O407   Zn415   2.002   .     S
O408   Zn416   2.002   .     S
O409   Zn415   2.002   .     S
O410   Zn416   2.002   .     S
O411   Zn415   2.021   .     S
O412   Zn416   2.021   .     S
O413   Zn415   2.021   .     S
O414   Zn416   2.021   .     S
C433   O461    1.288   .     A
C433   C458    1.422   .     S
C433   O464    1.287   .     A
C434   C457    1.422   .     S
C434   O462    1.287   .     A
C434   O463    1.288   .     A
C435   O468    1.298   .     A
C435   C453    1.462   .     S
C435   O465    1.297   .     A
C436   C454    1.462   .     S
C436   O467    1.297   .     A
C436   O466    1.298   .     A
C437   N460    1.370   .     A
C437   Br471   1.922   .     S
C438   N459    1.374   .     A
C438   Br472   1.921   .     S
C438   C115    1.420   1_565 S
C439   N460    1.370   .     A
C439   Br473   1.922   .     S
C440   Br474   1.921   .     S
C440   N459    1.374   .     A
C440   C113    1.420   1_565 S
C441   C458    1.398   .     A
C441   H483    1.083   .     S
C442   H484    1.082   .     S
C442   C457    1.397   .     A
C442   C336    1.368   1_655 S
C443   H485    1.083   .     S
C443   C457    1.398   .     A
C443   C333    1.370   1_655 S
C444   H486    1.082   .     S
C444   C458    1.397   .     A
C445   C449    1.373   .     A
C445   C455    1.396   .     A
C445   H475    1.081   .     S
C446   C456    1.397   .     A
C446   H476    1.083   .     S
C446   C450    1.387   .     A
C447   C451    1.373   .     A
C447   C456    1.396   .     A
C447   H477    1.081   .     S
C448   C455    1.397   .     A
C448   C452    1.387   .     A
C448   H478    1.083   .     S
C449   C453    1.415   .     A
C449   Br479   1.925   .     S
C450   Br480   1.928   .     S
C450   C454    1.420   .     A
C451   Br481   1.925   .     S
C451   C454    1.415   .     A
C452   C453    1.421   .     A
C452   Br482   1.928   .     S
C455   C942    1.460   1_554 S
C456   C941    1.460   .     S
N459   Zn469   2.019   .     S
N460   Zn470   2.019   .     S
O461   Zn469   2.002   .     S
O462   Zn470   2.002   .     S
O463   Zn469   2.002   .     S
O464   Zn470   2.002   .     S
O465   Zn469   2.021   .     S
O466   Zn470   2.021   .     S
O467   Zn469   2.021   .     S
O468   Zn470   2.021   .     S
C487   O515    1.288   .     A
C487   C512    1.422   .     S
C487   O518    1.287   .     A
C488   C511    1.422   .     S
C488   O516    1.287   .     A
C488   O517    1.288   .     A
C489   O522    1.298   .     A
C489   C507    1.462   .     S
C489   O519    1.297   .     A
C490   C508    1.462   .     S
C490   O521    1.297   .     A
C490   O520    1.298   .     A
C491   N514    1.370   .     A
C491   Br525   1.922   .     S
C491   C818    1.420   1_545 S
C492   N513    1.374   .     A
C492   Br526   1.921   .     S
C492   C655    1.420   .     S
C493   N514    1.370   .     A
C493   Br527   1.922   .     S
C493   C816    1.420   1_545 S
C494   Br528   1.921   .     S
C494   N513    1.374   .     A
C494   C653    1.420   .     S
C495   C512    1.398   .     A
C495   H537    1.083   .     S
C495   C605    1.370   1_455 S
C496   H538    1.082   .     S
C496   C511    1.397   .     A
C496   C552    1.368   .     S
C497   H539    1.083   .     S
C497   C511    1.398   .     A
C497   C549    1.370   .     S
C498   H540    1.082   .     S
C498   C512    1.397   .     A
C498   C604    1.368   1_455 S
C499   C503    1.373   .     A
C499   C509    1.396   .     A
C499   H529    1.081   .     S
C500   C510    1.397   .     A
C500   H530    1.083   .     S
C500   C504    1.387   .     A
C501   C505    1.373   .     A
C501   C510    1.396   .     A
C501   H531    1.081   .     S
C502   C509    1.397   .     A
C502   C506    1.387   .     A
C502   H532    1.083   .     S
C503   C507    1.415   .     A
C503   Br533   1.925   .     S
C504   Br534   1.928   .     S
C504   C508    1.420   .     A
C505   Br535   1.925   .     S
C505   C508    1.415   .     A
C506   C507    1.421   .     A
C506   Br536   1.928   .     S
C510   C23     1.460   1_556 S
N513   Zn523   2.019   .     S
N514   Zn524   2.019   .     S
O515   Zn523   2.002   .     S
O516   Zn524   2.002   .     S
O517   Zn523   2.002   .     S
O518   Zn524   2.002   .     S
O519   Zn523   2.021   .     S
O520   Zn524   2.021   .     S
O521   Zn523   2.021   .     S
O522   Zn524   2.021   .     S
C541   O569    1.288   .     A
C541   C566    1.422   .     S
C541   O572    1.287   .     A
C542   C565    1.422   .     S
C542   O570    1.287   .     A
C542   O571    1.288   .     A
C543   O576    1.298   .     A
C543   C561    1.462   .     S
C543   O573    1.297   .     A
C544   C562    1.462   .     S
C544   O575    1.297   .     A
C544   O574    1.298   .     A
C545   N568    1.370   .     A
C545   Br579   1.922   .     S
C545   C872    1.420   1_545 S
C546   N567    1.374   .     A
C546   Br580   1.921   .     S
C546   C709    1.420   .     S
C547   N568    1.370   .     A
C547   Br581   1.922   .     S
C547   C870    1.420   1_545 S
C548   Br582   1.921   .     S
C548   N567    1.374   .     A
C548   C707    1.420   .     S
C549   C566    1.398   .     A
C549   H591    1.083   .     S
C550   H592    1.082   .     S
C550   C565    1.397   .     A
C550   C606    1.368   .     S
C551   H593    1.083   .     S
C551   C565    1.398   .     A
C551   C603    1.370   .     S
C552   H594    1.082   .     S
C552   C566    1.397   .     A
C553   C557    1.373   .     A
C553   C563    1.396   .     A
C553   H583    1.081   .     S
C554   C564    1.397   .     A
C554   H584    1.083   .     S
C554   C558    1.387   .     A
C555   C559    1.373   .     A
C555   C564    1.396   .     A
C555   H585    1.081   .     S
C556   C563    1.397   .     A
C556   C560    1.387   .     A
C556   H586    1.083   .     S
C557   C561    1.415   .     A
C557   Br587   1.925   .     S
C558   Br588   1.928   .     S
C558   C562    1.420   .     A
C559   Br589   1.925   .     S
C559   C562    1.415   .     A
C560   C561    1.421   .     A
C560   Br590   1.928   .     S
C564   C77     1.460   1_556 S
N567   Zn577   2.019   .     S
N568   Zn578   2.019   .     S
O569   Zn577   2.002   .     S
O570   Zn578   2.002   .     S
O571   Zn577   2.002   .     S
O572   Zn578   2.002   .     S
O573   Zn577   2.021   .     S
O574   Zn578   2.021   .     S
O575   Zn577   2.021   .     S
O576   Zn578   2.021   .     S
C595   O623    1.288   .     A
C595   C620    1.422   .     S
C595   O626    1.287   .     A
C596   C619    1.422   .     S
C596   O624    1.287   .     A
C596   O625    1.288   .     A
C597   O630    1.298   .     A
C597   C615    1.462   .     S
C597   O627    1.297   .     A
C598   C616    1.462   .     S
C598   O629    1.297   .     A
C598   O628    1.298   .     A
C599   N622    1.370   .     A
C599   Br633   1.922   .     S
C599   C926    1.420   1_545 S
C600   N621    1.374   .     A
C600   Br634   1.921   .     S
C600   C763    1.420   .     S
C601   N622    1.370   .     A
C601   Br635   1.922   .     S
C601   C924    1.420   1_545 S
C602   Br636   1.921   .     S
C602   N621    1.374   .     A
C602   C761    1.420   .     S
C603   C620    1.398   .     A
C603   H645    1.083   .     S
C604   H646    1.082   .     S
C604   C619    1.397   .     A
C604   C498    1.368   1_655 S
C605   H647    1.083   .     S
C605   C619    1.398   .     A
C605   C495    1.370   1_655 S
C606   H648    1.082   .     S
C606   C620    1.397   .     A
C607   C611    1.373   .     A
C607   C617    1.396   .     A
C607   H637    1.081   .     S
C608   C618    1.397   .     A
C608   H638    1.083   .     S
C608   C612    1.387   .     A
C609   C613    1.373   .     A
C609   C618    1.396   .     A
C609   H639    1.081   .     S
C610   C617    1.397   .     A
C610   C614    1.387   .     A
C610   H640    1.083   .     S
C611   C615    1.415   .     A
C611   Br641   1.925   .     S
C612   Br642   1.928   .     S
C612   C616    1.420   .     A
C613   Br643   1.925   .     S
C613   C616    1.415   .     A
C614   C615    1.421   .     A
C614   Br644   1.928   .     S
C618   C131    1.460   1_556 S
N621   Zn631   2.019   .     S
N622   Zn632   2.019   .     S
O623   Zn631   2.002   .     S
O624   Zn632   2.002   .     S
O625   Zn631   2.002   .     S
O626   Zn632   2.002   .     S
O627   Zn631   2.021   .     S
O628   Zn632   2.021   .     S
O629   Zn631   2.021   .     S
O630   Zn632   2.021   .     S
C649   O677    1.288   .     A
C649   C674    1.422   .     S
C649   O680    1.287   .     A
C650   C673    1.422   .     S
C650   O678    1.287   .     A
C650   O679    1.288   .     A
C651   O684    1.298   .     A
C651   C669    1.462   .     S
C651   O681    1.297   .     A
C652   C670    1.462   .     S
C652   O683    1.297   .     A
C652   O682    1.298   .     A
C653   N676    1.370   .     A
C653   Br687   1.922   .     S
C654   N675    1.374   .     A
C654   Br688   1.921   .     S
C654   C817    1.420   .     S
C655   N676    1.370   .     A
C655   Br689   1.922   .     S
C656   Br690   1.921   .     S
C656   N675    1.374   .     A
C656   C815    1.420   .     S
C657   C674    1.398   .     A
C657   H699    1.083   .     S
C657   C767    1.370   1_455 S
C658   H700    1.082   .     S
C658   C673    1.397   .     A
C658   C714    1.368   .     S
C659   H701    1.083   .     S
C659   C673    1.398   .     A
C659   C711    1.370   .     S
C660   H702    1.082   .     S
C660   C674    1.397   .     A
C660   C766    1.368   1_455 S
C661   C665    1.373   .     A
C661   C671    1.396   .     A
C661   H691    1.081   .     S
C662   C672    1.397   .     A
C662   H692    1.083   .     S
C662   C666    1.387   .     A
C663   C667    1.373   .     A
C663   C672    1.396   .     A
C663   H693    1.081   .     S
C664   C671    1.397   .     A
C664   C668    1.387   .     A
C664   H694    1.083   .     S
C665   C669    1.415   .     A
C665   Br695   1.925   .     S
C666   Br696   1.928   .     S
C666   C670    1.420   .     A
C667   Br697   1.925   .     S
C667   C670    1.415   .     A
C668   C669    1.421   .     A
C668   Br698   1.928   .     S
C672   C185    1.460   1_556 S
N675   Zn685   2.019   .     S
N676   Zn686   2.019   .     S
O677   Zn685   2.002   .     S
O678   Zn686   2.002   .     S
O679   Zn685   2.002   .     S
O680   Zn686   2.002   .     S
O681   Zn685   2.021   .     S
O682   Zn686   2.021   .     S
O683   Zn685   2.021   .     S
O684   Zn686   2.021   .     S
C703   O731    1.288   .     A
C703   C728    1.422   .     S
C703   O734    1.287   .     A
C704   C727    1.422   .     S
C704   O732    1.287   .     A
C704   O733    1.288   .     A
C705   O738    1.298   .     A
C705   C723    1.462   .     S
C705   O735    1.297   .     A
C706   C724    1.462   .     S
C706   O737    1.297   .     A
C706   O736    1.298   .     A
C707   N730    1.370   .     A
C707   Br741   1.922   .     S
C708   N729    1.374   .     A
C708   Br742   1.921   .     S
C708   C871    1.420   .     S
C709   N730    1.370   .     A
C709   Br743   1.922   .     S
C710   Br744   1.921   .     S
C710   N729    1.374   .     A
C710   C869    1.420   .     S
C711   C728    1.398   .     A
C711   H753    1.083   .     S
C712   H754    1.082   .     S
C712   C727    1.397   .     A
C712   C768    1.368   .     S
C713   H755    1.083   .     S
C713   C727    1.398   .     A
C713   C765    1.370   .     S
C714   H756    1.082   .     S
C714   C728    1.397   .     A
C715   C719    1.373   .     A
C715   C725    1.396   .     A
C715   H745    1.081   .     S
C716   C726    1.397   .     A
C716   H746    1.083   .     S
C716   C720    1.387   .     A
C717   C721    1.373   .     A
C717   C726    1.396   .     A
C717   H747    1.081   .     S
C718   C725    1.397   .     A
C718   C722    1.387   .     A
C718   H748    1.083   .     S
C719   C723    1.415   .     A
C719   Br749   1.925   .     S
C720   Br750   1.928   .     S
C720   C724    1.420   .     A
C721   Br751   1.925   .     S
C721   C724    1.415   .     A
C722   C723    1.421   .     A
C722   Br752   1.928   .     S
C726   C239    1.460   1_556 S
N729   Zn739   2.019   .     S
N730   Zn740   2.019   .     S
O731   Zn739   2.002   .     S
O732   Zn740   2.002   .     S
O733   Zn739   2.002   .     S
O734   Zn740   2.002   .     S
O735   Zn739   2.021   .     S
O736   Zn740   2.021   .     S
O737   Zn739   2.021   .     S
O738   Zn740   2.021   .     S
C757   O785    1.288   .     A
C757   C782    1.422   .     S
C757   O788    1.287   .     A
C758   C781    1.422   .     S
C758   O786    1.287   .     A
C758   O787    1.288   .     A
C759   O792    1.298   .     A
C759   C777    1.462   .     S
C759   O789    1.297   .     A
C760   C778    1.462   .     S
C760   O791    1.297   .     A
C760   O790    1.298   .     A
C761   N784    1.370   .     A
C761   Br795   1.922   .     S
C762   N783    1.374   .     A
C762   Br796   1.921   .     S
C762   C925    1.420   .     S
C763   N784    1.370   .     A
C763   Br797   1.922   .     S
C764   Br798   1.921   .     S
C764   N783    1.374   .     A
C764   C923    1.420   .     S
C765   C782    1.398   .     A
C765   H807    1.083   .     S
C766   H808    1.082   .     S
C766   C781    1.397   .     A
C766   C660    1.368   1_655 S
C767   H809    1.083   .     S
C767   C781    1.398   .     A
C767   C657    1.370   1_655 S
C768   H810    1.082   .     S
C768   C782    1.397   .     A
C769   C773    1.373   .     A
C769   C779    1.396   .     A
C769   H799    1.081   .     S
C770   C780    1.397   .     A
C770   H800    1.083   .     S
C770   C774    1.387   .     A
C771   C775    1.373   .     A
C771   C780    1.396   .     A
C771   H801    1.081   .     S
C772   C779    1.397   .     A
C772   C776    1.387   .     A
C772   H802    1.083   .     S
C773   C777    1.415   .     A
C773   Br803   1.925   .     S
C774   Br804   1.928   .     S
C774   C778    1.420   .     A
C775   Br805   1.925   .     S
C775   C778    1.415   .     A
C776   C777    1.421   .     A
C776   Br806   1.928   .     S
C780   C293    1.460   1_556 S
N783   Zn793   2.019   .     S
N784   Zn794   2.019   .     S
O785   Zn793   2.002   .     S
O786   Zn794   2.002   .     S
O787   Zn793   2.002   .     S
O788   Zn794   2.002   .     S
O789   Zn793   2.021   .     S
O790   Zn794   2.021   .     S
O791   Zn793   2.021   .     S
O792   Zn794   2.021   .     S
C811   O839    1.288   .     A
C811   C836    1.422   .     S
C811   O842    1.287   .     A
C812   C835    1.422   .     S
C812   O840    1.287   .     A
C812   O841    1.288   .     A
C813   O846    1.298   .     A
C813   C831    1.462   .     S
C813   O843    1.297   .     A
C814   C832    1.462   .     S
C814   O845    1.297   .     A
C814   O844    1.298   .     A
C815   N838    1.370   .     A
C815   Br849   1.922   .     S
C816   N837    1.374   .     A
C816   Br850   1.921   .     S
C816   C493    1.420   1_565 S
C817   N838    1.370   .     A
C817   Br851   1.922   .     S
C818   Br852   1.921   .     S
C818   N837    1.374   .     A
C818   C491    1.420   1_565 S
C819   C836    1.398   .     A
C819   H861    1.083   .     S
C819   C929    1.370   1_455 S
C820   H862    1.082   .     S
C820   C835    1.397   .     A
C820   C876    1.368   .     S
C821   H863    1.083   .     S
C821   C835    1.398   .     A
C821   C873    1.370   .     S
C822   H864    1.082   .     S
C822   C836    1.397   .     A
C822   C928    1.368   1_455 S
C823   C827    1.373   .     A
C823   C833    1.396   .     A
C823   H853    1.081   .     S
C824   C834    1.397   .     A
C824   H854    1.083   .     S
C824   C828    1.387   .     A
C825   C829    1.373   .     A
C825   C834    1.396   .     A
C825   H855    1.081   .     S
C826   C833    1.397   .     A
C826   C830    1.387   .     A
C826   H856    1.083   .     S
C827   C831    1.415   .     A
C827   Br857   1.925   .     S
C828   Br858   1.928   .     S
C828   C832    1.420   .     A
C829   Br859   1.925   .     S
C829   C832    1.415   .     A
C830   C831    1.421   .     A
C830   Br860   1.928   .     S
C834   C347    1.460   1_556 S
N837   Zn847   2.019   .     S
N838   Zn848   2.019   .     S
O839   Zn847   2.002   .     S
O840   Zn848   2.002   .     S
O841   Zn847   2.002   .     S
O842   Zn848   2.002   .     S
O843   Zn847   2.021   .     S
O844   Zn848   2.021   .     S
O845   Zn847   2.021   .     S
O846   Zn848   2.021   .     S
C865   O893    1.288   .     A
C865   C890    1.422   .     S
C865   O896    1.287   .     A
C866   C889    1.422   .     S
C866   O894    1.287   .     A
C866   O895    1.288   .     A
C867   O900    1.298   .     A
C867   C885    1.462   .     S
C867   O897    1.297   .     A
C868   C886    1.462   .     S
C868   O899    1.297   .     A
C868   O898    1.298   .     A
C869   N892    1.370   .     A
C869   Br903   1.922   .     S
C870   N891    1.374   .     A
C870   Br904   1.921   .     S
C870   C547    1.420   1_565 S
C871   N892    1.370   .     A
C871   Br905   1.922   .     S
C872   Br906   1.921   .     S
C872   N891    1.374   .     A
C872   C545    1.420   1_565 S
C873   C890    1.398   .     A
C873   H915    1.083   .     S
C874   H916    1.082   .     S
C874   C889    1.397   .     A
C874   C930    1.368   .     S
C875   H917    1.083   .     S
C875   C889    1.398   .     A
C875   C927    1.370   .     S
C876   H918    1.082   .     S
C876   C890    1.397   .     A
C877   C881    1.373   .     A
C877   C887    1.396   .     A
C877   H907    1.081   .     S
C878   C888    1.397   .     A
C878   H908    1.083   .     S
C878   C882    1.387   .     A
C879   C883    1.373   .     A
C879   C888    1.396   .     A
C879   H909    1.081   .     S
C880   C887    1.397   .     A
C880   C884    1.387   .     A
C880   H910    1.083   .     S
C881   C885    1.415   .     A
C881   Br911   1.925   .     S
C882   Br912   1.928   .     S
C882   C886    1.420   .     A
C883   Br913   1.925   .     S
C883   C886    1.415   .     A
C884   C885    1.421   .     A
C884   Br914   1.928   .     S
C888   C401    1.460   1_556 S
N891   Zn901   2.019   .     S
N892   Zn902   2.019   .     S
O893   Zn901   2.002   .     S
O894   Zn902   2.002   .     S
O895   Zn901   2.002   .     S
O896   Zn902   2.002   .     S
O897   Zn901   2.021   .     S
O898   Zn902   2.021   .     S
O899   Zn901   2.021   .     S
O900   Zn902   2.021   .     S
C919   O947    1.288   .     A
C919   C944    1.422   .     S
C919   O950    1.287   .     A
C920   C943    1.422   .     S
C920   O948    1.287   .     A
C920   O949    1.288   .     A
C921   O954    1.298   .     A
C921   C939    1.462   .     S
C921   O951    1.297   .     A
C922   C940    1.462   .     S
C922   O953    1.297   .     A
C922   O952    1.298   .     A
C923   N946    1.370   .     A
C923   Br957   1.922   .     S
C924   N945    1.374   .     A
C924   Br958   1.921   .     S
C924   C601    1.420   1_565 S
C925   N946    1.370   .     A
C925   Br959   1.922   .     S
C926   Br960   1.921   .     S
C926   N945    1.374   .     A
C926   C599    1.420   1_565 S
C927   C944    1.398   .     A
C927   H969    1.083   .     S
C928   H970    1.082   .     S
C928   C943    1.397   .     A
C928   C822    1.368   1_655 S
C929   H971    1.083   .     S
C929   C943    1.398   .     A
C929   C819    1.370   1_655 S
C930   H972    1.082   .     S
C930   C944    1.397   .     A
C931   C935    1.373   .     A
C931   C941    1.396   .     A
C931   H961    1.081   .     S
C932   C942    1.397   .     A
C932   H962    1.083   .     S
C932   C936    1.387   .     A
C933   C937    1.373   .     A
C933   C942    1.396   .     A
C933   H963    1.081   .     S
C934   C941    1.397   .     A
C934   C938    1.387   .     A
C934   H964    1.083   .     S
C935   C939    1.415   .     A
C935   Br965   1.925   .     S
C936   Br966   1.928   .     S
C936   C940    1.420   .     A
C937   Br967   1.925   .     S
C937   C940    1.415   .     A
C938   C939    1.421   .     A
C938   Br968   1.928   .     S
C942   C455    1.460   1_556 S
N945   Zn955   2.019   .     S
N946   Zn956   2.019   .     S
O947   Zn955   2.002   .     S
O948   Zn956   2.002   .     S
O949   Zn955   2.002   .     S
O950   Zn956   2.002   .     S
O951   Zn955   2.021   .     S
O952   Zn956   2.021   .     S
O953   Zn955   2.021   .     S
O954   Zn956   2.021   .     S
