data_str_m3_o1_o10_pcu_sym.118
_audit_creation_date              2020-01-03
_audit_creation_method            'Materials Studio'
_symmetry_space_group_name_H-M    'P1'
_symmetry_Int_Tables_number       1
_symmetry_cell_setting            triclinic
loop_
_symmetry_equiv_pos_as_xyz
  x,y,z
_cell_length_a                    25.7471
_cell_length_b                    32.0113
_cell_length_c                    29.7831
_cell_angle_alpha                 89.2300
_cell_angle_beta                  97.3604
_cell_angle_gamma                 91.0565
loop_
_atom_site_label
_atom_site_type_symbol
_atom_site_fract_x
_atom_site_fract_y
_atom_site_fract_z
_atom_site_U_iso_or_equiv
_atom_site_adp_type
_atom_site_occupancy
C1     C     0.16683   0.08677   0.16692   0.00000  Uiso   1.00
C2     C     0.16650   0.24657   0.16642   0.00000  Uiso   1.00
C3     C     0.06747   0.16503   0.15541   0.00000  Uiso   1.00
C4     C     0.26587   0.16829   0.17792   0.00000  Uiso   1.00
C5     C     0.01347   0.15619   0.15246   0.00000  Uiso   1.00
C6     C     0.31987   0.17713   0.18087   0.00000  Uiso   1.00
C7     C     0.14126   0.02184   0.12945   0.00000  Uiso   1.00
C8     C     0.19207   0.31149   0.20389   0.00000  Uiso   1.00
C9     C     0.14116   0.31235   0.12880   0.00000  Uiso   1.00
C10    C     0.19217   0.02098   0.20454   0.00000  Uiso   1.00
C11    C     0.16665   0.29074   0.16612   0.00000  Uiso   1.00
C12    C     0.16669   0.04259   0.16721   0.00000  Uiso   1.00
C13    C     0.20631   0.18612   0.02745   0.00000  Uiso   1.00
C14    C     0.12702   0.14721   0.30589   0.00000  Uiso   1.00
C15    C     0.20609   0.18581   0.31309   0.00000  Uiso   1.00
C16    C     0.12725   0.14752   0.02025   0.00000  Uiso   1.00
H17    H     0.12104   0.03876   0.10082   0.00000  Uiso   1.00
H18    H     0.21230   0.29458   0.23252   0.00000  Uiso   1.00
N19    N     0.16665   0.16666   0.28573   0.00000  Uiso   1.00
N20    N     0.16668   0.16668   0.04760   0.00000  Uiso   1.00
O21    O     0.16666   0.10558   0.20487   0.00000  Uiso   1.00
O22    O     0.16667   0.22775   0.12846   0.00000  Uiso   1.00
O23    O     0.16666   0.10559   0.12843   0.00000  Uiso   1.00
O24    O     0.16667   0.22774   0.20490   0.00000  Uiso   1.00
O25    O     0.09058   0.16666   0.19595   0.00000  Uiso   1.00
O26    O     0.24275   0.16667   0.13739   0.00000  Uiso   1.00
O27    O     0.09058   0.16667   0.11950   0.00000  Uiso   1.00
O28    O     0.24275   0.16666   0.21383   0.00000  Uiso   1.00
Zn29   Zn    0.16667   0.16666   0.21771   0.00000  Uiso   1.00
Zn30   Zn    0.16667   0.16667   0.11563   0.00000  Uiso   1.00
C31    C     0.32700   0.11739   0.12759   0.00000  Uiso   1.00
H32    H     0.29047   0.10225   0.13364   0.00000  Uiso   1.00
O33    O     0.01902   0.10110   0.10083   0.00000  Uiso   1.00
C34    C     0.00633   0.21593   0.20573   0.00000  Uiso   1.00
H35    H     0.04282   0.23111   0.19965   0.00000  Uiso   1.00
O36    O     0.31436   0.23220   0.23253   0.00000  Uiso   1.00
F37    F     0.11518   0.29218   0.09257   0.00000  Uiso   1.00
F38    F     0.21816   0.04115   0.24076   0.00000  Uiso   1.00
C39    C     0.25074   0.20772   0.05404   0.00000  Uiso   1.00
H40    H     0.29042   0.20115   0.04786   0.00000  Uiso   1.00
O41    O     0.24373   0.23512   0.08049   0.00000  Uiso   1.00
C42    C     0.08259   0.12560   0.27930   0.00000  Uiso   1.00
H43    H     0.04293   0.13211   0.28554   0.00000  Uiso   1.00
O44    O     0.08960   0.09825   0.25280   0.00000  Uiso   1.00
F45    F     0.24485   0.20588   0.29417   0.00000  Uiso   1.00
F46    F     0.08848   0.12745   0.03917   0.00000  Uiso   1.00
C47    C     0.50017   0.08677   0.16692   0.00000  Uiso   1.00
C48    C     0.49983   0.24657   0.16642   0.00000  Uiso   1.00
C49    C     0.40080   0.16503   0.15541   0.00000  Uiso   1.00
C50    C     0.59920   0.16829   0.17792   0.00000  Uiso   1.00
C51    C     0.34680   0.15619   0.15246   0.00000  Uiso   1.00
C52    C     0.65320   0.17713   0.18087   0.00000  Uiso   1.00
C53    C     0.47460   0.02184   0.12945   0.00000  Uiso   1.00
C54    C     0.52540   0.31149   0.20389   0.00000  Uiso   1.00
C55    C     0.47449   0.31235   0.12880   0.00000  Uiso   1.00
C56    C     0.52550   0.02098   0.20454   0.00000  Uiso   1.00
C57    C     0.49998   0.29074   0.16612   0.00000  Uiso   1.00
C58    C     0.50002   0.04259   0.16721   0.00000  Uiso   1.00
C59    C     0.53965   0.18612   0.02745   0.00000  Uiso   1.00
C60    C     0.46035   0.14721   0.30589   0.00000  Uiso   1.00
C61    C     0.53942   0.18581   0.31309   0.00000  Uiso   1.00
C62    C     0.46058   0.14752   0.02025   0.00000  Uiso   1.00
H63    H     0.45437   0.03876   0.10082   0.00000  Uiso   1.00
H64    H     0.54563   0.29458   0.23252   0.00000  Uiso   1.00
N65    N     0.49999   0.16666   0.28573   0.00000  Uiso   1.00
N66    N     0.50001   0.16668   0.04760   0.00000  Uiso   1.00
O67    O     0.50000   0.10558   0.20487   0.00000  Uiso   1.00
O68    O     0.50000   0.22775   0.12846   0.00000  Uiso   1.00
O69    O     0.50000   0.10559   0.12843   0.00000  Uiso   1.00
O70    O     0.50000   0.22774   0.20490   0.00000  Uiso   1.00
O71    O     0.42392   0.16666   0.19595   0.00000  Uiso   1.00
O72    O     0.57608   0.16667   0.13739   0.00000  Uiso   1.00
O73    O     0.42392   0.16667   0.11950   0.00000  Uiso   1.00
O74    O     0.57608   0.16666   0.21383   0.00000  Uiso   1.00
Zn75   Zn    0.50000   0.16666   0.21771   0.00000  Uiso   1.00
Zn76   Zn    0.50000   0.16667   0.11563   0.00000  Uiso   1.00
C77    C     0.66034   0.11739   0.12759   0.00000  Uiso   1.00
H78    H     0.62380   0.10225   0.13364   0.00000  Uiso   1.00
O79    O     0.35235   0.10110   0.10083   0.00000  Uiso   1.00
C80    C     0.33966   0.21593   0.20573   0.00000  Uiso   1.00
H81    H     0.37615   0.23111   0.19965   0.00000  Uiso   1.00
O82    O     0.64770   0.23220   0.23253   0.00000  Uiso   1.00
F83    F     0.44851   0.29218   0.09257   0.00000  Uiso   1.00
F84    F     0.55149   0.04115   0.24076   0.00000  Uiso   1.00
C85    C     0.58407   0.20772   0.05404   0.00000  Uiso   1.00
H86    H     0.62375   0.20115   0.04786   0.00000  Uiso   1.00
O87    O     0.57706   0.23512   0.08049   0.00000  Uiso   1.00
C88    C     0.41593   0.12560   0.27930   0.00000  Uiso   1.00
H89    H     0.37626   0.13211   0.28554   0.00000  Uiso   1.00
O90    O     0.42293   0.09825   0.25280   0.00000  Uiso   1.00
F91    F     0.57819   0.20588   0.29417   0.00000  Uiso   1.00
F92    F     0.42182   0.12745   0.03917   0.00000  Uiso   1.00
C93    C     0.83350   0.08677   0.16692   0.00000  Uiso   1.00
C94    C     0.83316   0.24657   0.16642   0.00000  Uiso   1.00
C95    C     0.73413   0.16503   0.15541   0.00000  Uiso   1.00
C96    C     0.93253   0.16829   0.17792   0.00000  Uiso   1.00
C97    C     0.68013   0.15619   0.15246   0.00000  Uiso   1.00
C98    C     0.98653   0.17713   0.18087   0.00000  Uiso   1.00
C99    C     0.80793   0.02184   0.12945   0.00000  Uiso   1.00
C100   C     0.85874   0.31149   0.20389   0.00000  Uiso   1.00
C101   C     0.80783   0.31235   0.12880   0.00000  Uiso   1.00
C102   C     0.85884   0.02098   0.20454   0.00000  Uiso   1.00
C103   C     0.83331   0.29074   0.16612   0.00000  Uiso   1.00
C104   C     0.83335   0.04259   0.16721   0.00000  Uiso   1.00
C105   C     0.87298   0.18612   0.02745   0.00000  Uiso   1.00
C106   C     0.79369   0.14721   0.30589   0.00000  Uiso   1.00
C107   C     0.87276   0.18581   0.31309   0.00000  Uiso   1.00
C108   C     0.79391   0.14752   0.02025   0.00000  Uiso   1.00
H109   H     0.78770   0.03876   0.10082   0.00000  Uiso   1.00
H110   H     0.87896   0.29458   0.23252   0.00000  Uiso   1.00
N111   N     0.83332   0.16666   0.28573   0.00000  Uiso   1.00
N112   N     0.83335   0.16668   0.04760   0.00000  Uiso   1.00
O113   O     0.83333   0.10558   0.20487   0.00000  Uiso   1.00
O114   O     0.83334   0.22775   0.12846   0.00000  Uiso   1.00
O115   O     0.83333   0.10559   0.12843   0.00000  Uiso   1.00
O116   O     0.83334   0.22774   0.20490   0.00000  Uiso   1.00
O117   O     0.75725   0.16666   0.19595   0.00000  Uiso   1.00
O118   O     0.90942   0.16667   0.13739   0.00000  Uiso   1.00
O119   O     0.75725   0.16667   0.11950   0.00000  Uiso   1.00
O120   O     0.90942   0.16666   0.21383   0.00000  Uiso   1.00
Zn121  Zn    0.83333   0.16666   0.21771   0.00000  Uiso   1.00
Zn122  Zn    0.83333   0.16667   0.11563   0.00000  Uiso   1.00
C123   C     0.99367   0.11739   0.12759   0.00000  Uiso   1.00
H124   H     0.95713   0.10225   0.13364   0.00000  Uiso   1.00
O125   O     0.68569   0.10110   0.10083   0.00000  Uiso   1.00
C126   C     0.67300   0.21593   0.20573   0.00000  Uiso   1.00
H127   H     0.70948   0.23111   0.19965   0.00000  Uiso   1.00
O128   O     0.98103   0.23220   0.23253   0.00000  Uiso   1.00
F129   F     0.78184   0.29218   0.09257   0.00000  Uiso   1.00
F130   F     0.88482   0.04115   0.24076   0.00000  Uiso   1.00
C131   C     0.91741   0.20772   0.05404   0.00000  Uiso   1.00
H132   H     0.95708   0.20115   0.04786   0.00000  Uiso   1.00
O133   O     0.91039   0.23512   0.08049   0.00000  Uiso   1.00
C134   C     0.74926   0.12560   0.27930   0.00000  Uiso   1.00
H135   H     0.70959   0.13211   0.28554   0.00000  Uiso   1.00
O136   O     0.75626   0.09825   0.25280   0.00000  Uiso   1.00
F137   F     0.91152   0.20588   0.29417   0.00000  Uiso   1.00
F138   F     0.75515   0.12745   0.03917   0.00000  Uiso   1.00
C139   C     0.16683   0.42010   0.16692   0.00000  Uiso   1.00
C140   C     0.16650   0.57990   0.16642   0.00000  Uiso   1.00
C141   C     0.06747   0.49837   0.15541   0.00000  Uiso   1.00
C142   C     0.26587   0.50163   0.17792   0.00000  Uiso   1.00
C143   C     0.01347   0.48953   0.15246   0.00000  Uiso   1.00
C144   C     0.31987   0.51046   0.18087   0.00000  Uiso   1.00
C145   C     0.14126   0.35517   0.12945   0.00000  Uiso   1.00
C146   C     0.19207   0.64482   0.20389   0.00000  Uiso   1.00
C147   C     0.14116   0.64568   0.12880   0.00000  Uiso   1.00
C148   C     0.19217   0.35432   0.20454   0.00000  Uiso   1.00
C149   C     0.16665   0.62407   0.16612   0.00000  Uiso   1.00
C150   C     0.16669   0.37593   0.16721   0.00000  Uiso   1.00
C151   C     0.20631   0.51945   0.02745   0.00000  Uiso   1.00
C152   C     0.12702   0.48055   0.30589   0.00000  Uiso   1.00
C153   C     0.20609   0.51914   0.31309   0.00000  Uiso   1.00
C154   C     0.12725   0.48086   0.02025   0.00000  Uiso   1.00
H155   H     0.12104   0.37209   0.10082   0.00000  Uiso   1.00
H156   H     0.21230   0.62791   0.23252   0.00000  Uiso   1.00
N157   N     0.16665   0.49999   0.28573   0.00000  Uiso   1.00
N158   N     0.16668   0.50001   0.04760   0.00000  Uiso   1.00
O159   O     0.16666   0.43892   0.20487   0.00000  Uiso   1.00
O160   O     0.16667   0.56108   0.12846   0.00000  Uiso   1.00
O161   O     0.16666   0.43893   0.12843   0.00000  Uiso   1.00
O162   O     0.16667   0.56107   0.20490   0.00000  Uiso   1.00
O163   O     0.09058   0.50000   0.19595   0.00000  Uiso   1.00
O164   O     0.24275   0.50000   0.13739   0.00000  Uiso   1.00
O165   O     0.09058   0.50000   0.11950   0.00000  Uiso   1.00
O166   O     0.24275   0.50000   0.21383   0.00000  Uiso   1.00
Zn167  Zn    0.16667   0.49999   0.21771   0.00000  Uiso   1.00
Zn168  Zn    0.16667   0.50001   0.11563   0.00000  Uiso   1.00
C169   C     0.32700   0.45072   0.12759   0.00000  Uiso   1.00
H170   H     0.29047   0.43558   0.13364   0.00000  Uiso   1.00
O171   O     0.01902   0.43443   0.10083   0.00000  Uiso   1.00
C172   C     0.00633   0.54927   0.20573   0.00000  Uiso   1.00
H173   H     0.04282   0.56444   0.19965   0.00000  Uiso   1.00
O174   O     0.31436   0.56554   0.23253   0.00000  Uiso   1.00
F175   F     0.11518   0.62552   0.09257   0.00000  Uiso   1.00
F176   F     0.21816   0.37448   0.24076   0.00000  Uiso   1.00
C177   C     0.25074   0.54105   0.05404   0.00000  Uiso   1.00
H178   H     0.29042   0.53448   0.04786   0.00000  Uiso   1.00
O179   O     0.24373   0.56846   0.08049   0.00000  Uiso   1.00
C180   C     0.08259   0.45894   0.27930   0.00000  Uiso   1.00
H181   H     0.04293   0.46544   0.28554   0.00000  Uiso   1.00
O182   O     0.08960   0.43158   0.25280   0.00000  Uiso   1.00
F183   F     0.24485   0.53921   0.29417   0.00000  Uiso   1.00
F184   F     0.08848   0.46078   0.03917   0.00000  Uiso   1.00
C185   C     0.50017   0.42010   0.16692   0.00000  Uiso   1.00
C186   C     0.49983   0.57990   0.16642   0.00000  Uiso   1.00
C187   C     0.40080   0.49837   0.15541   0.00000  Uiso   1.00
C188   C     0.59920   0.50163   0.17792   0.00000  Uiso   1.00
C189   C     0.34680   0.48953   0.15246   0.00000  Uiso   1.00
C190   C     0.65320   0.51046   0.18087   0.00000  Uiso   1.00
C191   C     0.47460   0.35517   0.12945   0.00000  Uiso   1.00
C192   C     0.52540   0.64482   0.20389   0.00000  Uiso   1.00
C193   C     0.47449   0.64568   0.12880   0.00000  Uiso   1.00
C194   C     0.52550   0.35432   0.20454   0.00000  Uiso   1.00
C195   C     0.49998   0.62407   0.16612   0.00000  Uiso   1.00
C196   C     0.50002   0.37593   0.16721   0.00000  Uiso   1.00
C197   C     0.53965   0.51945   0.02745   0.00000  Uiso   1.00
C198   C     0.46035   0.48055   0.30589   0.00000  Uiso   1.00
C199   C     0.53942   0.51914   0.31309   0.00000  Uiso   1.00
C200   C     0.46058   0.48086   0.02025   0.00000  Uiso   1.00
H201   H     0.45437   0.37209   0.10082   0.00000  Uiso   1.00
H202   H     0.54563   0.62791   0.23252   0.00000  Uiso   1.00
N203   N     0.49999   0.49999   0.28573   0.00000  Uiso   1.00
N204   N     0.50001   0.50001   0.04760   0.00000  Uiso   1.00
O205   O     0.50000   0.43892   0.20487   0.00000  Uiso   1.00
O206   O     0.50000   0.56108   0.12846   0.00000  Uiso   1.00
O207   O     0.50000   0.43893   0.12843   0.00000  Uiso   1.00
O208   O     0.50000   0.56107   0.20490   0.00000  Uiso   1.00
O209   O     0.42392   0.50000   0.19595   0.00000  Uiso   1.00
O210   O     0.57608   0.50000   0.13739   0.00000  Uiso   1.00
O211   O     0.42392   0.50000   0.11950   0.00000  Uiso   1.00
O212   O     0.57608   0.50000   0.21383   0.00000  Uiso   1.00
Zn213  Zn    0.50000   0.49999   0.21771   0.00000  Uiso   1.00
Zn214  Zn    0.50000   0.50001   0.11563   0.00000  Uiso   1.00
C215   C     0.66034   0.45072   0.12759   0.00000  Uiso   1.00
H216   H     0.62380   0.43558   0.13364   0.00000  Uiso   1.00
O217   O     0.35235   0.43443   0.10083   0.00000  Uiso   1.00
C218   C     0.33966   0.54927   0.20573   0.00000  Uiso   1.00
H219   H     0.37615   0.56444   0.19965   0.00000  Uiso   1.00
O220   O     0.64770   0.56554   0.23253   0.00000  Uiso   1.00
F221   F     0.44851   0.62552   0.09257   0.00000  Uiso   1.00
F222   F     0.55149   0.37448   0.24076   0.00000  Uiso   1.00
C223   C     0.58407   0.54105   0.05404   0.00000  Uiso   1.00
H224   H     0.62375   0.53448   0.04786   0.00000  Uiso   1.00
O225   O     0.57706   0.56846   0.08049   0.00000  Uiso   1.00
C226   C     0.41593   0.45894   0.27930   0.00000  Uiso   1.00
H227   H     0.37626   0.46544   0.28554   0.00000  Uiso   1.00
O228   O     0.42293   0.43158   0.25280   0.00000  Uiso   1.00
F229   F     0.57819   0.53921   0.29417   0.00000  Uiso   1.00
F230   F     0.42182   0.46078   0.03917   0.00000  Uiso   1.00
C231   C     0.83350   0.42010   0.16692   0.00000  Uiso   1.00
C232   C     0.83316   0.57990   0.16642   0.00000  Uiso   1.00
C233   C     0.73413   0.49837   0.15541   0.00000  Uiso   1.00
C234   C     0.93253   0.50163   0.17792   0.00000  Uiso   1.00
C235   C     0.68013   0.48953   0.15246   0.00000  Uiso   1.00
C236   C     0.98653   0.51046   0.18087   0.00000  Uiso   1.00
C237   C     0.80793   0.35517   0.12945   0.00000  Uiso   1.00
C238   C     0.85874   0.64482   0.20389   0.00000  Uiso   1.00
C239   C     0.80783   0.64568   0.12880   0.00000  Uiso   1.00
C240   C     0.85884   0.35432   0.20454   0.00000  Uiso   1.00
C241   C     0.83331   0.62407   0.16612   0.00000  Uiso   1.00
C242   C     0.83335   0.37593   0.16721   0.00000  Uiso   1.00
C243   C     0.87298   0.51945   0.02745   0.00000  Uiso   1.00
C244   C     0.79369   0.48055   0.30589   0.00000  Uiso   1.00
C245   C     0.87276   0.51914   0.31309   0.00000  Uiso   1.00
C246   C     0.79391   0.48086   0.02025   0.00000  Uiso   1.00
H247   H     0.78770   0.37209   0.10082   0.00000  Uiso   1.00
H248   H     0.87896   0.62791   0.23252   0.00000  Uiso   1.00
N249   N     0.83332   0.49999   0.28573   0.00000  Uiso   1.00
N250   N     0.83335   0.50001   0.04760   0.00000  Uiso   1.00
O251   O     0.83333   0.43892   0.20487   0.00000  Uiso   1.00
O252   O     0.83334   0.56108   0.12846   0.00000  Uiso   1.00
O253   O     0.83333   0.43893   0.12843   0.00000  Uiso   1.00
O254   O     0.83334   0.56107   0.20490   0.00000  Uiso   1.00
O255   O     0.75725   0.50000   0.19595   0.00000  Uiso   1.00
O256   O     0.90942   0.50000   0.13739   0.00000  Uiso   1.00
O257   O     0.75725   0.50000   0.11950   0.00000  Uiso   1.00
O258   O     0.90942   0.50000   0.21383   0.00000  Uiso   1.00
Zn259  Zn    0.83333   0.49999   0.21771   0.00000  Uiso   1.00
Zn260  Zn    0.83333   0.50001   0.11563   0.00000  Uiso   1.00
C261   C     0.99367   0.45072   0.12759   0.00000  Uiso   1.00
H262   H     0.95713   0.43558   0.13364   0.00000  Uiso   1.00
O263   O     0.68569   0.43443   0.10083   0.00000  Uiso   1.00
C264   C     0.67300   0.54927   0.20573   0.00000  Uiso   1.00
H265   H     0.70948   0.56444   0.19965   0.00000  Uiso   1.00
O266   O     0.98103   0.56554   0.23253   0.00000  Uiso   1.00
F267   F     0.78184   0.62552   0.09257   0.00000  Uiso   1.00
F268   F     0.88482   0.37448   0.24076   0.00000  Uiso   1.00
C269   C     0.91741   0.54105   0.05404   0.00000  Uiso   1.00
H270   H     0.95708   0.53448   0.04786   0.00000  Uiso   1.00
O271   O     0.91039   0.56846   0.08049   0.00000  Uiso   1.00
C272   C     0.74926   0.45894   0.27930   0.00000  Uiso   1.00
H273   H     0.70959   0.46544   0.28554   0.00000  Uiso   1.00
O274   O     0.75626   0.43158   0.25280   0.00000  Uiso   1.00
F275   F     0.91152   0.53921   0.29417   0.00000  Uiso   1.00
F276   F     0.75515   0.46078   0.03917   0.00000  Uiso   1.00
C277   C     0.16683   0.75343   0.16692   0.00000  Uiso   1.00
C278   C     0.16650   0.91323   0.16642   0.00000  Uiso   1.00
C279   C     0.06747   0.83170   0.15541   0.00000  Uiso   1.00
C280   C     0.26587   0.83496   0.17792   0.00000  Uiso   1.00
C281   C     0.01347   0.82286   0.15246   0.00000  Uiso   1.00
C282   C     0.31987   0.84380   0.18087   0.00000  Uiso   1.00
C283   C     0.14126   0.68851   0.12945   0.00000  Uiso   1.00
C284   C     0.19207   0.97816   0.20389   0.00000  Uiso   1.00
C285   C     0.14116   0.97902   0.12880   0.00000  Uiso   1.00
C286   C     0.19217   0.68765   0.20454   0.00000  Uiso   1.00
C287   C     0.16665   0.95741   0.16612   0.00000  Uiso   1.00
C288   C     0.16669   0.70926   0.16721   0.00000  Uiso   1.00
C289   C     0.20631   0.85278   0.02745   0.00000  Uiso   1.00
C290   C     0.12702   0.81388   0.30589   0.00000  Uiso   1.00
C291   C     0.20609   0.85248   0.31309   0.00000  Uiso   1.00
C292   C     0.12725   0.81419   0.02025   0.00000  Uiso   1.00
H293   H     0.12104   0.70542   0.10082   0.00000  Uiso   1.00
H294   H     0.21230   0.96124   0.23252   0.00000  Uiso   1.00
N295   N     0.16665   0.83332   0.28573   0.00000  Uiso   1.00
N296   N     0.16668   0.83334   0.04760   0.00000  Uiso   1.00
O297   O     0.16666   0.77225   0.20487   0.00000  Uiso   1.00
O298   O     0.16667   0.89442   0.12846   0.00000  Uiso   1.00
O299   O     0.16666   0.77226   0.12843   0.00000  Uiso   1.00
O300   O     0.16667   0.89441   0.20490   0.00000  Uiso   1.00
O301   O     0.09058   0.83333   0.19595   0.00000  Uiso   1.00
O302   O     0.24275   0.83334   0.13739   0.00000  Uiso   1.00
O303   O     0.09058   0.83334   0.11950   0.00000  Uiso   1.00
O304   O     0.24275   0.83333   0.21383   0.00000  Uiso   1.00
Zn305  Zn    0.16667   0.83333   0.21771   0.00000  Uiso   1.00
Zn306  Zn    0.16667   0.83334   0.11563   0.00000  Uiso   1.00
C307   C     0.32700   0.78406   0.12759   0.00000  Uiso   1.00
H308   H     0.29047   0.76891   0.13364   0.00000  Uiso   1.00
O309   O     0.01902   0.76776   0.10083   0.00000  Uiso   1.00
C310   C     0.00633   0.88260   0.20573   0.00000  Uiso   1.00
H311   H     0.04282   0.89777   0.19965   0.00000  Uiso   1.00
O312   O     0.31436   0.89887   0.23253   0.00000  Uiso   1.00
F313   F     0.11518   0.95885   0.09257   0.00000  Uiso   1.00
F314   F     0.21816   0.70782   0.24076   0.00000  Uiso   1.00
C315   C     0.25074   0.87438   0.05404   0.00000  Uiso   1.00
H316   H     0.29042   0.86782   0.04786   0.00000  Uiso   1.00
O317   O     0.24373   0.90179   0.08049   0.00000  Uiso   1.00
C318   C     0.08259   0.79227   0.27930   0.00000  Uiso   1.00
H319   H     0.04293   0.79878   0.28554   0.00000  Uiso   1.00
O320   O     0.08960   0.76491   0.25280   0.00000  Uiso   1.00
F321   F     0.24485   0.87255   0.29417   0.00000  Uiso   1.00
F322   F     0.08848   0.79412   0.03917   0.00000  Uiso   1.00
C323   C     0.50017   0.75343   0.16692   0.00000  Uiso   1.00
C324   C     0.49983   0.91323   0.16642   0.00000  Uiso   1.00
C325   C     0.40080   0.83170   0.15541   0.00000  Uiso   1.00
C326   C     0.59920   0.83496   0.17792   0.00000  Uiso   1.00
C327   C     0.34680   0.82286   0.15246   0.00000  Uiso   1.00
C328   C     0.65320   0.84380   0.18087   0.00000  Uiso   1.00
C329   C     0.47460   0.68851   0.12945   0.00000  Uiso   1.00
C330   C     0.52540   0.97816   0.20389   0.00000  Uiso   1.00
C331   C     0.47449   0.97902   0.12880   0.00000  Uiso   1.00
C332   C     0.52550   0.68765   0.20454   0.00000  Uiso   1.00
C333   C     0.49998   0.95741   0.16612   0.00000  Uiso   1.00
C334   C     0.50002   0.70926   0.16721   0.00000  Uiso   1.00
C335   C     0.53965   0.85278   0.02745   0.00000  Uiso   1.00
C336   C     0.46035   0.81388   0.30589   0.00000  Uiso   1.00
C337   C     0.53942   0.85248   0.31309   0.00000  Uiso   1.00
C338   C     0.46058   0.81419   0.02025   0.00000  Uiso   1.00
H339   H     0.45437   0.70542   0.10082   0.00000  Uiso   1.00
H340   H     0.54563   0.96124   0.23252   0.00000  Uiso   1.00
N341   N     0.49999   0.83332   0.28573   0.00000  Uiso   1.00
N342   N     0.50001   0.83334   0.04760   0.00000  Uiso   1.00
O343   O     0.50000   0.77225   0.20487   0.00000  Uiso   1.00
O344   O     0.50000   0.89442   0.12846   0.00000  Uiso   1.00
O345   O     0.50000   0.77226   0.12843   0.00000  Uiso   1.00
O346   O     0.50000   0.89441   0.20490   0.00000  Uiso   1.00
O347   O     0.42392   0.83333   0.19595   0.00000  Uiso   1.00
O348   O     0.57608   0.83334   0.13739   0.00000  Uiso   1.00
O349   O     0.42392   0.83334   0.11950   0.00000  Uiso   1.00
O350   O     0.57608   0.83333   0.21383   0.00000  Uiso   1.00
Zn351  Zn    0.50000   0.83333   0.21771   0.00000  Uiso   1.00
Zn352  Zn    0.50000   0.83334   0.11563   0.00000  Uiso   1.00
C353   C     0.66034   0.78406   0.12759   0.00000  Uiso   1.00
H354   H     0.62380   0.76891   0.13364   0.00000  Uiso   1.00
O355   O     0.35235   0.76776   0.10083   0.00000  Uiso   1.00
C356   C     0.33966   0.88260   0.20573   0.00000  Uiso   1.00
H357   H     0.37615   0.89777   0.19965   0.00000  Uiso   1.00
O358   O     0.64770   0.89887   0.23253   0.00000  Uiso   1.00
F359   F     0.44851   0.95885   0.09257   0.00000  Uiso   1.00
F360   F     0.55149   0.70782   0.24076   0.00000  Uiso   1.00
C361   C     0.58407   0.87438   0.05404   0.00000  Uiso   1.00
H362   H     0.62375   0.86782   0.04786   0.00000  Uiso   1.00
O363   O     0.57706   0.90179   0.08049   0.00000  Uiso   1.00
C364   C     0.41593   0.79227   0.27930   0.00000  Uiso   1.00
H365   H     0.37626   0.79878   0.28554   0.00000  Uiso   1.00
O366   O     0.42293   0.76491   0.25280   0.00000  Uiso   1.00
F367   F     0.57819   0.87255   0.29417   0.00000  Uiso   1.00
F368   F     0.42182   0.79412   0.03917   0.00000  Uiso   1.00
C369   C     0.83350   0.75343   0.16692   0.00000  Uiso   1.00
C370   C     0.83316   0.91323   0.16642   0.00000  Uiso   1.00
C371   C     0.73413   0.83170   0.15541   0.00000  Uiso   1.00
C372   C     0.93253   0.83496   0.17792   0.00000  Uiso   1.00
C373   C     0.68013   0.82286   0.15246   0.00000  Uiso   1.00
C374   C     0.98653   0.84380   0.18087   0.00000  Uiso   1.00
C375   C     0.80793   0.68851   0.12945   0.00000  Uiso   1.00
C376   C     0.85874   0.97816   0.20389   0.00000  Uiso   1.00
C377   C     0.80783   0.97902   0.12880   0.00000  Uiso   1.00
C378   C     0.85884   0.68765   0.20454   0.00000  Uiso   1.00
C379   C     0.83331   0.95741   0.16612   0.00000  Uiso   1.00
C380   C     0.83335   0.70926   0.16721   0.00000  Uiso   1.00
C381   C     0.87298   0.85278   0.02745   0.00000  Uiso   1.00
C382   C     0.79369   0.81388   0.30589   0.00000  Uiso   1.00
C383   C     0.87276   0.85248   0.31309   0.00000  Uiso   1.00
C384   C     0.79391   0.81419   0.02025   0.00000  Uiso   1.00
H385   H     0.78770   0.70542   0.10082   0.00000  Uiso   1.00
H386   H     0.87896   0.96124   0.23252   0.00000  Uiso   1.00
N387   N     0.83332   0.83332   0.28573   0.00000  Uiso   1.00
N388   N     0.83335   0.83334   0.04760   0.00000  Uiso   1.00
O389   O     0.83333   0.77225   0.20487   0.00000  Uiso   1.00
O390   O     0.83334   0.89442   0.12846   0.00000  Uiso   1.00
O391   O     0.83333   0.77226   0.12843   0.00000  Uiso   1.00
O392   O     0.83334   0.89441   0.20490   0.00000  Uiso   1.00
O393   O     0.75725   0.83333   0.19595   0.00000  Uiso   1.00
O394   O     0.90942   0.83334   0.13739   0.00000  Uiso   1.00
O395   O     0.75725   0.83334   0.11950   0.00000  Uiso   1.00
O396   O     0.90942   0.83333   0.21383   0.00000  Uiso   1.00
Zn397  Zn    0.83333   0.83333   0.21771   0.00000  Uiso   1.00
Zn398  Zn    0.83333   0.83334   0.11563   0.00000  Uiso   1.00
C399   C     0.99367   0.78406   0.12759   0.00000  Uiso   1.00
H400   H     0.95713   0.76891   0.13364   0.00000  Uiso   1.00
O401   O     0.68569   0.76776   0.10083   0.00000  Uiso   1.00
C402   C     0.67300   0.88260   0.20573   0.00000  Uiso   1.00
H403   H     0.70948   0.89777   0.19965   0.00000  Uiso   1.00
O404   O     0.98103   0.89887   0.23253   0.00000  Uiso   1.00
F405   F     0.78184   0.95885   0.09257   0.00000  Uiso   1.00
F406   F     0.88482   0.70782   0.24076   0.00000  Uiso   1.00
C407   C     0.91741   0.87438   0.05404   0.00000  Uiso   1.00
H408   H     0.95708   0.86782   0.04786   0.00000  Uiso   1.00
O409   O     0.91039   0.90179   0.08049   0.00000  Uiso   1.00
C410   C     0.74926   0.79227   0.27930   0.00000  Uiso   1.00
H411   H     0.70959   0.79878   0.28554   0.00000  Uiso   1.00
O412   O     0.75626   0.76491   0.25280   0.00000  Uiso   1.00
F413   F     0.91152   0.87255   0.29417   0.00000  Uiso   1.00
F414   F     0.75515   0.79412   0.03917   0.00000  Uiso   1.00
C415   C     0.16683   0.08677   0.50025   0.00000  Uiso   1.00
C416   C     0.16650   0.24657   0.49975   0.00000  Uiso   1.00
C417   C     0.06747   0.16503   0.48874   0.00000  Uiso   1.00
C418   C     0.26587   0.16829   0.51126   0.00000  Uiso   1.00
C419   C     0.01347   0.15619   0.48579   0.00000  Uiso   1.00
C420   C     0.31987   0.17713   0.51421   0.00000  Uiso   1.00
C421   C     0.14126   0.02184   0.46278   0.00000  Uiso   1.00
C422   C     0.19207   0.31149   0.53722   0.00000  Uiso   1.00
C423   C     0.14116   0.31235   0.46213   0.00000  Uiso   1.00
C424   C     0.19217   0.02098   0.53787   0.00000  Uiso   1.00
C425   C     0.16665   0.29074   0.49945   0.00000  Uiso   1.00
C426   C     0.16669   0.04259   0.50055   0.00000  Uiso   1.00
C427   C     0.20631   0.18612   0.36078   0.00000  Uiso   1.00
C428   C     0.12702   0.14721   0.63922   0.00000  Uiso   1.00
C429   C     0.20609   0.18581   0.64642   0.00000  Uiso   1.00
C430   C     0.12725   0.14752   0.35358   0.00000  Uiso   1.00
H431   H     0.12104   0.03876   0.43415   0.00000  Uiso   1.00
H432   H     0.21230   0.29458   0.56585   0.00000  Uiso   1.00
N433   N     0.16665   0.16666   0.61907   0.00000  Uiso   1.00
N434   N     0.16668   0.16668   0.38093   0.00000  Uiso   1.00
O435   O     0.16666   0.10558   0.53821   0.00000  Uiso   1.00
O436   O     0.16667   0.22775   0.46179   0.00000  Uiso   1.00
O437   O     0.16666   0.10559   0.46176   0.00000  Uiso   1.00
O438   O     0.16667   0.22774   0.53824   0.00000  Uiso   1.00
O439   O     0.09058   0.16666   0.52928   0.00000  Uiso   1.00
O440   O     0.24275   0.16667   0.47072   0.00000  Uiso   1.00
O441   O     0.09058   0.16667   0.45284   0.00000  Uiso   1.00
O442   O     0.24275   0.16666   0.54716   0.00000  Uiso   1.00
Zn443  Zn    0.16667   0.16666   0.55104   0.00000  Uiso   1.00
Zn444  Zn    0.16667   0.16667   0.44896   0.00000  Uiso   1.00
C445   C     0.32700   0.11739   0.46093   0.00000  Uiso   1.00
H446   H     0.29047   0.10225   0.46697   0.00000  Uiso   1.00
O447   O     0.01902   0.10110   0.43416   0.00000  Uiso   1.00
C448   C     0.00633   0.21593   0.53906   0.00000  Uiso   1.00
H449   H     0.04282   0.23111   0.53298   0.00000  Uiso   1.00
O450   O     0.31436   0.23220   0.56586   0.00000  Uiso   1.00
F451   F     0.11518   0.29218   0.42591   0.00000  Uiso   1.00
F452   F     0.21816   0.04115   0.57409   0.00000  Uiso   1.00
C453   C     0.25074   0.20772   0.38737   0.00000  Uiso   1.00
H454   H     0.29042   0.20115   0.38119   0.00000  Uiso   1.00
O455   O     0.24373   0.23512   0.41382   0.00000  Uiso   1.00
C456   C     0.08259   0.12560   0.61264   0.00000  Uiso   1.00
H457   H     0.04293   0.13211   0.61888   0.00000  Uiso   1.00
O458   O     0.08960   0.09825   0.58614   0.00000  Uiso   1.00
F459   F     0.24485   0.20588   0.62750   0.00000  Uiso   1.00
F460   F     0.08848   0.12745   0.37250   0.00000  Uiso   1.00
C461   C     0.50017   0.08677   0.50025   0.00000  Uiso   1.00
C462   C     0.49983   0.24657   0.49975   0.00000  Uiso   1.00
C463   C     0.40080   0.16503   0.48874   0.00000  Uiso   1.00
C464   C     0.59920   0.16829   0.51126   0.00000  Uiso   1.00
C465   C     0.34680   0.15619   0.48579   0.00000  Uiso   1.00
C466   C     0.65320   0.17713   0.51421   0.00000  Uiso   1.00
C467   C     0.47460   0.02184   0.46278   0.00000  Uiso   1.00
C468   C     0.52540   0.31149   0.53722   0.00000  Uiso   1.00
C469   C     0.47449   0.31235   0.46213   0.00000  Uiso   1.00
C470   C     0.52550   0.02098   0.53787   0.00000  Uiso   1.00
C471   C     0.49998   0.29074   0.49945   0.00000  Uiso   1.00
C472   C     0.50002   0.04259   0.50055   0.00000  Uiso   1.00
C473   C     0.53965   0.18612   0.36078   0.00000  Uiso   1.00
C474   C     0.46035   0.14721   0.63922   0.00000  Uiso   1.00
C475   C     0.53942   0.18581   0.64642   0.00000  Uiso   1.00
C476   C     0.46058   0.14752   0.35358   0.00000  Uiso   1.00
H477   H     0.45437   0.03876   0.43415   0.00000  Uiso   1.00
H478   H     0.54563   0.29458   0.56585   0.00000  Uiso   1.00
N479   N     0.49999   0.16666   0.61907   0.00000  Uiso   1.00
N480   N     0.50001   0.16668   0.38093   0.00000  Uiso   1.00
O481   O     0.50000   0.10558   0.53821   0.00000  Uiso   1.00
O482   O     0.50000   0.22775   0.46179   0.00000  Uiso   1.00
O483   O     0.50000   0.10559   0.46176   0.00000  Uiso   1.00
O484   O     0.50000   0.22774   0.53824   0.00000  Uiso   1.00
O485   O     0.42392   0.16666   0.52928   0.00000  Uiso   1.00
O486   O     0.57608   0.16667   0.47072   0.00000  Uiso   1.00
O487   O     0.42392   0.16667   0.45284   0.00000  Uiso   1.00
O488   O     0.57608   0.16666   0.54716   0.00000  Uiso   1.00
Zn489  Zn    0.50000   0.16666   0.55104   0.00000  Uiso   1.00
Zn490  Zn    0.50000   0.16667   0.44896   0.00000  Uiso   1.00
C491   C     0.66034   0.11739   0.46093   0.00000  Uiso   1.00
H492   H     0.62380   0.10225   0.46697   0.00000  Uiso   1.00
O493   O     0.35235   0.10110   0.43416   0.00000  Uiso   1.00
C494   C     0.33966   0.21593   0.53906   0.00000  Uiso   1.00
H495   H     0.37615   0.23111   0.53298   0.00000  Uiso   1.00
O496   O     0.64770   0.23220   0.56586   0.00000  Uiso   1.00
F497   F     0.44851   0.29218   0.42591   0.00000  Uiso   1.00
F498   F     0.55149   0.04115   0.57409   0.00000  Uiso   1.00
C499   C     0.58407   0.20772   0.38737   0.00000  Uiso   1.00
H500   H     0.62375   0.20115   0.38119   0.00000  Uiso   1.00
O501   O     0.57706   0.23512   0.41382   0.00000  Uiso   1.00
C502   C     0.41593   0.12560   0.61264   0.00000  Uiso   1.00
H503   H     0.37626   0.13211   0.61888   0.00000  Uiso   1.00
O504   O     0.42293   0.09825   0.58614   0.00000  Uiso   1.00
F505   F     0.57819   0.20588   0.62750   0.00000  Uiso   1.00
F506   F     0.42182   0.12745   0.37250   0.00000  Uiso   1.00
C507   C     0.83350   0.08677   0.50025   0.00000  Uiso   1.00
C508   C     0.83316   0.24657   0.49975   0.00000  Uiso   1.00
C509   C     0.73413   0.16503   0.48874   0.00000  Uiso   1.00
C510   C     0.93253   0.16829   0.51126   0.00000  Uiso   1.00
C511   C     0.68013   0.15619   0.48579   0.00000  Uiso   1.00
C512   C     0.98653   0.17713   0.51421   0.00000  Uiso   1.00
C513   C     0.80793   0.02184   0.46278   0.00000  Uiso   1.00
C514   C     0.85874   0.31149   0.53722   0.00000  Uiso   1.00
C515   C     0.80783   0.31235   0.46213   0.00000  Uiso   1.00
C516   C     0.85884   0.02098   0.53787   0.00000  Uiso   1.00
C517   C     0.83331   0.29074   0.49945   0.00000  Uiso   1.00
C518   C     0.83335   0.04259   0.50055   0.00000  Uiso   1.00
C519   C     0.87298   0.18612   0.36078   0.00000  Uiso   1.00
C520   C     0.79369   0.14721   0.63922   0.00000  Uiso   1.00
C521   C     0.87276   0.18581   0.64642   0.00000  Uiso   1.00
C522   C     0.79391   0.14752   0.35358   0.00000  Uiso   1.00
H523   H     0.78770   0.03876   0.43415   0.00000  Uiso   1.00
H524   H     0.87896   0.29458   0.56585   0.00000  Uiso   1.00
N525   N     0.83332   0.16666   0.61907   0.00000  Uiso   1.00
N526   N     0.83335   0.16668   0.38093   0.00000  Uiso   1.00
O527   O     0.83333   0.10558   0.53821   0.00000  Uiso   1.00
O528   O     0.83334   0.22775   0.46179   0.00000  Uiso   1.00
O529   O     0.83333   0.10559   0.46176   0.00000  Uiso   1.00
O530   O     0.83334   0.22774   0.53824   0.00000  Uiso   1.00
O531   O     0.75725   0.16666   0.52928   0.00000  Uiso   1.00
O532   O     0.90942   0.16667   0.47072   0.00000  Uiso   1.00
O533   O     0.75725   0.16667   0.45284   0.00000  Uiso   1.00
O534   O     0.90942   0.16666   0.54716   0.00000  Uiso   1.00
Zn535  Zn    0.83333   0.16666   0.55104   0.00000  Uiso   1.00
Zn536  Zn    0.83333   0.16667   0.44896   0.00000  Uiso   1.00
C537   C     0.99367   0.11739   0.46093   0.00000  Uiso   1.00
H538   H     0.95713   0.10225   0.46697   0.00000  Uiso   1.00
O539   O     0.68569   0.10110   0.43416   0.00000  Uiso   1.00
C540   C     0.67300   0.21593   0.53906   0.00000  Uiso   1.00
H541   H     0.70948   0.23111   0.53298   0.00000  Uiso   1.00
O542   O     0.98103   0.23220   0.56586   0.00000  Uiso   1.00
F543   F     0.78184   0.29218   0.42591   0.00000  Uiso   1.00
F544   F     0.88482   0.04115   0.57409   0.00000  Uiso   1.00
C545   C     0.91741   0.20772   0.38737   0.00000  Uiso   1.00
H546   H     0.95708   0.20115   0.38119   0.00000  Uiso   1.00
O547   O     0.91039   0.23512   0.41382   0.00000  Uiso   1.00
C548   C     0.74926   0.12560   0.61264   0.00000  Uiso   1.00
H549   H     0.70959   0.13211   0.61888   0.00000  Uiso   1.00
O550   O     0.75626   0.09825   0.58614   0.00000  Uiso   1.00
F551   F     0.91152   0.20588   0.62750   0.00000  Uiso   1.00
F552   F     0.75515   0.12745   0.37250   0.00000  Uiso   1.00
C553   C     0.16683   0.42010   0.50025   0.00000  Uiso   1.00
C554   C     0.16650   0.57990   0.49975   0.00000  Uiso   1.00
C555   C     0.06747   0.49837   0.48874   0.00000  Uiso   1.00
C556   C     0.26587   0.50163   0.51126   0.00000  Uiso   1.00
C557   C     0.01347   0.48953   0.48579   0.00000  Uiso   1.00
C558   C     0.31987   0.51046   0.51421   0.00000  Uiso   1.00
C559   C     0.14126   0.35517   0.46278   0.00000  Uiso   1.00
C560   C     0.19207   0.64482   0.53722   0.00000  Uiso   1.00
C561   C     0.14116   0.64568   0.46213   0.00000  Uiso   1.00
C562   C     0.19217   0.35432   0.53787   0.00000  Uiso   1.00
C563   C     0.16665   0.62407   0.49945   0.00000  Uiso   1.00
C564   C     0.16669   0.37593   0.50055   0.00000  Uiso   1.00
C565   C     0.20631   0.51945   0.36078   0.00000  Uiso   1.00
C566   C     0.12702   0.48055   0.63922   0.00000  Uiso   1.00
C567   C     0.20609   0.51914   0.64642   0.00000  Uiso   1.00
C568   C     0.12725   0.48086   0.35358   0.00000  Uiso   1.00
H569   H     0.12104   0.37209   0.43415   0.00000  Uiso   1.00
H570   H     0.21230   0.62791   0.56585   0.00000  Uiso   1.00
N571   N     0.16665   0.49999   0.61907   0.00000  Uiso   1.00
N572   N     0.16668   0.50001   0.38093   0.00000  Uiso   1.00
O573   O     0.16666   0.43892   0.53821   0.00000  Uiso   1.00
O574   O     0.16667   0.56108   0.46179   0.00000  Uiso   1.00
O575   O     0.16666   0.43893   0.46176   0.00000  Uiso   1.00
O576   O     0.16667   0.56107   0.53824   0.00000  Uiso   1.00
O577   O     0.09058   0.50000   0.52928   0.00000  Uiso   1.00
O578   O     0.24275   0.50000   0.47072   0.00000  Uiso   1.00
O579   O     0.09058   0.50000   0.45284   0.00000  Uiso   1.00
O580   O     0.24275   0.50000   0.54716   0.00000  Uiso   1.00
Zn581  Zn    0.16667   0.49999   0.55104   0.00000  Uiso   1.00
Zn582  Zn    0.16667   0.50001   0.44896   0.00000  Uiso   1.00
C583   C     0.32700   0.45072   0.46093   0.00000  Uiso   1.00
H584   H     0.29047   0.43558   0.46697   0.00000  Uiso   1.00
O585   O     0.01902   0.43443   0.43416   0.00000  Uiso   1.00
C586   C     0.00633   0.54927   0.53906   0.00000  Uiso   1.00
H587   H     0.04282   0.56444   0.53298   0.00000  Uiso   1.00
O588   O     0.31436   0.56554   0.56586   0.00000  Uiso   1.00
F589   F     0.11518   0.62552   0.42591   0.00000  Uiso   1.00
F590   F     0.21816   0.37448   0.57409   0.00000  Uiso   1.00
C591   C     0.25074   0.54105   0.38737   0.00000  Uiso   1.00
H592   H     0.29042   0.53448   0.38119   0.00000  Uiso   1.00
O593   O     0.24373   0.56846   0.41382   0.00000  Uiso   1.00
C594   C     0.08259   0.45894   0.61264   0.00000  Uiso   1.00
H595   H     0.04293   0.46544   0.61888   0.00000  Uiso   1.00
O596   O     0.08960   0.43158   0.58614   0.00000  Uiso   1.00
F597   F     0.24485   0.53921   0.62750   0.00000  Uiso   1.00
F598   F     0.08848   0.46078   0.37250   0.00000  Uiso   1.00
C599   C     0.50017   0.42010   0.50025   0.00000  Uiso   1.00
C600   C     0.49983   0.57990   0.49975   0.00000  Uiso   1.00
C601   C     0.40080   0.49837   0.48874   0.00000  Uiso   1.00
C602   C     0.59920   0.50163   0.51126   0.00000  Uiso   1.00
C603   C     0.34680   0.48953   0.48579   0.00000  Uiso   1.00
C604   C     0.65320   0.51046   0.51421   0.00000  Uiso   1.00
C605   C     0.47460   0.35517   0.46278   0.00000  Uiso   1.00
C606   C     0.52540   0.64482   0.53722   0.00000  Uiso   1.00
C607   C     0.47449   0.64568   0.46213   0.00000  Uiso   1.00
C608   C     0.52550   0.35432   0.53787   0.00000  Uiso   1.00
C609   C     0.49998   0.62407   0.49945   0.00000  Uiso   1.00
C610   C     0.50002   0.37593   0.50055   0.00000  Uiso   1.00
C611   C     0.53965   0.51945   0.36078   0.00000  Uiso   1.00
C612   C     0.46035   0.48055   0.63922   0.00000  Uiso   1.00
C613   C     0.53942   0.51914   0.64642   0.00000  Uiso   1.00
C614   C     0.46058   0.48086   0.35358   0.00000  Uiso   1.00
H615   H     0.45437   0.37209   0.43415   0.00000  Uiso   1.00
H616   H     0.54563   0.62791   0.56585   0.00000  Uiso   1.00
N617   N     0.49999   0.49999   0.61907   0.00000  Uiso   1.00
N618   N     0.50001   0.50001   0.38093   0.00000  Uiso   1.00
O619   O     0.50000   0.43892   0.53821   0.00000  Uiso   1.00
O620   O     0.50000   0.56108   0.46179   0.00000  Uiso   1.00
O621   O     0.50000   0.43893   0.46176   0.00000  Uiso   1.00
O622   O     0.50000   0.56107   0.53824   0.00000  Uiso   1.00
O623   O     0.42392   0.50000   0.52928   0.00000  Uiso   1.00
O624   O     0.57608   0.50000   0.47072   0.00000  Uiso   1.00
O625   O     0.42392   0.50000   0.45284   0.00000  Uiso   1.00
O626   O     0.57608   0.50000   0.54716   0.00000  Uiso   1.00
Zn627  Zn    0.50000   0.49999   0.55104   0.00000  Uiso   1.00
Zn628  Zn    0.50000   0.50001   0.44896   0.00000  Uiso   1.00
C629   C     0.66034   0.45072   0.46093   0.00000  Uiso   1.00
H630   H     0.62380   0.43558   0.46697   0.00000  Uiso   1.00
O631   O     0.35235   0.43443   0.43416   0.00000  Uiso   1.00
C632   C     0.33966   0.54927   0.53906   0.00000  Uiso   1.00
H633   H     0.37615   0.56444   0.53298   0.00000  Uiso   1.00
O634   O     0.64770   0.56554   0.56586   0.00000  Uiso   1.00
F635   F     0.44851   0.62552   0.42591   0.00000  Uiso   1.00
F636   F     0.55149   0.37448   0.57409   0.00000  Uiso   1.00
C637   C     0.58407   0.54105   0.38737   0.00000  Uiso   1.00
H638   H     0.62375   0.53448   0.38119   0.00000  Uiso   1.00
O639   O     0.57706   0.56846   0.41382   0.00000  Uiso   1.00
C640   C     0.41593   0.45894   0.61264   0.00000  Uiso   1.00
H641   H     0.37626   0.46544   0.61888   0.00000  Uiso   1.00
O642   O     0.42293   0.43158   0.58614   0.00000  Uiso   1.00
F643   F     0.57819   0.53921   0.62750   0.00000  Uiso   1.00
F644   F     0.42182   0.46078   0.37250   0.00000  Uiso   1.00
C645   C     0.83350   0.42010   0.50025   0.00000  Uiso   1.00
C646   C     0.83316   0.57990   0.49975   0.00000  Uiso   1.00
C647   C     0.73413   0.49837   0.48874   0.00000  Uiso   1.00
C648   C     0.93253   0.50163   0.51126   0.00000  Uiso   1.00
C649   C     0.68013   0.48953   0.48579   0.00000  Uiso   1.00
C650   C     0.98653   0.51046   0.51421   0.00000  Uiso   1.00
C651   C     0.80793   0.35517   0.46278   0.00000  Uiso   1.00
C652   C     0.85874   0.64482   0.53722   0.00000  Uiso   1.00
C653   C     0.80783   0.64568   0.46213   0.00000  Uiso   1.00
C654   C     0.85884   0.35432   0.53787   0.00000  Uiso   1.00
C655   C     0.83331   0.62407   0.49945   0.00000  Uiso   1.00
C656   C     0.83335   0.37593   0.50055   0.00000  Uiso   1.00
C657   C     0.87298   0.51945   0.36078   0.00000  Uiso   1.00
C658   C     0.79369   0.48055   0.63922   0.00000  Uiso   1.00
C659   C     0.87276   0.51914   0.64642   0.00000  Uiso   1.00
C660   C     0.79391   0.48086   0.35358   0.00000  Uiso   1.00
H661   H     0.78770   0.37209   0.43415   0.00000  Uiso   1.00
H662   H     0.87896   0.62791   0.56585   0.00000  Uiso   1.00
N663   N     0.83332   0.49999   0.61907   0.00000  Uiso   1.00
N664   N     0.83335   0.50001   0.38093   0.00000  Uiso   1.00
O665   O     0.83333   0.43892   0.53821   0.00000  Uiso   1.00
O666   O     0.83334   0.56108   0.46179   0.00000  Uiso   1.00
O667   O     0.83333   0.43893   0.46176   0.00000  Uiso   1.00
O668   O     0.83334   0.56107   0.53824   0.00000  Uiso   1.00
O669   O     0.75725   0.50000   0.52928   0.00000  Uiso   1.00
O670   O     0.90942   0.50000   0.47072   0.00000  Uiso   1.00
O671   O     0.75725   0.50000   0.45284   0.00000  Uiso   1.00
O672   O     0.90942   0.50000   0.54716   0.00000  Uiso   1.00
Zn673  Zn    0.83333   0.49999   0.55104   0.00000  Uiso   1.00
Zn674  Zn    0.83333   0.50001   0.44896   0.00000  Uiso   1.00
C675   C     0.99367   0.45072   0.46093   0.00000  Uiso   1.00
H676   H     0.95713   0.43558   0.46697   0.00000  Uiso   1.00
O677   O     0.68569   0.43443   0.43416   0.00000  Uiso   1.00
C678   C     0.67300   0.54927   0.53906   0.00000  Uiso   1.00
H679   H     0.70948   0.56444   0.53298   0.00000  Uiso   1.00
O680   O     0.98103   0.56554   0.56586   0.00000  Uiso   1.00
F681   F     0.78184   0.62552   0.42591   0.00000  Uiso   1.00
F682   F     0.88482   0.37448   0.57409   0.00000  Uiso   1.00
C683   C     0.91741   0.54105   0.38737   0.00000  Uiso   1.00
H684   H     0.95708   0.53448   0.38119   0.00000  Uiso   1.00
O685   O     0.91039   0.56846   0.41382   0.00000  Uiso   1.00
C686   C     0.74926   0.45894   0.61264   0.00000  Uiso   1.00
H687   H     0.70959   0.46544   0.61888   0.00000  Uiso   1.00
O688   O     0.75626   0.43158   0.58614   0.00000  Uiso   1.00
F689   F     0.91152   0.53921   0.62750   0.00000  Uiso   1.00
F690   F     0.75515   0.46078   0.37250   0.00000  Uiso   1.00
C691   C     0.16683   0.75343   0.50025   0.00000  Uiso   1.00
C692   C     0.16650   0.91323   0.49975   0.00000  Uiso   1.00
C693   C     0.06747   0.83170   0.48874   0.00000  Uiso   1.00
C694   C     0.26587   0.83496   0.51126   0.00000  Uiso   1.00
C695   C     0.01347   0.82286   0.48579   0.00000  Uiso   1.00
C696   C     0.31987   0.84380   0.51421   0.00000  Uiso   1.00
C697   C     0.14126   0.68851   0.46278   0.00000  Uiso   1.00
C698   C     0.19207   0.97816   0.53722   0.00000  Uiso   1.00
C699   C     0.14116   0.97902   0.46213   0.00000  Uiso   1.00
C700   C     0.19217   0.68765   0.53787   0.00000  Uiso   1.00
C701   C     0.16665   0.95741   0.49945   0.00000  Uiso   1.00
C702   C     0.16669   0.70926   0.50055   0.00000  Uiso   1.00
C703   C     0.20631   0.85278   0.36078   0.00000  Uiso   1.00
C704   C     0.12702   0.81388   0.63922   0.00000  Uiso   1.00
C705   C     0.20609   0.85248   0.64642   0.00000  Uiso   1.00
C706   C     0.12725   0.81419   0.35358   0.00000  Uiso   1.00
H707   H     0.12104   0.70542   0.43415   0.00000  Uiso   1.00
H708   H     0.21230   0.96124   0.56585   0.00000  Uiso   1.00
N709   N     0.16665   0.83332   0.61907   0.00000  Uiso   1.00
N710   N     0.16668   0.83334   0.38093   0.00000  Uiso   1.00
O711   O     0.16666   0.77225   0.53821   0.00000  Uiso   1.00
O712   O     0.16667   0.89442   0.46179   0.00000  Uiso   1.00
O713   O     0.16666   0.77226   0.46176   0.00000  Uiso   1.00
O714   O     0.16667   0.89441   0.53824   0.00000  Uiso   1.00
O715   O     0.09058   0.83333   0.52928   0.00000  Uiso   1.00
O716   O     0.24275   0.83334   0.47072   0.00000  Uiso   1.00
O717   O     0.09058   0.83334   0.45284   0.00000  Uiso   1.00
O718   O     0.24275   0.83333   0.54716   0.00000  Uiso   1.00
Zn719  Zn    0.16667   0.83333   0.55104   0.00000  Uiso   1.00
Zn720  Zn    0.16667   0.83334   0.44896   0.00000  Uiso   1.00
C721   C     0.32700   0.78406   0.46093   0.00000  Uiso   1.00
H722   H     0.29047   0.76891   0.46697   0.00000  Uiso   1.00
O723   O     0.01902   0.76776   0.43416   0.00000  Uiso   1.00
C724   C     0.00633   0.88260   0.53906   0.00000  Uiso   1.00
H725   H     0.04282   0.89777   0.53298   0.00000  Uiso   1.00
O726   O     0.31436   0.89887   0.56586   0.00000  Uiso   1.00
F727   F     0.11518   0.95885   0.42591   0.00000  Uiso   1.00
F728   F     0.21816   0.70782   0.57409   0.00000  Uiso   1.00
C729   C     0.25074   0.87438   0.38737   0.00000  Uiso   1.00
H730   H     0.29042   0.86782   0.38119   0.00000  Uiso   1.00
O731   O     0.24373   0.90179   0.41382   0.00000  Uiso   1.00
C732   C     0.08259   0.79227   0.61264   0.00000  Uiso   1.00
H733   H     0.04293   0.79878   0.61888   0.00000  Uiso   1.00
O734   O     0.08960   0.76491   0.58614   0.00000  Uiso   1.00
F735   F     0.24485   0.87255   0.62750   0.00000  Uiso   1.00
F736   F     0.08848   0.79412   0.37250   0.00000  Uiso   1.00
C737   C     0.50017   0.75343   0.50025   0.00000  Uiso   1.00
C738   C     0.49983   0.91323   0.49975   0.00000  Uiso   1.00
C739   C     0.40080   0.83170   0.48874   0.00000  Uiso   1.00
C740   C     0.59920   0.83496   0.51126   0.00000  Uiso   1.00
C741   C     0.34680   0.82286   0.48579   0.00000  Uiso   1.00
C742   C     0.65320   0.84380   0.51421   0.00000  Uiso   1.00
C743   C     0.47460   0.68851   0.46278   0.00000  Uiso   1.00
C744   C     0.52540   0.97816   0.53722   0.00000  Uiso   1.00
C745   C     0.47449   0.97902   0.46213   0.00000  Uiso   1.00
C746   C     0.52550   0.68765   0.53787   0.00000  Uiso   1.00
C747   C     0.49998   0.95741   0.49945   0.00000  Uiso   1.00
C748   C     0.50002   0.70926   0.50055   0.00000  Uiso   1.00
C749   C     0.53965   0.85278   0.36078   0.00000  Uiso   1.00
C750   C     0.46035   0.81388   0.63922   0.00000  Uiso   1.00
C751   C     0.53942   0.85248   0.64642   0.00000  Uiso   1.00
C752   C     0.46058   0.81419   0.35358   0.00000  Uiso   1.00
H753   H     0.45437   0.70542   0.43415   0.00000  Uiso   1.00
H754   H     0.54563   0.96124   0.56585   0.00000  Uiso   1.00
N755   N     0.49999   0.83332   0.61907   0.00000  Uiso   1.00
N756   N     0.50001   0.83334   0.38093   0.00000  Uiso   1.00
O757   O     0.50000   0.77225   0.53821   0.00000  Uiso   1.00
O758   O     0.50000   0.89442   0.46179   0.00000  Uiso   1.00
O759   O     0.50000   0.77226   0.46176   0.00000  Uiso   1.00
O760   O     0.50000   0.89441   0.53824   0.00000  Uiso   1.00
O761   O     0.42392   0.83333   0.52928   0.00000  Uiso   1.00
O762   O     0.57608   0.83334   0.47072   0.00000  Uiso   1.00
O763   O     0.42392   0.83334   0.45284   0.00000  Uiso   1.00
O764   O     0.57608   0.83333   0.54716   0.00000  Uiso   1.00
Zn765  Zn    0.50000   0.83333   0.55104   0.00000  Uiso   1.00
Zn766  Zn    0.50000   0.83334   0.44896   0.00000  Uiso   1.00
C767   C     0.66034   0.78406   0.46093   0.00000  Uiso   1.00
H768   H     0.62380   0.76891   0.46697   0.00000  Uiso   1.00
O769   O     0.35235   0.76776   0.43416   0.00000  Uiso   1.00
C770   C     0.33966   0.88260   0.53906   0.00000  Uiso   1.00
H771   H     0.37615   0.89777   0.53298   0.00000  Uiso   1.00
O772   O     0.64770   0.89887   0.56586   0.00000  Uiso   1.00
F773   F     0.44851   0.95885   0.42591   0.00000  Uiso   1.00
F774   F     0.55149   0.70782   0.57409   0.00000  Uiso   1.00
C775   C     0.58407   0.87438   0.38737   0.00000  Uiso   1.00
H776   H     0.62375   0.86782   0.38119   0.00000  Uiso   1.00
O777   O     0.57706   0.90179   0.41382   0.00000  Uiso   1.00
C778   C     0.41593   0.79227   0.61264   0.00000  Uiso   1.00
H779   H     0.37626   0.79878   0.61888   0.00000  Uiso   1.00
O780   O     0.42293   0.76491   0.58614   0.00000  Uiso   1.00
F781   F     0.57819   0.87255   0.62750   0.00000  Uiso   1.00
F782   F     0.42182   0.79412   0.37250   0.00000  Uiso   1.00
C783   C     0.83350   0.75343   0.50025   0.00000  Uiso   1.00
C784   C     0.83316   0.91323   0.49975   0.00000  Uiso   1.00
C785   C     0.73413   0.83170   0.48874   0.00000  Uiso   1.00
C786   C     0.93253   0.83496   0.51126   0.00000  Uiso   1.00
C787   C     0.68013   0.82286   0.48579   0.00000  Uiso   1.00
C788   C     0.98653   0.84380   0.51421   0.00000  Uiso   1.00
C789   C     0.80793   0.68851   0.46278   0.00000  Uiso   1.00
C790   C     0.85874   0.97816   0.53722   0.00000  Uiso   1.00
C791   C     0.80783   0.97902   0.46213   0.00000  Uiso   1.00
C792   C     0.85884   0.68765   0.53787   0.00000  Uiso   1.00
C793   C     0.83331   0.95741   0.49945   0.00000  Uiso   1.00
C794   C     0.83335   0.70926   0.50055   0.00000  Uiso   1.00
C795   C     0.87298   0.85278   0.36078   0.00000  Uiso   1.00
C796   C     0.79369   0.81388   0.63922   0.00000  Uiso   1.00
C797   C     0.87276   0.85248   0.64642   0.00000  Uiso   1.00
C798   C     0.79391   0.81419   0.35358   0.00000  Uiso   1.00
H799   H     0.78770   0.70542   0.43415   0.00000  Uiso   1.00
H800   H     0.87896   0.96124   0.56585   0.00000  Uiso   1.00
N801   N     0.83332   0.83332   0.61907   0.00000  Uiso   1.00
N802   N     0.83335   0.83334   0.38093   0.00000  Uiso   1.00
O803   O     0.83333   0.77225   0.53821   0.00000  Uiso   1.00
O804   O     0.83334   0.89442   0.46179   0.00000  Uiso   1.00
O805   O     0.83333   0.77226   0.46176   0.00000  Uiso   1.00
O806   O     0.83334   0.89441   0.53824   0.00000  Uiso   1.00
O807   O     0.75725   0.83333   0.52928   0.00000  Uiso   1.00
O808   O     0.90942   0.83334   0.47072   0.00000  Uiso   1.00
O809   O     0.75725   0.83334   0.45284   0.00000  Uiso   1.00
O810   O     0.90942   0.83333   0.54716   0.00000  Uiso   1.00
Zn811  Zn    0.83333   0.83333   0.55104   0.00000  Uiso   1.00
Zn812  Zn    0.83333   0.83334   0.44896   0.00000  Uiso   1.00
C813   C     0.99367   0.78406   0.46093   0.00000  Uiso   1.00
H814   H     0.95713   0.76891   0.46697   0.00000  Uiso   1.00
O815   O     0.68569   0.76776   0.43416   0.00000  Uiso   1.00
C816   C     0.67300   0.88260   0.53906   0.00000  Uiso   1.00
H817   H     0.70948   0.89777   0.53298   0.00000  Uiso   1.00
O818   O     0.98103   0.89887   0.56586   0.00000  Uiso   1.00
F819   F     0.78184   0.95885   0.42591   0.00000  Uiso   1.00
F820   F     0.88482   0.70782   0.57409   0.00000  Uiso   1.00
C821   C     0.91741   0.87438   0.38737   0.00000  Uiso   1.00
H822   H     0.95708   0.86782   0.38119   0.00000  Uiso   1.00
O823   O     0.91039   0.90179   0.41382   0.00000  Uiso   1.00
C824   C     0.74926   0.79227   0.61264   0.00000  Uiso   1.00
H825   H     0.70959   0.79878   0.61888   0.00000  Uiso   1.00
O826   O     0.75626   0.76491   0.58614   0.00000  Uiso   1.00
F827   F     0.91152   0.87255   0.62750   0.00000  Uiso   1.00
F828   F     0.75515   0.79412   0.37250   0.00000  Uiso   1.00
C829   C     0.16683   0.08677   0.83358   0.00000  Uiso   1.00
C830   C     0.16650   0.24657   0.83308   0.00000  Uiso   1.00
C831   C     0.06747   0.16503   0.82208   0.00000  Uiso   1.00
C832   C     0.26587   0.16829   0.84459   0.00000  Uiso   1.00
C833   C     0.01347   0.15619   0.81913   0.00000  Uiso   1.00
C834   C     0.31987   0.17713   0.84754   0.00000  Uiso   1.00
C835   C     0.14126   0.02184   0.79611   0.00000  Uiso   1.00
C836   C     0.19207   0.31149   0.87055   0.00000  Uiso   1.00
C837   C     0.14116   0.31235   0.79546   0.00000  Uiso   1.00
C838   C     0.19217   0.02098   0.87120   0.00000  Uiso   1.00
C839   C     0.16665   0.29074   0.83279   0.00000  Uiso   1.00
C840   C     0.16669   0.04259   0.83388   0.00000  Uiso   1.00
C841   C     0.20631   0.18612   0.69411   0.00000  Uiso   1.00
C842   C     0.12702   0.14721   0.97256   0.00000  Uiso   1.00
C843   C     0.20609   0.18581   0.97975   0.00000  Uiso   1.00
C844   C     0.12725   0.14752   0.68692   0.00000  Uiso   1.00
H845   H     0.12104   0.03876   0.76748   0.00000  Uiso   1.00
H846   H     0.21230   0.29458   0.89918   0.00000  Uiso   1.00
N847   N     0.16665   0.16666   0.95240   0.00000  Uiso   1.00
N848   N     0.16668   0.16668   0.71427   0.00000  Uiso   1.00
O849   O     0.16666   0.10558   0.87154   0.00000  Uiso   1.00
O850   O     0.16667   0.22775   0.79513   0.00000  Uiso   1.00
O851   O     0.16666   0.10559   0.79510   0.00000  Uiso   1.00
O852   O     0.16667   0.22774   0.87157   0.00000  Uiso   1.00
O853   O     0.09058   0.16666   0.86261   0.00000  Uiso   1.00
O854   O     0.24275   0.16667   0.80405   0.00000  Uiso   1.00
O855   O     0.09058   0.16667   0.78617   0.00000  Uiso   1.00
O856   O     0.24275   0.16666   0.88050   0.00000  Uiso   1.00
Zn857  Zn    0.16667   0.16666   0.88437   0.00000  Uiso   1.00
Zn858  Zn    0.16667   0.16667   0.78229   0.00000  Uiso   1.00
C859   C     0.32700   0.11739   0.79426   0.00000  Uiso   1.00
H860   H     0.29047   0.10225   0.80030   0.00000  Uiso   1.00
O861   O     0.01902   0.10110   0.76750   0.00000  Uiso   1.00
C862   C     0.00633   0.21593   0.87240   0.00000  Uiso   1.00
H863   H     0.04282   0.23111   0.86632   0.00000  Uiso   1.00
O864   O     0.31436   0.23220   0.89920   0.00000  Uiso   1.00
F865   F     0.11518   0.29218   0.75924   0.00000  Uiso   1.00
F866   F     0.21816   0.04115   0.90743   0.00000  Uiso   1.00
C867   C     0.25074   0.20772   0.72071   0.00000  Uiso   1.00
H868   H     0.29042   0.20115   0.71452   0.00000  Uiso   1.00
O869   O     0.24373   0.23512   0.74715   0.00000  Uiso   1.00
C870   C     0.08259   0.12560   0.94597   0.00000  Uiso   1.00
H871   H     0.04293   0.13211   0.95221   0.00000  Uiso   1.00
O872   O     0.08960   0.09825   0.91947   0.00000  Uiso   1.00
F873   F     0.24485   0.20588   0.96084   0.00000  Uiso   1.00
F874   F     0.08848   0.12745   0.70583   0.00000  Uiso   1.00
C875   C     0.50017   0.08677   0.83358   0.00000  Uiso   1.00
C876   C     0.49983   0.24657   0.83308   0.00000  Uiso   1.00
C877   C     0.40080   0.16503   0.82208   0.00000  Uiso   1.00
C878   C     0.59920   0.16829   0.84459   0.00000  Uiso   1.00
C879   C     0.34680   0.15619   0.81913   0.00000  Uiso   1.00
C880   C     0.65320   0.17713   0.84754   0.00000  Uiso   1.00
C881   C     0.47460   0.02184   0.79611   0.00000  Uiso   1.00
C882   C     0.52540   0.31149   0.87055   0.00000  Uiso   1.00
C883   C     0.47449   0.31235   0.79546   0.00000  Uiso   1.00
C884   C     0.52550   0.02098   0.87120   0.00000  Uiso   1.00
C885   C     0.49998   0.29074   0.83279   0.00000  Uiso   1.00
C886   C     0.50002   0.04259   0.83388   0.00000  Uiso   1.00
C887   C     0.53965   0.18612   0.69411   0.00000  Uiso   1.00
C888   C     0.46035   0.14721   0.97256   0.00000  Uiso   1.00
C889   C     0.53942   0.18581   0.97975   0.00000  Uiso   1.00
C890   C     0.46058   0.14752   0.68692   0.00000  Uiso   1.00
H891   H     0.45437   0.03876   0.76748   0.00000  Uiso   1.00
H892   H     0.54563   0.29458   0.89918   0.00000  Uiso   1.00
N893   N     0.49999   0.16666   0.95240   0.00000  Uiso   1.00
N894   N     0.50001   0.16668   0.71427   0.00000  Uiso   1.00
O895   O     0.50000   0.10558   0.87154   0.00000  Uiso   1.00
O896   O     0.50000   0.22775   0.79513   0.00000  Uiso   1.00
O897   O     0.50000   0.10559   0.79510   0.00000  Uiso   1.00
O898   O     0.50000   0.22774   0.87157   0.00000  Uiso   1.00
O899   O     0.42392   0.16666   0.86261   0.00000  Uiso   1.00
O900   O     0.57608   0.16667   0.80405   0.00000  Uiso   1.00
O901   O     0.42392   0.16667   0.78617   0.00000  Uiso   1.00
O902   O     0.57608   0.16666   0.88050   0.00000  Uiso   1.00
Zn903  Zn    0.50000   0.16666   0.88437   0.00000  Uiso   1.00
Zn904  Zn    0.50000   0.16667   0.78229   0.00000  Uiso   1.00
C905   C     0.66034   0.11739   0.79426   0.00000  Uiso   1.00
H906   H     0.62380   0.10225   0.80030   0.00000  Uiso   1.00
O907   O     0.35235   0.10110   0.76750   0.00000  Uiso   1.00
C908   C     0.33966   0.21593   0.87240   0.00000  Uiso   1.00
H909   H     0.37615   0.23111   0.86632   0.00000  Uiso   1.00
O910   O     0.64770   0.23220   0.89920   0.00000  Uiso   1.00
F911   F     0.44851   0.29218   0.75924   0.00000  Uiso   1.00
F912   F     0.55149   0.04115   0.90743   0.00000  Uiso   1.00
C913   C     0.58407   0.20772   0.72071   0.00000  Uiso   1.00
H914   H     0.62375   0.20115   0.71452   0.00000  Uiso   1.00
O915   O     0.57706   0.23512   0.74715   0.00000  Uiso   1.00
C916   C     0.41593   0.12560   0.94597   0.00000  Uiso   1.00
H917   H     0.37626   0.13211   0.95221   0.00000  Uiso   1.00
O918   O     0.42293   0.09825   0.91947   0.00000  Uiso   1.00
F919   F     0.57819   0.20588   0.96084   0.00000  Uiso   1.00
F920   F     0.42182   0.12745   0.70583   0.00000  Uiso   1.00
C921   C     0.83350   0.08677   0.83358   0.00000  Uiso   1.00
C922   C     0.83316   0.24657   0.83308   0.00000  Uiso   1.00
C923   C     0.73413   0.16503   0.82208   0.00000  Uiso   1.00
C924   C     0.93253   0.16829   0.84459   0.00000  Uiso   1.00
C925   C     0.68013   0.15619   0.81913   0.00000  Uiso   1.00
C926   C     0.98653   0.17713   0.84754   0.00000  Uiso   1.00
C927   C     0.80793   0.02184   0.79611   0.00000  Uiso   1.00
C928   C     0.85874   0.31149   0.87055   0.00000  Uiso   1.00
C929   C     0.80783   0.31235   0.79546   0.00000  Uiso   1.00
C930   C     0.85884   0.02098   0.87120   0.00000  Uiso   1.00
C931   C     0.83331   0.29074   0.83279   0.00000  Uiso   1.00
C932   C     0.83335   0.04259   0.83388   0.00000  Uiso   1.00
C933   C     0.87298   0.18612   0.69411   0.00000  Uiso   1.00
C934   C     0.79369   0.14721   0.97256   0.00000  Uiso   1.00
C935   C     0.87276   0.18581   0.97975   0.00000  Uiso   1.00
C936   C     0.79391   0.14752   0.68692   0.00000  Uiso   1.00
H937   H     0.78770   0.03876   0.76748   0.00000  Uiso   1.00
H938   H     0.87896   0.29458   0.89918   0.00000  Uiso   1.00
N939   N     0.83332   0.16666   0.95240   0.00000  Uiso   1.00
N940   N     0.83335   0.16668   0.71427   0.00000  Uiso   1.00
O941   O     0.83333   0.10558   0.87154   0.00000  Uiso   1.00
O942   O     0.83334   0.22775   0.79513   0.00000  Uiso   1.00
O943   O     0.83333   0.10559   0.79510   0.00000  Uiso   1.00
O944   O     0.83334   0.22774   0.87157   0.00000  Uiso   1.00
O945   O     0.75725   0.16666   0.86261   0.00000  Uiso   1.00
O946   O     0.90942   0.16667   0.80405   0.00000  Uiso   1.00
O947   O     0.75725   0.16667   0.78617   0.00000  Uiso   1.00
O948   O     0.90942   0.16666   0.88050   0.00000  Uiso   1.00
Zn949  Zn    0.83333   0.16666   0.88437   0.00000  Uiso   1.00
Zn950  Zn    0.83333   0.16667   0.78229   0.00000  Uiso   1.00
C951   C     0.99367   0.11739   0.79426   0.00000  Uiso   1.00
H952   H     0.95713   0.10225   0.80030   0.00000  Uiso   1.00
O953   O     0.68569   0.10110   0.76750   0.00000  Uiso   1.00
C954   C     0.67300   0.21593   0.87240   0.00000  Uiso   1.00
H955   H     0.70948   0.23111   0.86632   0.00000  Uiso   1.00
O956   O     0.98103   0.23220   0.89920   0.00000  Uiso   1.00
F957   F     0.78184   0.29218   0.75924   0.00000  Uiso   1.00
F958   F     0.88482   0.04115   0.90743   0.00000  Uiso   1.00
C959   C     0.91741   0.20772   0.72071   0.00000  Uiso   1.00
H960   H     0.95708   0.20115   0.71452   0.00000  Uiso   1.00
O961   O     0.91039   0.23512   0.74715   0.00000  Uiso   1.00
C962   C     0.74926   0.12560   0.94597   0.00000  Uiso   1.00
H963   H     0.70959   0.13211   0.95221   0.00000  Uiso   1.00
O964   O     0.75626   0.09825   0.91947   0.00000  Uiso   1.00
F965   F     0.91152   0.20588   0.96084   0.00000  Uiso   1.00
F966   F     0.75515   0.12745   0.70583   0.00000  Uiso   1.00
C967   C     0.16683   0.42010   0.83358   0.00000  Uiso   1.00
C968   C     0.16650   0.57990   0.83308   0.00000  Uiso   1.00
C969   C     0.06747   0.49837   0.82208   0.00000  Uiso   1.00
C970   C     0.26587   0.50163   0.84459   0.00000  Uiso   1.00
C971   C     0.01347   0.48953   0.81913   0.00000  Uiso   1.00
C972   C     0.31987   0.51046   0.84754   0.00000  Uiso   1.00
C973   C     0.14126   0.35517   0.79611   0.00000  Uiso   1.00
C974   C     0.19207   0.64482   0.87055   0.00000  Uiso   1.00
C975   C     0.14116   0.64568   0.79546   0.00000  Uiso   1.00
C976   C     0.19217   0.35432   0.87120   0.00000  Uiso   1.00
C977   C     0.16665   0.62407   0.83279   0.00000  Uiso   1.00
C978   C     0.16669   0.37593   0.83388   0.00000  Uiso   1.00
C979   C     0.20631   0.51945   0.69411   0.00000  Uiso   1.00
C980   C     0.12702   0.48055   0.97256   0.00000  Uiso   1.00
C981   C     0.20609   0.51914   0.97975   0.00000  Uiso   1.00
C982   C     0.12725   0.48086   0.68692   0.00000  Uiso   1.00
H983   H     0.12104   0.37209   0.76748   0.00000  Uiso   1.00
H984   H     0.21230   0.62791   0.89918   0.00000  Uiso   1.00
N985   N     0.16665   0.49999   0.95240   0.00000  Uiso   1.00
N986   N     0.16668   0.50001   0.71427   0.00000  Uiso   1.00
O987   O     0.16666   0.43892   0.87154   0.00000  Uiso   1.00
O988   O     0.16667   0.56108   0.79513   0.00000  Uiso   1.00
O989   O     0.16666   0.43893   0.79510   0.00000  Uiso   1.00
O990   O     0.16667   0.56107   0.87157   0.00000  Uiso   1.00
O991   O     0.09058   0.50000   0.86261   0.00000  Uiso   1.00
O992   O     0.24275   0.50000   0.80405   0.00000  Uiso   1.00
O993   O     0.09058   0.50000   0.78617   0.00000  Uiso   1.00
O994   O     0.24275   0.50000   0.88050   0.00000  Uiso   1.00
Zn995  Zn    0.16667   0.49999   0.88437   0.00000  Uiso   1.00
Zn996  Zn    0.16667   0.50001   0.78229   0.00000  Uiso   1.00
C997   C     0.32700   0.45072   0.79426   0.00000  Uiso   1.00
H998   H     0.29047   0.43558   0.80030   0.00000  Uiso   1.00
O999   O     0.01902   0.43443   0.76750   0.00000  Uiso   1.00
C1000  C     0.00633   0.54927   0.87240   0.00000  Uiso   1.00
H1001  H     0.04282   0.56444   0.86632   0.00000  Uiso   1.00
O1002  O     0.31436   0.56554   0.89920   0.00000  Uiso   1.00
F1003  F     0.11518   0.62552   0.75924   0.00000  Uiso   1.00
F1004  F     0.21816   0.37448   0.90743   0.00000  Uiso   1.00
C1005  C     0.25074   0.54105   0.72071   0.00000  Uiso   1.00
H1006  H     0.29042   0.53448   0.71452   0.00000  Uiso   1.00
O1007  O     0.24373   0.56846   0.74715   0.00000  Uiso   1.00
C1008  C     0.08259   0.45894   0.94597   0.00000  Uiso   1.00
H1009  H     0.04293   0.46544   0.95221   0.00000  Uiso   1.00
O1010  O     0.08960   0.43158   0.91947   0.00000  Uiso   1.00
F1011  F     0.24485   0.53921   0.96084   0.00000  Uiso   1.00
F1012  F     0.08848   0.46078   0.70583   0.00000  Uiso   1.00
C1013  C     0.50017   0.42010   0.83358   0.00000  Uiso   1.00
C1014  C     0.49983   0.57990   0.83308   0.00000  Uiso   1.00
C1015  C     0.40080   0.49837   0.82208   0.00000  Uiso   1.00
C1016  C     0.59920   0.50163   0.84459   0.00000  Uiso   1.00
C1017  C     0.34680   0.48953   0.81913   0.00000  Uiso   1.00
C1018  C     0.65320   0.51046   0.84754   0.00000  Uiso   1.00
C1019  C     0.47460   0.35517   0.79611   0.00000  Uiso   1.00
C1020  C     0.52540   0.64482   0.87055   0.00000  Uiso   1.00
C1021  C     0.47449   0.64568   0.79546   0.00000  Uiso   1.00
C1022  C     0.52550   0.35432   0.87120   0.00000  Uiso   1.00
C1023  C     0.49998   0.62407   0.83279   0.00000  Uiso   1.00
C1024  C     0.50002   0.37593   0.83388   0.00000  Uiso   1.00
C1025  C     0.53965   0.51945   0.69411   0.00000  Uiso   1.00
C1026  C     0.46035   0.48055   0.97256   0.00000  Uiso   1.00
C1027  C     0.53942   0.51914   0.97975   0.00000  Uiso   1.00
C1028  C     0.46058   0.48086   0.68692   0.00000  Uiso   1.00
H1029  H     0.45437   0.37209   0.76748   0.00000  Uiso   1.00
H1030  H     0.54563   0.62791   0.89918   0.00000  Uiso   1.00
N1031  N     0.49999   0.49999   0.95240   0.00000  Uiso   1.00
N1032  N     0.50001   0.50001   0.71427   0.00000  Uiso   1.00
O1033  O     0.50000   0.43892   0.87154   0.00000  Uiso   1.00
O1034  O     0.50000   0.56108   0.79513   0.00000  Uiso   1.00
O1035  O     0.50000   0.43893   0.79510   0.00000  Uiso   1.00
O1036  O     0.50000   0.56107   0.87157   0.00000  Uiso   1.00
O1037  O     0.42392   0.50000   0.86261   0.00000  Uiso   1.00
O1038  O     0.57608   0.50000   0.80405   0.00000  Uiso   1.00
O1039  O     0.42392   0.50000   0.78617   0.00000  Uiso   1.00
O1040  O     0.57608   0.50000   0.88050   0.00000  Uiso   1.00
Zn1041 Zn    0.50000   0.49999   0.88437   0.00000  Uiso   1.00
Zn1042 Zn    0.50000   0.50001   0.78229   0.00000  Uiso   1.00
C1043  C     0.66034   0.45072   0.79426   0.00000  Uiso   1.00
H1044  H     0.62380   0.43558   0.80030   0.00000  Uiso   1.00
O1045  O     0.35235   0.43443   0.76750   0.00000  Uiso   1.00
C1046  C     0.33966   0.54927   0.87240   0.00000  Uiso   1.00
H1047  H     0.37615   0.56444   0.86632   0.00000  Uiso   1.00
O1048  O     0.64770   0.56554   0.89920   0.00000  Uiso   1.00
F1049  F     0.44851   0.62552   0.75924   0.00000  Uiso   1.00
F1050  F     0.55149   0.37448   0.90743   0.00000  Uiso   1.00
C1051  C     0.58407   0.54105   0.72071   0.00000  Uiso   1.00
H1052  H     0.62375   0.53448   0.71452   0.00000  Uiso   1.00
O1053  O     0.57706   0.56846   0.74715   0.00000  Uiso   1.00
C1054  C     0.41593   0.45894   0.94597   0.00000  Uiso   1.00
H1055  H     0.37626   0.46544   0.95221   0.00000  Uiso   1.00
O1056  O     0.42293   0.43158   0.91947   0.00000  Uiso   1.00
F1057  F     0.57819   0.53921   0.96084   0.00000  Uiso   1.00
F1058  F     0.42182   0.46078   0.70583   0.00000  Uiso   1.00
C1059  C     0.83350   0.42010   0.83358   0.00000  Uiso   1.00
C1060  C     0.83316   0.57990   0.83308   0.00000  Uiso   1.00
C1061  C     0.73413   0.49837   0.82208   0.00000  Uiso   1.00
C1062  C     0.93253   0.50163   0.84459   0.00000  Uiso   1.00
C1063  C     0.68013   0.48953   0.81913   0.00000  Uiso   1.00
C1064  C     0.98653   0.51046   0.84754   0.00000  Uiso   1.00
C1065  C     0.80793   0.35517   0.79611   0.00000  Uiso   1.00
C1066  C     0.85874   0.64482   0.87055   0.00000  Uiso   1.00
C1067  C     0.80783   0.64568   0.79546   0.00000  Uiso   1.00
C1068  C     0.85884   0.35432   0.87120   0.00000  Uiso   1.00
C1069  C     0.83331   0.62407   0.83279   0.00000  Uiso   1.00
C1070  C     0.83335   0.37593   0.83388   0.00000  Uiso   1.00
C1071  C     0.87298   0.51945   0.69411   0.00000  Uiso   1.00
C1072  C     0.79369   0.48055   0.97256   0.00000  Uiso   1.00
C1073  C     0.87276   0.51914   0.97975   0.00000  Uiso   1.00
C1074  C     0.79391   0.48086   0.68692   0.00000  Uiso   1.00
H1075  H     0.78770   0.37209   0.76748   0.00000  Uiso   1.00
H1076  H     0.87896   0.62791   0.89918   0.00000  Uiso   1.00
N1077  N     0.83332   0.49999   0.95240   0.00000  Uiso   1.00
N1078  N     0.83335   0.50001   0.71427   0.00000  Uiso   1.00
O1079  O     0.83333   0.43892   0.87154   0.00000  Uiso   1.00
O1080  O     0.83334   0.56108   0.79513   0.00000  Uiso   1.00
O1081  O     0.83333   0.43893   0.79510   0.00000  Uiso   1.00
O1082  O     0.83334   0.56107   0.87157   0.00000  Uiso   1.00
O1083  O     0.75725   0.50000   0.86261   0.00000  Uiso   1.00
O1084  O     0.90942   0.50000   0.80405   0.00000  Uiso   1.00
O1085  O     0.75725   0.50000   0.78617   0.00000  Uiso   1.00
O1086  O     0.90942   0.50000   0.88050   0.00000  Uiso   1.00
Zn1087 Zn    0.83333   0.49999   0.88437   0.00000  Uiso   1.00
Zn1088 Zn    0.83333   0.50001   0.78229   0.00000  Uiso   1.00
C1089  C     0.99367   0.45072   0.79426   0.00000  Uiso   1.00
H1090  H     0.95713   0.43558   0.80030   0.00000  Uiso   1.00
O1091  O     0.68569   0.43443   0.76750   0.00000  Uiso   1.00
C1092  C     0.67300   0.54927   0.87240   0.00000  Uiso   1.00
H1093  H     0.70948   0.56444   0.86632   0.00000  Uiso   1.00
O1094  O     0.98103   0.56554   0.89920   0.00000  Uiso   1.00
F1095  F     0.78184   0.62552   0.75924   0.00000  Uiso   1.00
F1096  F     0.88482   0.37448   0.90743   0.00000  Uiso   1.00
C1097  C     0.91741   0.54105   0.72071   0.00000  Uiso   1.00
H1098  H     0.95708   0.53448   0.71452   0.00000  Uiso   1.00
O1099  O     0.91039   0.56846   0.74715   0.00000  Uiso   1.00
C1100  C     0.74926   0.45894   0.94597   0.00000  Uiso   1.00
H1101  H     0.70959   0.46544   0.95221   0.00000  Uiso   1.00
O1102  O     0.75626   0.43158   0.91947   0.00000  Uiso   1.00
F1103  F     0.91152   0.53921   0.96084   0.00000  Uiso   1.00
F1104  F     0.75515   0.46078   0.70583   0.00000  Uiso   1.00
C1105  C     0.16683   0.75343   0.83358   0.00000  Uiso   1.00
C1106  C     0.16650   0.91323   0.83308   0.00000  Uiso   1.00
C1107  C     0.06747   0.83170   0.82208   0.00000  Uiso   1.00
C1108  C     0.26587   0.83496   0.84459   0.00000  Uiso   1.00
C1109  C     0.01347   0.82286   0.81913   0.00000  Uiso   1.00
C1110  C     0.31987   0.84380   0.84754   0.00000  Uiso   1.00
C1111  C     0.14126   0.68851   0.79611   0.00000  Uiso   1.00
C1112  C     0.19207   0.97816   0.87055   0.00000  Uiso   1.00
C1113  C     0.14116   0.97902   0.79546   0.00000  Uiso   1.00
C1114  C     0.19217   0.68765   0.87120   0.00000  Uiso   1.00
C1115  C     0.16665   0.95741   0.83279   0.00000  Uiso   1.00
C1116  C     0.16669   0.70926   0.83388   0.00000  Uiso   1.00
C1117  C     0.20631   0.85278   0.69411   0.00000  Uiso   1.00
C1118  C     0.12702   0.81388   0.97256   0.00000  Uiso   1.00
C1119  C     0.20609   0.85248   0.97975   0.00000  Uiso   1.00
C1120  C     0.12725   0.81419   0.68692   0.00000  Uiso   1.00
H1121  H     0.12104   0.70542   0.76748   0.00000  Uiso   1.00
H1122  H     0.21230   0.96124   0.89918   0.00000  Uiso   1.00
N1123  N     0.16665   0.83332   0.95240   0.00000  Uiso   1.00
N1124  N     0.16668   0.83334   0.71427   0.00000  Uiso   1.00
O1125  O     0.16666   0.77225   0.87154   0.00000  Uiso   1.00
O1126  O     0.16667   0.89442   0.79513   0.00000  Uiso   1.00
O1127  O     0.16666   0.77226   0.79510   0.00000  Uiso   1.00
O1128  O     0.16667   0.89441   0.87157   0.00000  Uiso   1.00
O1129  O     0.09058   0.83333   0.86261   0.00000  Uiso   1.00
O1130  O     0.24275   0.83334   0.80405   0.00000  Uiso   1.00
O1131  O     0.09058   0.83334   0.78617   0.00000  Uiso   1.00
O1132  O     0.24275   0.83333   0.88050   0.00000  Uiso   1.00
Zn1133 Zn    0.16667   0.83333   0.88437   0.00000  Uiso   1.00
Zn1134 Zn    0.16667   0.83334   0.78229   0.00000  Uiso   1.00
C1135  C     0.32700   0.78406   0.79426   0.00000  Uiso   1.00
H1136  H     0.29047   0.76891   0.80030   0.00000  Uiso   1.00
O1137  O     0.01902   0.76776   0.76750   0.00000  Uiso   1.00
C1138  C     0.00633   0.88260   0.87240   0.00000  Uiso   1.00
H1139  H     0.04282   0.89777   0.86632   0.00000  Uiso   1.00
O1140  O     0.31436   0.89887   0.89920   0.00000  Uiso   1.00
F1141  F     0.11518   0.95885   0.75924   0.00000  Uiso   1.00
F1142  F     0.21816   0.70782   0.90743   0.00000  Uiso   1.00
C1143  C     0.25074   0.87438   0.72071   0.00000  Uiso   1.00
H1144  H     0.29042   0.86782   0.71452   0.00000  Uiso   1.00
O1145  O     0.24373   0.90179   0.74715   0.00000  Uiso   1.00
C1146  C     0.08259   0.79227   0.94597   0.00000  Uiso   1.00
H1147  H     0.04293   0.79878   0.95221   0.00000  Uiso   1.00
O1148  O     0.08960   0.76491   0.91947   0.00000  Uiso   1.00
F1149  F     0.24485   0.87255   0.96084   0.00000  Uiso   1.00
F1150  F     0.08848   0.79412   0.70583   0.00000  Uiso   1.00
C1151  C     0.50017   0.75343   0.83358   0.00000  Uiso   1.00
C1152  C     0.49983   0.91323   0.83308   0.00000  Uiso   1.00
C1153  C     0.40080   0.83170   0.82208   0.00000  Uiso   1.00
C1154  C     0.59920   0.83496   0.84459   0.00000  Uiso   1.00
C1155  C     0.34680   0.82286   0.81913   0.00000  Uiso   1.00
C1156  C     0.65320   0.84380   0.84754   0.00000  Uiso   1.00
C1157  C     0.47460   0.68851   0.79611   0.00000  Uiso   1.00
C1158  C     0.52540   0.97816   0.87055   0.00000  Uiso   1.00
C1159  C     0.47449   0.97902   0.79546   0.00000  Uiso   1.00
C1160  C     0.52550   0.68765   0.87120   0.00000  Uiso   1.00
C1161  C     0.49998   0.95741   0.83279   0.00000  Uiso   1.00
C1162  C     0.50002   0.70926   0.83388   0.00000  Uiso   1.00
C1163  C     0.53965   0.85278   0.69411   0.00000  Uiso   1.00
C1164  C     0.46035   0.81388   0.97256   0.00000  Uiso   1.00
C1165  C     0.53942   0.85248   0.97975   0.00000  Uiso   1.00
C1166  C     0.46058   0.81419   0.68692   0.00000  Uiso   1.00
H1167  H     0.45437   0.70542   0.76748   0.00000  Uiso   1.00
H1168  H     0.54563   0.96124   0.89918   0.00000  Uiso   1.00
N1169  N     0.49999   0.83332   0.95240   0.00000  Uiso   1.00
N1170  N     0.50001   0.83334   0.71427   0.00000  Uiso   1.00
O1171  O     0.50000   0.77225   0.87154   0.00000  Uiso   1.00
O1172  O     0.50000   0.89442   0.79513   0.00000  Uiso   1.00
O1173  O     0.50000   0.77226   0.79510   0.00000  Uiso   1.00
O1174  O     0.50000   0.89441   0.87157   0.00000  Uiso   1.00
O1175  O     0.42392   0.83333   0.86261   0.00000  Uiso   1.00
O1176  O     0.57608   0.83334   0.80405   0.00000  Uiso   1.00
O1177  O     0.42392   0.83334   0.78617   0.00000  Uiso   1.00
O1178  O     0.57608   0.83333   0.88050   0.00000  Uiso   1.00
Zn1179 Zn    0.50000   0.83333   0.88437   0.00000  Uiso   1.00
Zn1180 Zn    0.50000   0.83334   0.78229   0.00000  Uiso   1.00
C1181  C     0.66034   0.78406   0.79426   0.00000  Uiso   1.00
H1182  H     0.62380   0.76891   0.80030   0.00000  Uiso   1.00
O1183  O     0.35235   0.76776   0.76750   0.00000  Uiso   1.00
C1184  C     0.33966   0.88260   0.87240   0.00000  Uiso   1.00
H1185  H     0.37615   0.89777   0.86632   0.00000  Uiso   1.00
O1186  O     0.64770   0.89887   0.89920   0.00000  Uiso   1.00
F1187  F     0.44851   0.95885   0.75924   0.00000  Uiso   1.00
F1188  F     0.55149   0.70782   0.90743   0.00000  Uiso   1.00
C1189  C     0.58407   0.87438   0.72071   0.00000  Uiso   1.00
H1190  H     0.62375   0.86782   0.71452   0.00000  Uiso   1.00
O1191  O     0.57706   0.90179   0.74715   0.00000  Uiso   1.00
C1192  C     0.41593   0.79227   0.94597   0.00000  Uiso   1.00
H1193  H     0.37626   0.79878   0.95221   0.00000  Uiso   1.00
O1194  O     0.42293   0.76491   0.91947   0.00000  Uiso   1.00
F1195  F     0.57819   0.87255   0.96084   0.00000  Uiso   1.00
F1196  F     0.42182   0.79412   0.70583   0.00000  Uiso   1.00
C1197  C     0.83350   0.75343   0.83358   0.00000  Uiso   1.00
C1198  C     0.83316   0.91323   0.83308   0.00000  Uiso   1.00
C1199  C     0.73413   0.83170   0.82208   0.00000  Uiso   1.00
C1200  C     0.93253   0.83496   0.84459   0.00000  Uiso   1.00
C1201  C     0.68013   0.82286   0.81913   0.00000  Uiso   1.00
C1202  C     0.98653   0.84380   0.84754   0.00000  Uiso   1.00
C1203  C     0.80793   0.68851   0.79611   0.00000  Uiso   1.00
C1204  C     0.85874   0.97816   0.87055   0.00000  Uiso   1.00
C1205  C     0.80783   0.97902   0.79546   0.00000  Uiso   1.00
C1206  C     0.85884   0.68765   0.87120   0.00000  Uiso   1.00
C1207  C     0.83331   0.95741   0.83279   0.00000  Uiso   1.00
C1208  C     0.83335   0.70926   0.83388   0.00000  Uiso   1.00
C1209  C     0.87298   0.85278   0.69411   0.00000  Uiso   1.00
C1210  C     0.79369   0.81388   0.97256   0.00000  Uiso   1.00
C1211  C     0.87276   0.85248   0.97975   0.00000  Uiso   1.00
C1212  C     0.79391   0.81419   0.68692   0.00000  Uiso   1.00
H1213  H     0.78770   0.70542   0.76748   0.00000  Uiso   1.00
H1214  H     0.87896   0.96124   0.89918   0.00000  Uiso   1.00
N1215  N     0.83332   0.83332   0.95240   0.00000  Uiso   1.00
N1216  N     0.83335   0.83334   0.71427   0.00000  Uiso   1.00
O1217  O     0.83333   0.77225   0.87154   0.00000  Uiso   1.00
O1218  O     0.83334   0.89442   0.79513   0.00000  Uiso   1.00
O1219  O     0.83333   0.77226   0.79510   0.00000  Uiso   1.00
O1220  O     0.83334   0.89441   0.87157   0.00000  Uiso   1.00
O1221  O     0.75725   0.83333   0.86261   0.00000  Uiso   1.00
O1222  O     0.90942   0.83334   0.80405   0.00000  Uiso   1.00
O1223  O     0.75725   0.83334   0.78617   0.00000  Uiso   1.00
O1224  O     0.90942   0.83333   0.88050   0.00000  Uiso   1.00
Zn1225 Zn    0.83333   0.83333   0.88437   0.00000  Uiso   1.00
Zn1226 Zn    0.83333   0.83334   0.78229   0.00000  Uiso   1.00
C1227  C     0.99367   0.78406   0.79426   0.00000  Uiso   1.00
H1228  H     0.95713   0.76891   0.80030   0.00000  Uiso   1.00
O1229  O     0.68569   0.76776   0.76750   0.00000  Uiso   1.00
C1230  C     0.67300   0.88260   0.87240   0.00000  Uiso   1.00
H1231  H     0.70948   0.89777   0.86632   0.00000  Uiso   1.00
O1232  O     0.98103   0.89887   0.89920   0.00000  Uiso   1.00
F1233  F     0.78184   0.95885   0.75924   0.00000  Uiso   1.00
F1234  F     0.88482   0.70782   0.90743   0.00000  Uiso   1.00
C1235  C     0.91741   0.87438   0.72071   0.00000  Uiso   1.00
H1236  H     0.95708   0.86782   0.71452   0.00000  Uiso   1.00
O1237  O     0.91039   0.90179   0.74715   0.00000  Uiso   1.00
C1238  C     0.74926   0.79227   0.94597   0.00000  Uiso   1.00
H1239  H     0.70959   0.79878   0.95221   0.00000  Uiso   1.00
O1240  O     0.75626   0.76491   0.91947   0.00000  Uiso   1.00
F1241  F     0.91152   0.87255   0.96084   0.00000  Uiso   1.00
F1242  F     0.75515   0.79412   0.70583   0.00000  Uiso   1.00
loop_
_geom_bond_atom_site_label_1
_geom_bond_atom_site_label_2
_geom_bond_distance
_geom_bond_site_symmetry_2
_ccdc_geom_bond_type
C1     O21     1.289   .     A
C1     C12     1.414   .     S
C1     O23     1.287   .     A
C2     O22     1.289   .     A
C2     C11     1.414   .     S
C2     O24     1.287   .     A
C3     O27     1.289   .     A
C3     O25     1.277   .     A
C3     C5      1.406   .     S
C4     O26     1.277   .     A
C4     O28     1.289   .     A
C4     C6      1.406   .     S
C5     C98     1.352   1_455 S
C5     C123    1.502   1_455 S
C6     C51     1.352   .     S
C6     C80     1.502   .     S
C7     C12     1.397   .     A
C7     H17     1.084   .     S
C7     C285    1.371   1_545 S
C8     C11     1.397   .     A
C8     H18     1.084   .     S
C8     C148    1.371   .     S
C9     F37     1.359   .     S
C9     C11     1.398   .     A
C9     C145    1.371   .     S
C10    F38     1.359   .     S
C10    C12     1.398   .     A
C10    C284    1.371   1_545 S
C13    C39     1.472   .     S
C13    N20     1.383   .     A
C13    C843    1.420   1_554 S
C14    C42     1.472   .     S
C14    N19     1.383   .     A
C14    C430    1.420   .     S
C15    N19     1.360   .     A
C15    F45     1.355   .     S
C15    C427    1.420   .     S
C16    N20     1.360   .     A
C16    F46     1.355   .     S
C16    C842    1.420   1_554 S
N19    Zn29    2.026   .     S
N20    Zn30    2.026   .     S
O21    Zn29    1.997   .     S
O22    Zn30    1.997   .     S
O23    Zn30    1.987   .     S
O24    Zn29    1.987   .     S
O25    Zn29    1.983   .     S
O26    Zn30    1.983   .     S
O27    Zn30    1.977   .     S
O28    Zn29    1.977   .     S
C31    H32     1.085   .     S
C31    C51     1.502   .     S
C31    O79     1.221   .     S
O33    C123    1.221   1_455 S
C34    H35     1.084   .     S
C34    C98     1.502   1_455 S
C34    O128    1.220   1_455 S
O36    C80     1.220   .     S
C39    O41     1.218   .     D
C39    H40     1.086   .     S
C42    O44     1.218   .     D
C42    H43     1.086   .     S
C47    O67     1.289   .     A
C47    C58     1.414   .     S
C47    O69     1.287   .     A
C48    O68     1.289   .     A
C48    C57     1.414   .     S
C48    O70     1.287   .     A
C49    O73     1.289   .     A
C49    O71     1.277   .     A
C49    C51     1.406   .     S
C50    O72     1.277   .     A
C50    O74     1.289   .     A
C50    C52     1.406   .     S
C52    C97     1.352   .     S
C52    C126    1.502   .     S
C53    C58     1.397   .     A
C53    H63     1.084   .     S
C53    C331    1.371   1_545 S
C54    C57     1.397   .     A
C54    H64     1.084   .     S
C54    C194    1.371   .     S
C55    F83     1.359   .     S
C55    C57     1.398   .     A
C55    C191    1.371   .     S
C56    F84     1.359   .     S
C56    C58     1.398   .     A
C56    C330    1.371   1_545 S
C59    C85     1.472   .     S
C59    N66     1.383   .     A
C59    C889    1.420   1_554 S
C60    C88     1.472   .     S
C60    N65     1.383   .     A
C60    C476    1.420   .     S
C61    N65     1.360   .     A
C61    F91     1.355   .     S
C61    C473    1.420   .     S
C62    N66     1.360   .     A
C62    F92     1.355   .     S
C62    C888    1.420   1_554 S
N65    Zn75    2.026   .     S
N66    Zn76    2.026   .     S
O67    Zn75    1.997   .     S
O68    Zn76    1.997   .     S
O69    Zn76    1.987   .     S
O70    Zn75    1.987   .     S
O71    Zn75    1.983   .     S
O72    Zn76    1.983   .     S
O73    Zn76    1.977   .     S
O74    Zn75    1.977   .     S
C77    H78     1.085   .     S
C77    C97     1.502   .     S
C77    O125    1.221   .     S
C80    H81     1.084   .     S
O82    C126    1.220   .     S
C85    O87     1.218   .     D
C85    H86     1.086   .     S
C88    O90     1.218   .     D
C88    H89     1.086   .     S
C93    O113    1.289   .     A
C93    C104    1.414   .     S
C93    O115    1.287   .     A
C94    O114    1.289   .     A
C94    C103    1.414   .     S
C94    O116    1.287   .     A
C95    O119    1.289   .     A
C95    O117    1.277   .     A
C95    C97     1.406   .     S
C96    O118    1.277   .     A
C96    O120    1.289   .     A
C96    C98     1.406   .     S
C98    C5      1.352   1_655 S
C98    C34     1.502   1_655 S
C99    C104    1.397   .     A
C99    H109    1.084   .     S
C99    C377    1.371   1_545 S
C100   C103    1.397   .     A
C100   H110    1.084   .     S
C100   C240    1.371   .     S
C101   F129    1.359   .     S
C101   C103    1.398   .     A
C101   C237    1.371   .     S
C102   F130    1.359   .     S
C102   C104    1.398   .     A
C102   C376    1.371   1_545 S
C105   C131    1.472   .     S
C105   N112    1.383   .     A
C105   C935    1.420   1_554 S
C106   C134    1.472   .     S
C106   N111    1.383   .     A
C106   C522    1.420   .     S
C107   N111    1.360   .     A
C107   F137    1.355   .     S
C107   C519    1.420   .     S
C108   N112    1.360   .     A
C108   F138    1.355   .     S
C108   C934    1.420   1_554 S
N111   Zn121   2.026   .     S
N112   Zn122   2.026   .     S
O113   Zn121   1.997   .     S
O114   Zn122   1.997   .     S
O115   Zn122   1.987   .     S
O116   Zn121   1.987   .     S
O117   Zn121   1.983   .     S
O118   Zn122   1.983   .     S
O119   Zn122   1.977   .     S
O120   Zn121   1.977   .     S
C123   H124    1.085   .     S
C123   C5      1.502   1_655 S
C123   O33     1.221   1_655 S
C126   H127    1.084   .     S
O128   C34     1.220   1_655 S
C131   O133    1.218   .     D
C131   H132    1.086   .     S
C134   O136    1.218   .     D
C134   H135    1.086   .     S
C139   O159    1.289   .     A
C139   C150    1.414   .     S
C139   O161    1.287   .     A
C140   O160    1.289   .     A
C140   C149    1.414   .     S
C140   O162    1.287   .     A
C141   O165    1.289   .     A
C141   O163    1.277   .     A
C141   C143    1.406   .     S
C142   O164    1.277   .     A
C142   O166    1.289   .     A
C142   C144    1.406   .     S
C143   C236    1.352   1_455 S
C143   C261    1.502   1_455 S
C144   C189    1.352   .     S
C144   C218    1.502   .     S
C145   C150    1.397   .     A
C145   H155    1.084   .     S
C146   C149    1.397   .     A
C146   H156    1.084   .     S
C146   C286    1.371   .     S
C147   F175    1.359   .     S
C147   C149    1.398   .     A
C147   C283    1.371   .     S
C148   F176    1.359   .     S
C148   C150    1.398   .     A
C151   C177    1.472   .     S
C151   N158    1.383   .     A
C151   C981    1.420   1_554 S
C152   C180    1.472   .     S
C152   N157    1.383   .     A
C152   C568    1.420   .     S
C153   N157    1.360   .     A
C153   F183    1.355   .     S
C153   C565    1.420   .     S
C154   N158    1.360   .     A
C154   F184    1.355   .     S
C154   C980    1.420   1_554 S
N157   Zn167   2.026   .     S
N158   Zn168   2.026   .     S
O159   Zn167   1.997   .     S
O160   Zn168   1.997   .     S
O161   Zn168   1.987   .     S
O162   Zn167   1.987   .     S
O163   Zn167   1.983   .     S
O164   Zn168   1.983   .     S
O165   Zn168   1.977   .     S
O166   Zn167   1.977   .     S
C169   H170    1.085   .     S
C169   C189    1.502   .     S
C169   O217    1.221   .     S
O171   C261    1.221   1_455 S
C172   H173    1.084   .     S
C172   C236    1.502   1_455 S
C172   O266    1.220   1_455 S
O174   C218    1.220   .     S
C177   O179    1.218   .     D
C177   H178    1.086   .     S
C180   O182    1.218   .     D
C180   H181    1.086   .     S
C185   O205    1.289   .     A
C185   C196    1.414   .     S
C185   O207    1.287   .     A
C186   O206    1.289   .     A
C186   C195    1.414   .     S
C186   O208    1.287   .     A
C187   O211    1.289   .     A
C187   O209    1.277   .     A
C187   C189    1.406   .     S
C188   O210    1.277   .     A
C188   O212    1.289   .     A
C188   C190    1.406   .     S
C190   C235    1.352   .     S
C190   C264    1.502   .     S
C191   C196    1.397   .     A
C191   H201    1.084   .     S
C192   C195    1.397   .     A
C192   H202    1.084   .     S
C192   C332    1.371   .     S
C193   F221    1.359   .     S
C193   C195    1.398   .     A
C193   C329    1.371   .     S
C194   F222    1.359   .     S
C194   C196    1.398   .     A
C197   C223    1.472   .     S
C197   N204    1.383   .     A
C197   C1027   1.420   1_554 S
C198   C226    1.472   .     S
C198   N203    1.383   .     A
C198   C614    1.420   .     S
C199   N203    1.360   .     A
C199   F229    1.355   .     S
C199   C611    1.420   .     S
C200   N204    1.360   .     A
C200   F230    1.355   .     S
C200   C1026   1.420   1_554 S
N203   Zn213   2.026   .     S
N204   Zn214   2.026   .     S
O205   Zn213   1.997   .     S
O206   Zn214   1.997   .     S
O207   Zn214   1.987   .     S
O208   Zn213   1.987   .     S
O209   Zn213   1.983   .     S
O210   Zn214   1.983   .     S
O211   Zn214   1.977   .     S
O212   Zn213   1.977   .     S
C215   H216    1.085   .     S
C215   C235    1.502   .     S
C215   O263    1.221   .     S
C218   H219    1.084   .     S
O220   C264    1.220   .     S
C223   O225    1.218   .     D
C223   H224    1.086   .     S
C226   O228    1.218   .     D
C226   H227    1.086   .     S
C231   O251    1.289   .     A
C231   C242    1.414   .     S
C231   O253    1.287   .     A
C232   O252    1.289   .     A
C232   C241    1.414   .     S
C232   O254    1.287   .     A
C233   O257    1.289   .     A
C233   O255    1.277   .     A
C233   C235    1.406   .     S
C234   O256    1.277   .     A
C234   O258    1.289   .     A
C234   C236    1.406   .     S
C236   C143    1.352   1_655 S
C236   C172    1.502   1_655 S
C237   C242    1.397   .     A
C237   H247    1.084   .     S
C238   C241    1.397   .     A
C238   H248    1.084   .     S
C238   C378    1.371   .     S
C239   F267    1.359   .     S
C239   C241    1.398   .     A
C239   C375    1.371   .     S
C240   F268    1.359   .     S
C240   C242    1.398   .     A
C243   C269    1.472   .     S
C243   N250    1.383   .     A
C243   C1073   1.420   1_554 S
C244   C272    1.472   .     S
C244   N249    1.383   .     A
C244   C660    1.420   .     S
C245   N249    1.360   .     A
C245   F275    1.355   .     S
C245   C657    1.420   .     S
C246   N250    1.360   .     A
C246   F276    1.355   .     S
C246   C1072   1.420   1_554 S
N249   Zn259   2.026   .     S
N250   Zn260   2.026   .     S
O251   Zn259   1.997   .     S
O252   Zn260   1.997   .     S
O253   Zn260   1.987   .     S
O254   Zn259   1.987   .     S
O255   Zn259   1.983   .     S
O256   Zn260   1.983   .     S
O257   Zn260   1.977   .     S
O258   Zn259   1.977   .     S
C261   H262    1.085   .     S
C261   C143    1.502   1_655 S
C261   O171    1.221   1_655 S
C264   H265    1.084   .     S
O266   C172    1.220   1_655 S
C269   O271    1.218   .     D
C269   H270    1.086   .     S
C272   O274    1.218   .     D
C272   H273    1.086   .     S
C277   O297    1.289   .     A
C277   C288    1.414   .     S
C277   O299    1.287   .     A
C278   O298    1.289   .     A
C278   C287    1.414   .     S
C278   O300    1.287   .     A
C279   O303    1.289   .     A
C279   O301    1.277   .     A
C279   C281    1.406   .     S
C280   O302    1.277   .     A
C280   O304    1.289   .     A
C280   C282    1.406   .     S
C281   C374    1.352   1_455 S
C281   C399    1.502   1_455 S
C282   C327    1.352   .     S
C282   C356    1.502   .     S
C283   C288    1.397   .     A
C283   H293    1.084   .     S
C284   C287    1.397   .     A
C284   H294    1.084   .     S
C284   C10     1.371   1_565 S
C285   F313    1.359   .     S
C285   C287    1.398   .     A
C285   C7      1.371   1_565 S
C286   F314    1.359   .     S
C286   C288    1.398   .     A
C289   C315    1.472   .     S
C289   N296    1.383   .     A
C289   C1119   1.420   1_554 S
C290   C318    1.472   .     S
C290   N295    1.383   .     A
C290   C706    1.420   .     S
C291   N295    1.360   .     A
C291   F321    1.355   .     S
C291   C703    1.420   .     S
C292   N296    1.360   .     A
C292   F322    1.355   .     S
C292   C1118   1.420   1_554 S
N295   Zn305   2.026   .     S
N296   Zn306   2.026   .     S
O297   Zn305   1.997   .     S
O298   Zn306   1.997   .     S
O299   Zn306   1.987   .     S
O300   Zn305   1.987   .     S
O301   Zn305   1.983   .     S
O302   Zn306   1.983   .     S
O303   Zn306   1.977   .     S
O304   Zn305   1.977   .     S
C307   H308    1.085   .     S
C307   C327    1.502   .     S
C307   O355    1.221   .     S
O309   C399    1.221   1_455 S
C310   H311    1.084   .     S
C310   C374    1.502   1_455 S
C310   O404    1.220   1_455 S
O312   C356    1.220   .     S
C315   O317    1.218   .     D
C315   H316    1.086   .     S
C318   O320    1.218   .     D
C318   H319    1.086   .     S
C323   O343    1.289   .     A
C323   C334    1.414   .     S
C323   O345    1.287   .     A
C324   O344    1.289   .     A
C324   C333    1.414   .     S
C324   O346    1.287   .     A
C325   O349    1.289   .     A
C325   O347    1.277   .     A
C325   C327    1.406   .     S
C326   O348    1.277   .     A
C326   O350    1.289   .     A
C326   C328    1.406   .     S
C328   C373    1.352   .     S
C328   C402    1.502   .     S
C329   C334    1.397   .     A
C329   H339    1.084   .     S
C330   C333    1.397   .     A
C330   H340    1.084   .     S
C330   C56     1.371   1_565 S
C331   F359    1.359   .     S
C331   C333    1.398   .     A
C331   C53     1.371   1_565 S
C332   F360    1.359   .     S
C332   C334    1.398   .     A
C335   C361    1.472   .     S
C335   N342    1.383   .     A
C335   C1165   1.420   1_554 S
C336   C364    1.472   .     S
C336   N341    1.383   .     A
C336   C752    1.420   .     S
C337   N341    1.360   .     A
C337   F367    1.355   .     S
C337   C749    1.420   .     S
C338   N342    1.360   .     A
C338   F368    1.355   .     S
C338   C1164   1.420   1_554 S
N341   Zn351   2.026   .     S
N342   Zn352   2.026   .     S
O343   Zn351   1.997   .     S
O344   Zn352   1.997   .     S
O345   Zn352   1.987   .     S
O346   Zn351   1.987   .     S
O347   Zn351   1.983   .     S
O348   Zn352   1.983   .     S
O349   Zn352   1.977   .     S
O350   Zn351   1.977   .     S
C353   H354    1.085   .     S
C353   C373    1.502   .     S
C353   O401    1.221   .     S
C356   H357    1.084   .     S
O358   C402    1.220   .     S
C361   O363    1.218   .     D
C361   H362    1.086   .     S
C364   O366    1.218   .     D
C364   H365    1.086   .     S
C369   O389    1.289   .     A
C369   C380    1.414   .     S
C369   O391    1.287   .     A
C370   O390    1.289   .     A
C370   C379    1.414   .     S
C370   O392    1.287   .     A
C371   O395    1.289   .     A
C371   O393    1.277   .     A
C371   C373    1.406   .     S
C372   O394    1.277   .     A
C372   O396    1.289   .     A
C372   C374    1.406   .     S
C374   C281    1.352   1_655 S
C374   C310    1.502   1_655 S
C375   C380    1.397   .     A
C375   H385    1.084   .     S
C376   C379    1.397   .     A
C376   H386    1.084   .     S
C376   C102    1.371   1_565 S
C377   F405    1.359   .     S
C377   C379    1.398   .     A
C377   C99     1.371   1_565 S
C378   F406    1.359   .     S
C378   C380    1.398   .     A
C381   C407    1.472   .     S
C381   N388    1.383   .     A
C381   C1211   1.420   1_554 S
C382   C410    1.472   .     S
C382   N387    1.383   .     A
C382   C798    1.420   .     S
C383   N387    1.360   .     A
C383   F413    1.355   .     S
C383   C795    1.420   .     S
C384   N388    1.360   .     A
C384   F414    1.355   .     S
C384   C1210   1.420   1_554 S
N387   Zn397   2.026   .     S
N388   Zn398   2.026   .     S
O389   Zn397   1.997   .     S
O390   Zn398   1.997   .     S
O391   Zn398   1.987   .     S
O392   Zn397   1.987   .     S
O393   Zn397   1.983   .     S
O394   Zn398   1.983   .     S
O395   Zn398   1.977   .     S
O396   Zn397   1.977   .     S
C399   H400    1.085   .     S
C399   C281    1.502   1_655 S
C399   O309    1.221   1_655 S
C402   H403    1.084   .     S
O404   C310    1.220   1_655 S
C407   O409    1.218   .     D
C407   H408    1.086   .     S
C410   O412    1.218   .     D
C410   H411    1.086   .     S
C415   O435    1.289   .     A
C415   C426    1.414   .     S
C415   O437    1.287   .     A
C416   O436    1.289   .     A
C416   C425    1.414   .     S
C416   O438    1.287   .     A
C417   O441    1.289   .     A
C417   O439    1.277   .     A
C417   C419    1.406   .     S
C418   O440    1.277   .     A
C418   O442    1.289   .     A
C418   C420    1.406   .     S
C419   C512    1.352   1_455 S
C419   C537    1.502   1_455 S
C420   C465    1.352   .     S
C420   C494    1.502   .     S
C421   C426    1.397   .     A
C421   H431    1.084   .     S
C421   C699    1.371   1_545 S
C422   C425    1.397   .     A
C422   H432    1.084   .     S
C422   C562    1.371   .     S
C423   F451    1.359   .     S
C423   C425    1.398   .     A
C423   C559    1.371   .     S
C424   F452    1.359   .     S
C424   C426    1.398   .     A
C424   C698    1.371   1_545 S
C427   C453    1.472   .     S
C427   N434    1.383   .     A
C428   C456    1.472   .     S
C428   N433    1.383   .     A
C428   C844    1.420   .     S
C429   N433    1.360   .     A
C429   F459    1.355   .     S
C429   C841    1.420   .     S
C430   N434    1.360   .     A
C430   F460    1.355   .     S
N433   Zn443   2.026   .     S
N434   Zn444   2.026   .     S
O435   Zn443   1.997   .     S
O436   Zn444   1.997   .     S
O437   Zn444   1.987   .     S
O438   Zn443   1.987   .     S
O439   Zn443   1.983   .     S
O440   Zn444   1.983   .     S
O441   Zn444   1.977   .     S
O442   Zn443   1.977   .     S
C445   H446    1.085   .     S
C445   C465    1.502   .     S
C445   O493    1.221   .     S
O447   C537    1.221   1_455 S
C448   H449    1.084   .     S
C448   C512    1.502   1_455 S
C448   O542    1.220   1_455 S
O450   C494    1.220   .     S
C453   O455    1.218   .     D
C453   H454    1.086   .     S
C456   O458    1.218   .     D
C456   H457    1.086   .     S
C461   O481    1.289   .     A
C461   C472    1.414   .     S
C461   O483    1.287   .     A
C462   O482    1.289   .     A
C462   C471    1.414   .     S
C462   O484    1.287   .     A
C463   O487    1.289   .     A
C463   O485    1.277   .     A
C463   C465    1.406   .     S
C464   O486    1.277   .     A
C464   O488    1.289   .     A
C464   C466    1.406   .     S
C466   C511    1.352   .     S
C466   C540    1.502   .     S
C467   C472    1.397   .     A
C467   H477    1.084   .     S
C467   C745    1.371   1_545 S
C468   C471    1.397   .     A
C468   H478    1.084   .     S
C468   C608    1.371   .     S
C469   F497    1.359   .     S
C469   C471    1.398   .     A
C469   C605    1.371   .     S
C470   F498    1.359   .     S
C470   C472    1.398   .     A
C470   C744    1.371   1_545 S
C473   C499    1.472   .     S
C473   N480    1.383   .     A
C474   C502    1.472   .     S
C474   N479    1.383   .     A
C474   C890    1.420   .     S
C475   N479    1.360   .     A
C475   F505    1.355   .     S
C475   C887    1.420   .     S
C476   N480    1.360   .     A
C476   F506    1.355   .     S
N479   Zn489   2.026   .     S
N480   Zn490   2.026   .     S
O481   Zn489   1.997   .     S
O482   Zn490   1.997   .     S
O483   Zn490   1.987   .     S
O484   Zn489   1.987   .     S
O485   Zn489   1.983   .     S
O486   Zn490   1.983   .     S
O487   Zn490   1.977   .     S
O488   Zn489   1.977   .     S
C491   H492    1.085   .     S
C491   C511    1.502   .     S
C491   O539    1.221   .     S
C494   H495    1.084   .     S
O496   C540    1.220   .     S
C499   O501    1.218   .     D
C499   H500    1.086   .     S
C502   O504    1.218   .     D
C502   H503    1.086   .     S
C507   O527    1.289   .     A
C507   C518    1.414   .     S
C507   O529    1.287   .     A
C508   O528    1.289   .     A
C508   C517    1.414   .     S
C508   O530    1.287   .     A
C509   O533    1.289   .     A
C509   O531    1.277   .     A
C509   C511    1.406   .     S
C510   O532    1.277   .     A
C510   O534    1.289   .     A
C510   C512    1.406   .     S
C512   C419    1.352   1_655 S
C512   C448    1.502   1_655 S
C513   C518    1.397   .     A
C513   H523    1.084   .     S
C513   C791    1.371   1_545 S
C514   C517    1.397   .     A
C514   H524    1.084   .     S
C514   C654    1.371   .     S
C515   F543    1.359   .     S
C515   C517    1.398   .     A
C515   C651    1.371   .     S
C516   F544    1.359   .     S
C516   C518    1.398   .     A
C516   C790    1.371   1_545 S
C519   C545    1.472   .     S
C519   N526    1.383   .     A
C520   C548    1.472   .     S
C520   N525    1.383   .     A
C520   C936    1.420   .     S
C521   N525    1.360   .     A
C521   F551    1.355   .     S
C521   C933    1.420   .     S
C522   N526    1.360   .     A
C522   F552    1.355   .     S
N525   Zn535   2.026   .     S
N526   Zn536   2.026   .     S
O527   Zn535   1.997   .     S
O528   Zn536   1.997   .     S
O529   Zn536   1.987   .     S
O530   Zn535   1.987   .     S
O531   Zn535   1.983   .     S
O532   Zn536   1.983   .     S
O533   Zn536   1.977   .     S
O534   Zn535   1.977   .     S
C537   H538    1.085   .     S
C537   C419    1.502   1_655 S
C537   O447    1.221   1_655 S
C540   H541    1.084   .     S
O542   C448    1.220   1_655 S
C545   O547    1.218   .     D
C545   H546    1.086   .     S
C548   O550    1.218   .     D
C548   H549    1.086   .     S
C553   O573    1.289   .     A
C553   C564    1.414   .     S
C553   O575    1.287   .     A
C554   O574    1.289   .     A
C554   C563    1.414   .     S
C554   O576    1.287   .     A
C555   O579    1.289   .     A
C555   O577    1.277   .     A
C555   C557    1.406   .     S
C556   O578    1.277   .     A
C556   O580    1.289   .     A
C556   C558    1.406   .     S
C557   C650    1.352   1_455 S
C557   C675    1.502   1_455 S
C558   C603    1.352   .     S
C558   C632    1.502   .     S
C559   C564    1.397   .     A
C559   H569    1.084   .     S
C560   C563    1.397   .     A
C560   H570    1.084   .     S
C560   C700    1.371   .     S
C561   F589    1.359   .     S
C561   C563    1.398   .     A
C561   C697    1.371   .     S
C562   F590    1.359   .     S
C562   C564    1.398   .     A
C565   C591    1.472   .     S
C565   N572    1.383   .     A
C566   C594    1.472   .     S
C566   N571    1.383   .     A
C566   C982    1.420   .     S
C567   N571    1.360   .     A
C567   F597    1.355   .     S
C567   C979    1.420   .     S
C568   N572    1.360   .     A
C568   F598    1.355   .     S
N571   Zn581   2.026   .     S
N572   Zn582   2.026   .     S
O573   Zn581   1.997   .     S
O574   Zn582   1.997   .     S
O575   Zn582   1.987   .     S
O576   Zn581   1.987   .     S
O577   Zn581   1.983   .     S
O578   Zn582   1.983   .     S
O579   Zn582   1.977   .     S
O580   Zn581   1.977   .     S
C583   H584    1.085   .     S
C583   C603    1.502   .     S
C583   O631    1.221   .     S
O585   C675    1.221   1_455 S
C586   H587    1.084   .     S
C586   C650    1.502   1_455 S
C586   O680    1.220   1_455 S
O588   C632    1.220   .     S
C591   O593    1.218   .     D
C591   H592    1.086   .     S
C594   O596    1.218   .     D
C594   H595    1.086   .     S
C599   O619    1.289   .     A
C599   C610    1.414   .     S
C599   O621    1.287   .     A
C600   O620    1.289   .     A
C600   C609    1.414   .     S
C600   O622    1.287   .     A
C601   O625    1.289   .     A
C601   O623    1.277   .     A
C601   C603    1.406   .     S
C602   O624    1.277   .     A
C602   O626    1.289   .     A
C602   C604    1.406   .     S
C604   C649    1.352   .     S
C604   C678    1.502   .     S
C605   C610    1.397   .     A
C605   H615    1.084   .     S
C606   C609    1.397   .     A
C606   H616    1.084   .     S
C606   C746    1.371   .     S
C607   F635    1.359   .     S
C607   C609    1.398   .     A
C607   C743    1.371   .     S
C608   F636    1.359   .     S
C608   C610    1.398   .     A
C611   C637    1.472   .     S
C611   N618    1.383   .     A
C612   C640    1.472   .     S
C612   N617    1.383   .     A
C612   C1028   1.420   .     S
C613   N617    1.360   .     A
C613   F643    1.355   .     S
C613   C1025   1.420   .     S
C614   N618    1.360   .     A
C614   F644    1.355   .     S
N617   Zn627   2.026   .     S
N618   Zn628   2.026   .     S
O619   Zn627   1.997   .     S
O620   Zn628   1.997   .     S
O621   Zn628   1.987   .     S
O622   Zn627   1.987   .     S
O623   Zn627   1.983   .     S
O624   Zn628   1.983   .     S
O625   Zn628   1.977   .     S
O626   Zn627   1.977   .     S
C629   H630    1.085   .     S
C629   C649    1.502   .     S
C629   O677    1.221   .     S
C632   H633    1.084   .     S
O634   C678    1.220   .     S
C637   O639    1.218   .     D
C637   H638    1.086   .     S
C640   O642    1.218   .     D
C640   H641    1.086   .     S
C645   O665    1.289   .     A
C645   C656    1.414   .     S
C645   O667    1.287   .     A
C646   O666    1.289   .     A
C646   C655    1.414   .     S
C646   O668    1.287   .     A
C647   O671    1.289   .     A
C647   O669    1.277   .     A
C647   C649    1.406   .     S
C648   O670    1.277   .     A
C648   O672    1.289   .     A
C648   C650    1.406   .     S
C650   C557    1.352   1_655 S
C650   C586    1.502   1_655 S
C651   C656    1.397   .     A
C651   H661    1.084   .     S
C652   C655    1.397   .     A
C652   H662    1.084   .     S
C652   C792    1.371   .     S
C653   F681    1.359   .     S
C653   C655    1.398   .     A
C653   C789    1.371   .     S
C654   F682    1.359   .     S
C654   C656    1.398   .     A
C657   C683    1.472   .     S
C657   N664    1.383   .     A
C658   C686    1.472   .     S
C658   N663    1.383   .     A
C658   C1074   1.420   .     S
C659   N663    1.360   .     A
C659   F689    1.355   .     S
C659   C1071   1.420   .     S
C660   N664    1.360   .     A
C660   F690    1.355   .     S
N663   Zn673   2.026   .     S
N664   Zn674   2.026   .     S
O665   Zn673   1.997   .     S
O666   Zn674   1.997   .     S
O667   Zn674   1.987   .     S
O668   Zn673   1.987   .     S
O669   Zn673   1.983   .     S
O670   Zn674   1.983   .     S
O671   Zn674   1.977   .     S
O672   Zn673   1.977   .     S
C675   H676    1.085   .     S
C675   C557    1.502   1_655 S
C675   O585    1.221   1_655 S
C678   H679    1.084   .     S
O680   C586    1.220   1_655 S
C683   O685    1.218   .     D
C683   H684    1.086   .     S
C686   O688    1.218   .     D
C686   H687    1.086   .     S
C691   O711    1.289   .     A
C691   C702    1.414   .     S
C691   O713    1.287   .     A
C692   O712    1.289   .     A
C692   C701    1.414   .     S
C692   O714    1.287   .     A
C693   O717    1.289   .     A
C693   O715    1.277   .     A
C693   C695    1.406   .     S
C694   O716    1.277   .     A
C694   O718    1.289   .     A
C694   C696    1.406   .     S
C695   C788    1.352   1_455 S
C695   C813    1.502   1_455 S
C696   C741    1.352   .     S
C696   C770    1.502   .     S
C697   C702    1.397   .     A
C697   H707    1.084   .     S
C698   C701    1.397   .     A
C698   H708    1.084   .     S
C698   C424    1.371   1_565 S
C699   F727    1.359   .     S
C699   C701    1.398   .     A
C699   C421    1.371   1_565 S
C700   F728    1.359   .     S
C700   C702    1.398   .     A
C703   C729    1.472   .     S
C703   N710    1.383   .     A
C704   C732    1.472   .     S
C704   N709    1.383   .     A
C704   C1120   1.420   .     S
C705   N709    1.360   .     A
C705   F735    1.355   .     S
C705   C1117   1.420   .     S
C706   N710    1.360   .     A
C706   F736    1.355   .     S
N709   Zn719   2.026   .     S
N710   Zn720   2.026   .     S
O711   Zn719   1.997   .     S
O712   Zn720   1.997   .     S
O713   Zn720   1.987   .     S
O714   Zn719   1.987   .     S
O715   Zn719   1.983   .     S
O716   Zn720   1.983   .     S
O717   Zn720   1.977   .     S
O718   Zn719   1.977   .     S
C721   H722    1.085   .     S
C721   C741    1.502   .     S
C721   O769    1.221   .     S
O723   C813    1.221   1_455 S
C724   H725    1.084   .     S
C724   C788    1.502   1_455 S
C724   O818    1.220   1_455 S
O726   C770    1.220   .     S
C729   O731    1.218   .     D
C729   H730    1.086   .     S
C732   O734    1.218   .     D
C732   H733    1.086   .     S
C737   O757    1.289   .     A
C737   C748    1.414   .     S
C737   O759    1.287   .     A
C738   O758    1.289   .     A
C738   C747    1.414   .     S
C738   O760    1.287   .     A
C739   O763    1.289   .     A
C739   O761    1.277   .     A
C739   C741    1.406   .     S
C740   O762    1.277   .     A
C740   O764    1.289   .     A
C740   C742    1.406   .     S
C742   C787    1.352   .     S
C742   C816    1.502   .     S
C743   C748    1.397   .     A
C743   H753    1.084   .     S
C744   C747    1.397   .     A
C744   H754    1.084   .     S
C744   C470    1.371   1_565 S
C745   F773    1.359   .     S
C745   C747    1.398   .     A
C745   C467    1.371   1_565 S
C746   F774    1.359   .     S
C746   C748    1.398   .     A
C749   C775    1.472   .     S
C749   N756    1.383   .     A
C750   C778    1.472   .     S
C750   N755    1.383   .     A
C750   C1166   1.420   .     S
C751   N755    1.360   .     A
C751   F781    1.355   .     S
C751   C1163   1.420   .     S
C752   N756    1.360   .     A
C752   F782    1.355   .     S
N755   Zn765   2.026   .     S
N756   Zn766   2.026   .     S
O757   Zn765   1.997   .     S
O758   Zn766   1.997   .     S
O759   Zn766   1.987   .     S
O760   Zn765   1.987   .     S
O761   Zn765   1.983   .     S
O762   Zn766   1.983   .     S
O763   Zn766   1.977   .     S
O764   Zn765   1.977   .     S
C767   H768    1.085   .     S
C767   C787    1.502   .     S
C767   O815    1.221   .     S
C770   H771    1.084   .     S
O772   C816    1.220   .     S
C775   O777    1.218   .     D
C775   H776    1.086   .     S
C778   O780    1.218   .     D
C778   H779    1.086   .     S
C783   O803    1.289   .     A
C783   C794    1.414   .     S
C783   O805    1.287   .     A
C784   O804    1.289   .     A
C784   C793    1.414   .     S
C784   O806    1.287   .     A
C785   O809    1.289   .     A
C785   O807    1.277   .     A
C785   C787    1.406   .     S
C786   O808    1.277   .     A
C786   O810    1.289   .     A
C786   C788    1.406   .     S
C788   C695    1.352   1_655 S
C788   C724    1.502   1_655 S
C789   C794    1.397   .     A
C789   H799    1.084   .     S
C790   C793    1.397   .     A
C790   H800    1.084   .     S
C790   C516    1.371   1_565 S
C791   F819    1.359   .     S
C791   C793    1.398   .     A
C791   C513    1.371   1_565 S
C792   F820    1.359   .     S
C792   C794    1.398   .     A
C795   C821    1.472   .     S
C795   N802    1.383   .     A
C796   C824    1.472   .     S
C796   N801    1.383   .     A
C796   C1212   1.420   .     S
C797   N801    1.360   .     A
C797   F827    1.355   .     S
C797   C1209   1.420   .     S
C798   N802    1.360   .     A
C798   F828    1.355   .     S
N801   Zn811   2.026   .     S
N802   Zn812   2.026   .     S
O803   Zn811   1.997   .     S
O804   Zn812   1.997   .     S
O805   Zn812   1.987   .     S
O806   Zn811   1.987   .     S
O807   Zn811   1.983   .     S
O808   Zn812   1.983   .     S
O809   Zn812   1.977   .     S
O810   Zn811   1.977   .     S
C813   H814    1.085   .     S
C813   C695    1.502   1_655 S
C813   O723    1.221   1_655 S
C816   H817    1.084   .     S
O818   C724    1.220   1_655 S
C821   O823    1.218   .     D
C821   H822    1.086   .     S
C824   O826    1.218   .     D
C824   H825    1.086   .     S
C829   O849    1.289   .     A
C829   C840    1.414   .     S
C829   O851    1.287   .     A
C830   O850    1.289   .     A
C830   C839    1.414   .     S
C830   O852    1.287   .     A
C831   O855    1.289   .     A
C831   O853    1.277   .     A
C831   C833    1.406   .     S
C832   O854    1.277   .     A
C832   O856    1.289   .     A
C832   C834    1.406   .     S
C833   C926    1.352   1_455 S
C833   C951    1.502   1_455 S
C834   C879    1.352   .     S
C834   C908    1.502   .     S
C835   C840    1.397   .     A
C835   H845    1.084   .     S
C835   C1113   1.371   1_545 S
C836   C839    1.397   .     A
C836   H846    1.084   .     S
C836   C976    1.371   .     S
C837   F865    1.359   .     S
C837   C839    1.398   .     A
C837   C973    1.371   .     S
C838   F866    1.359   .     S
C838   C840    1.398   .     A
C838   C1112   1.371   1_545 S
C841   C867    1.472   .     S
C841   N848    1.383   .     A
C842   C870    1.472   .     S
C842   N847    1.383   .     A
C842   C16     1.420   1_556 S
C843   N847    1.360   .     A
C843   F873    1.355   .     S
C843   C13     1.420   1_556 S
C844   N848    1.360   .     A
C844   F874    1.355   .     S
N847   Zn857   2.026   .     S
N848   Zn858   2.026   .     S
O849   Zn857   1.997   .     S
O850   Zn858   1.997   .     S
O851   Zn858   1.987   .     S
O852   Zn857   1.987   .     S
O853   Zn857   1.983   .     S
O854   Zn858   1.983   .     S
O855   Zn858   1.977   .     S
O856   Zn857   1.977   .     S
C859   H860    1.085   .     S
C859   C879    1.502   .     S
C859   O907    1.221   .     S
O861   C951    1.221   1_455 S
C862   H863    1.084   .     S
C862   C926    1.502   1_455 S
C862   O956    1.220   1_455 S
O864   C908    1.220   .     S
C867   O869    1.218   .     D
C867   H868    1.086   .     S
C870   O872    1.218   .     D
C870   H871    1.086   .     S
C875   O895    1.289   .     A
C875   C886    1.414   .     S
C875   O897    1.287   .     A
C876   O896    1.289   .     A
C876   C885    1.414   .     S
C876   O898    1.287   .     A
C877   O901    1.289   .     A
C877   O899    1.277   .     A
C877   C879    1.406   .     S
C878   O900    1.277   .     A
C878   O902    1.289   .     A
C878   C880    1.406   .     S
C880   C925    1.352   .     S
C880   C954    1.502   .     S
C881   C886    1.397   .     A
C881   H891    1.084   .     S
C881   C1159   1.371   1_545 S
C882   C885    1.397   .     A
C882   H892    1.084   .     S
C882   C1022   1.371   .     S
C883   F911    1.359   .     S
C883   C885    1.398   .     A
C883   C1019   1.371   .     S
C884   F912    1.359   .     S
C884   C886    1.398   .     A
C884   C1158   1.371   1_545 S
C887   C913    1.472   .     S
C887   N894    1.383   .     A
C888   C916    1.472   .     S
C888   N893    1.383   .     A
C888   C62     1.420   1_556 S
C889   N893    1.360   .     A
C889   F919    1.355   .     S
C889   C59     1.420   1_556 S
C890   N894    1.360   .     A
C890   F920    1.355   .     S
N893   Zn903   2.026   .     S
N894   Zn904   2.026   .     S
O895   Zn903   1.997   .     S
O896   Zn904   1.997   .     S
O897   Zn904   1.987   .     S
O898   Zn903   1.987   .     S
O899   Zn903   1.983   .     S
O900   Zn904   1.983   .     S
O901   Zn904   1.977   .     S
O902   Zn903   1.977   .     S
C905   H906    1.085   .     S
C905   C925    1.502   .     S
C905   O953    1.221   .     S
C908   H909    1.084   .     S
O910   C954    1.220   .     S
C913   O915    1.218   .     D
C913   H914    1.086   .     S
C916   O918    1.218   .     D
C916   H917    1.086   .     S
C921   O941    1.289   .     A
C921   C932    1.414   .     S
C921   O943    1.287   .     A
C922   O942    1.289   .     A
C922   C931    1.414   .     S
C922   O944    1.287   .     A
C923   O947    1.289   .     A
C923   O945    1.277   .     A
C923   C925    1.406   .     S
C924   O946    1.277   .     A
C924   O948    1.289   .     A
C924   C926    1.406   .     S
C926   C833    1.352   1_655 S
C926   C862    1.502   1_655 S
C927   C932    1.397   .     A
C927   H937    1.084   .     S
C927   C1205   1.371   1_545 S
C928   C931    1.397   .     A
C928   H938    1.084   .     S
C928   C1068   1.371   .     S
C929   F957    1.359   .     S
C929   C931    1.398   .     A
C929   C1065   1.371   .     S
C930   F958    1.359   .     S
C930   C932    1.398   .     A
C930   C1204   1.371   1_545 S
C933   C959    1.472   .     S
C933   N940    1.383   .     A
C934   C962    1.472   .     S
C934   N939    1.383   .     A
C934   C108    1.420   1_556 S
C935   N939    1.360   .     A
C935   F965    1.355   .     S
C935   C105    1.420   1_556 S
C936   N940    1.360   .     A
C936   F966    1.355   .     S
N939   Zn949   2.026   .     S
N940   Zn950   2.026   .     S
O941   Zn949   1.997   .     S
O942   Zn950   1.997   .     S
O943   Zn950   1.987   .     S
O944   Zn949   1.987   .     S
O945   Zn949   1.983   .     S
O946   Zn950   1.983   .     S
O947   Zn950   1.977   .     S
O948   Zn949   1.977   .     S
C951   H952    1.085   .     S
C951   C833    1.502   1_655 S
C951   O861    1.221   1_655 S
C954   H955    1.084   .     S
O956   C862    1.220   1_655 S
C959   O961    1.218   .     D
C959   H960    1.086   .     S
C962   O964    1.218   .     D
C962   H963    1.086   .     S
C967   O987    1.289   .     A
C967   C978    1.414   .     S
C967   O989    1.287   .     A
C968   O988    1.289   .     A
C968   C977    1.414   .     S
C968   O990    1.287   .     A
C969   O993    1.289   .     A
C969   O991    1.277   .     A
C969   C971    1.406   .     S
C970   O992    1.277   .     A
C970   O994    1.289   .     A
C970   C972    1.406   .     S
C971   C1064   1.352   1_455 S
C971   C1089   1.502   1_455 S
C972   C1017   1.352   .     S
C972   C1046   1.502   .     S
C973   C978    1.397   .     A
C973   H983    1.084   .     S
C974   C977    1.397   .     A
C974   H984    1.084   .     S
C974   C1114   1.371   .     S
C975   F1003   1.359   .     S
C975   C977    1.398   .     A
C975   C1111   1.371   .     S
C976   F1004   1.359   .     S
C976   C978    1.398   .     A
C979   C1005   1.472   .     S
C979   N986    1.383   .     A
C980   C1008   1.472   .     S
C980   N985    1.383   .     A
C980   C154    1.420   1_556 S
C981   N985    1.360   .     A
C981   F1011   1.355   .     S
C981   C151    1.420   1_556 S
C982   N986    1.360   .     A
C982   F1012   1.355   .     S
N985   Zn995   2.026   .     S
N986   Zn996   2.026   .     S
O987   Zn995   1.997   .     S
O988   Zn996   1.997   .     S
O989   Zn996   1.987   .     S
O990   Zn995   1.987   .     S
O991   Zn995   1.983   .     S
O992   Zn996   1.983   .     S
O993   Zn996   1.977   .     S
O994   Zn995   1.977   .     S
C997   H998    1.085   .     S
C997   C1017   1.502   .     S
C997   O1045   1.221   .     S
O999   C1089   1.221   1_455 S
C1000  H1001   1.084   .     S
C1000  C1064   1.502   1_455 S
C1000  O1094   1.220   1_455 S
O1002  C1046   1.220   .     S
C1005  O1007   1.218   .     D
C1005  H1006   1.086   .     S
C1008  O1010   1.218   .     D
C1008  H1009   1.086   .     S
C1013  O1033   1.289   .     A
C1013  C1024   1.414   .     S
C1013  O1035   1.287   .     A
C1014  O1034   1.289   .     A
C1014  C1023   1.414   .     S
C1014  O1036   1.287   .     A
C1015  O1039   1.289   .     A
C1015  O1037   1.277   .     A
C1015  C1017   1.406   .     S
C1016  O1038   1.277   .     A
C1016  O1040   1.289   .     A
C1016  C1018   1.406   .     S
C1018  C1063   1.352   .     S
C1018  C1092   1.502   .     S
C1019  C1024   1.397   .     A
C1019  H1029   1.084   .     S
C1020  C1023   1.397   .     A
C1020  H1030   1.084   .     S
C1020  C1160   1.371   .     S
C1021  F1049   1.359   .     S
C1021  C1023   1.398   .     A
C1021  C1157   1.371   .     S
C1022  F1050   1.359   .     S
C1022  C1024   1.398   .     A
C1025  C1051   1.472   .     S
C1025  N1032   1.383   .     A
C1026  C1054   1.472   .     S
C1026  N1031   1.383   .     A
C1026  C200    1.420   1_556 S
C1027  N1031   1.360   .     A
C1027  F1057   1.355   .     S
C1027  C197    1.420   1_556 S
C1028  N1032   1.360   .     A
C1028  F1058   1.355   .     S
N1031  Zn1041  2.026   .     S
N1032  Zn1042  2.026   .     S
O1033  Zn1041  1.997   .     S
O1034  Zn1042  1.997   .     S
O1035  Zn1042  1.987   .     S
O1036  Zn1041  1.987   .     S
O1037  Zn1041  1.983   .     S
O1038  Zn1042  1.983   .     S
O1039  Zn1042  1.977   .     S
O1040  Zn1041  1.977   .     S
C1043  H1044   1.085   .     S
C1043  C1063   1.502   .     S
C1043  O1091   1.221   .     S
C1046  H1047   1.084   .     S
O1048  C1092   1.220   .     S
C1051  O1053   1.218   .     D
C1051  H1052   1.086   .     S
C1054  O1056   1.218   .     D
C1054  H1055   1.086   .     S
C1059  O1079   1.289   .     A
C1059  C1070   1.414   .     S
C1059  O1081   1.287   .     A
C1060  O1080   1.289   .     A
C1060  C1069   1.414   .     S
C1060  O1082   1.287   .     A
C1061  O1085   1.289   .     A
C1061  O1083   1.277   .     A
C1061  C1063   1.406   .     S
C1062  O1084   1.277   .     A
C1062  O1086   1.289   .     A
C1062  C1064   1.406   .     S
C1064  C971    1.352   1_655 S
C1064  C1000   1.502   1_655 S
C1065  C1070   1.397   .     A
C1065  H1075   1.084   .     S
C1066  C1069   1.397   .     A
C1066  H1076   1.084   .     S
C1066  C1206   1.371   .     S
C1067  F1095   1.359   .     S
C1067  C1069   1.398   .     A
C1067  C1203   1.371   .     S
C1068  F1096   1.359   .     S
C1068  C1070   1.398   .     A
C1071  C1097   1.472   .     S
C1071  N1078   1.383   .     A
C1072  C1100   1.472   .     S
C1072  N1077   1.383   .     A
C1072  C246    1.420   1_556 S
C1073  N1077   1.360   .     A
C1073  F1103   1.355   .     S
C1073  C243    1.420   1_556 S
C1074  N1078   1.360   .     A
C1074  F1104   1.355   .     S
N1077  Zn1087  2.026   .     S
N1078  Zn1088  2.026   .     S
O1079  Zn1087  1.997   .     S
O1080  Zn1088  1.997   .     S
O1081  Zn1088  1.987   .     S
O1082  Zn1087  1.987   .     S
O1083  Zn1087  1.983   .     S
O1084  Zn1088  1.983   .     S
O1085  Zn1088  1.977   .     S
O1086  Zn1087  1.977   .     S
C1089  H1090   1.085   .     S
C1089  C971    1.502   1_655 S
C1089  O999    1.221   1_655 S
C1092  H1093   1.084   .     S
O1094  C1000   1.220   1_655 S
C1097  O1099   1.218   .     D
C1097  H1098   1.086   .     S
C1100  O1102   1.218   .     D
C1100  H1101   1.086   .     S
C1105  O1125   1.289   .     A
C1105  C1116   1.414   .     S
C1105  O1127   1.287   .     A
C1106  O1126   1.289   .     A
C1106  C1115   1.414   .     S
C1106  O1128   1.287   .     A
C1107  O1131   1.289   .     A
C1107  O1129   1.277   .     A
C1107  C1109   1.406   .     S
C1108  O1130   1.277   .     A
C1108  O1132   1.289   .     A
C1108  C1110   1.406   .     S
C1109  C1202   1.352   1_455 S
C1109  C1227   1.502   1_455 S
C1110  C1155   1.352   .     S
C1110  C1184   1.502   .     S
C1111  C1116   1.397   .     A
C1111  H1121   1.084   .     S
C1112  C1115   1.397   .     A
C1112  H1122   1.084   .     S
C1112  C838    1.371   1_565 S
C1113  F1141   1.359   .     S
C1113  C1115   1.398   .     A
C1113  C835    1.371   1_565 S
C1114  F1142   1.359   .     S
C1114  C1116   1.398   .     A
C1117  C1143   1.472   .     S
C1117  N1124   1.383   .     A
C1118  C1146   1.472   .     S
C1118  N1123   1.383   .     A
C1118  C292    1.420   1_556 S
C1119  N1123   1.360   .     A
C1119  F1149   1.355   .     S
C1119  C289    1.420   1_556 S
C1120  N1124   1.360   .     A
C1120  F1150   1.355   .     S
N1123  Zn1133  2.026   .     S
N1124  Zn1134  2.026   .     S
O1125  Zn1133  1.997   .     S
O1126  Zn1134  1.997   .     S
O1127  Zn1134  1.987   .     S
O1128  Zn1133  1.987   .     S
O1129  Zn1133  1.983   .     S
O1130  Zn1134  1.983   .     S
O1131  Zn1134  1.977   .     S
O1132  Zn1133  1.977   .     S
C1135  H1136   1.085   .     S
C1135  C1155   1.502   .     S
C1135  O1183   1.221   .     S
O1137  C1227   1.221   1_455 S
C1138  H1139   1.084   .     S
C1138  C1202   1.502   1_455 S
C1138  O1232   1.220   1_455 S
O1140  C1184   1.220   .     S
C1143  O1145   1.218   .     D
C1143  H1144   1.086   .     S
C1146  O1148   1.218   .     D
C1146  H1147   1.086   .     S
C1151  O1171   1.289   .     A
C1151  C1162   1.414   .     S
C1151  O1173   1.287   .     A
C1152  O1172   1.289   .     A
C1152  C1161   1.414   .     S
C1152  O1174   1.287   .     A
C1153  O1177   1.289   .     A
C1153  O1175   1.277   .     A
C1153  C1155   1.406   .     S
C1154  O1176   1.277   .     A
C1154  O1178   1.289   .     A
C1154  C1156   1.406   .     S
C1156  C1201   1.352   .     S
C1156  C1230   1.502   .     S
C1157  C1162   1.397   .     A
C1157  H1167   1.084   .     S
C1158  C1161   1.397   .     A
C1158  H1168   1.084   .     S
C1158  C884    1.371   1_565 S
C1159  F1187   1.359   .     S
C1159  C1161   1.398   .     A
C1159  C881    1.371   1_565 S
C1160  F1188   1.359   .     S
C1160  C1162   1.398   .     A
C1163  C1189   1.472   .     S
C1163  N1170   1.383   .     A
C1164  C1192   1.472   .     S
C1164  N1169   1.383   .     A
C1164  C338    1.420   1_556 S
C1165  N1169   1.360   .     A
C1165  F1195   1.355   .     S
C1165  C335    1.420   1_556 S
C1166  N1170   1.360   .     A
C1166  F1196   1.355   .     S
N1169  Zn1179  2.026   .     S
N1170  Zn1180  2.026   .     S
O1171  Zn1179  1.997   .     S
O1172  Zn1180  1.997   .     S
O1173  Zn1180  1.987   .     S
O1174  Zn1179  1.987   .     S
O1175  Zn1179  1.983   .     S
O1176  Zn1180  1.983   .     S
O1177  Zn1180  1.977   .     S
O1178  Zn1179  1.977   .     S
C1181  H1182   1.085   .     S
C1181  C1201   1.502   .     S
C1181  O1229   1.221   .     S
C1184  H1185   1.084   .     S
O1186  C1230   1.220   .     S
C1189  O1191   1.218   .     D
C1189  H1190   1.086   .     S
C1192  O1194   1.218   .     D
C1192  H1193   1.086   .     S
C1197  O1217   1.289   .     A
C1197  C1208   1.414   .     S
C1197  O1219   1.287   .     A
C1198  O1218   1.289   .     A
C1198  C1207   1.414   .     S
C1198  O1220   1.287   .     A
C1199  O1223   1.289   .     A
C1199  O1221   1.277   .     A
C1199  C1201   1.406   .     S
C1200  O1222   1.277   .     A
C1200  O1224   1.289   .     A
C1200  C1202   1.406   .     S
C1202  C1109   1.352   1_655 S
C1202  C1138   1.502   1_655 S
C1203  C1208   1.397   .     A
C1203  H1213   1.084   .     S
C1204  C1207   1.397   .     A
C1204  H1214   1.084   .     S
C1204  C930    1.371   1_565 S
C1205  F1233   1.359   .     S
C1205  C1207   1.398   .     A
C1205  C927    1.371   1_565 S
C1206  F1234   1.359   .     S
C1206  C1208   1.398   .     A
C1209  C1235   1.472   .     S
C1209  N1216   1.383   .     A
C1210  C1238   1.472   .     S
C1210  N1215   1.383   .     A
C1210  C384    1.420   1_556 S
C1211  N1215   1.360   .     A
C1211  F1241   1.355   .     S
C1211  C381    1.420   1_556 S
C1212  N1216   1.360   .     A
C1212  F1242   1.355   .     S
N1215  Zn1225  2.026   .     S
N1216  Zn1226  2.026   .     S
O1217  Zn1225  1.997   .     S
O1218  Zn1226  1.997   .     S
O1219  Zn1226  1.987   .     S
O1220  Zn1225  1.987   .     S
O1221  Zn1225  1.983   .     S
O1222  Zn1226  1.983   .     S
O1223  Zn1226  1.977   .     S
O1224  Zn1225  1.977   .     S
C1227  H1228   1.085   .     S
C1227  C1109   1.502   1_655 S
C1227  O1137   1.221   1_655 S
C1230  H1231   1.084   .     S
O1232  C1138   1.220   1_655 S
C1235  O1237   1.218   .     D
C1235  H1236   1.086   .     S
C1238  O1240   1.218   .     D
C1238  H1239   1.086   .     S
