data_str_m3_o1_o18_pcu_sym.238
_audit_creation_date              2020-01-03
_audit_creation_method            'Materials Studio'
_symmetry_space_group_name_H-M    'P1'
_symmetry_Int_Tables_number       1
_symmetry_cell_setting            triclinic
loop_
_symmetry_equiv_pos_as_xyz
  x,y,z
_cell_length_a                    30.1947
_cell_length_b                    31.8379
_cell_length_c                    31.1547
_cell_angle_alpha                 93.2079
_cell_angle_beta                  68.6742
_cell_angle_gamma                 89.8243
loop_
_atom_site_label
_atom_site_type_symbol
_atom_site_fract_x
_atom_site_fract_y
_atom_site_fract_z
_atom_site_U_iso_or_equiv
_atom_site_adp_type
_atom_site_occupancy
C1     C     0.16842   0.24634   0.24521   0.00000  Uiso   1.00
C2     C     0.16436   0.08740   0.25610   0.00000  Uiso   1.00
C3     C     0.11245   0.15705   0.05028   0.00000  Uiso   1.00
C4     C     0.22216   0.13639   0.44854   0.00000  Uiso   1.00
C5     C     0.07864   0.15191   0.03005   0.00000  Uiso   1.00
C6     C     0.25411   0.12758   0.47001   0.00000  Uiso   1.00
C7     C     0.20904   0.31303   0.24439   0.00000  Uiso   1.00
C8     C     0.12183   0.02139   0.26124   0.00000  Uiso   1.00
C9     C     0.20249   0.02110   0.26153   0.00000  Uiso   1.00
C10    C     0.12801   0.31318   0.24447   0.00000  Uiso   1.00
C11    C     0.16130   0.04303   0.26386   0.00000  Uiso   1.00
C12    C     0.16995   0.29131   0.24074   0.00000  Uiso   1.00
C13    C     0.32058   0.13936   0.22093   0.00000  Uiso   1.00
C14    C     0.01244   0.19297   0.28027   0.00000  Uiso   1.00
C15    C     0.03501   0.13981   0.22032   0.00000  Uiso   1.00
C16    C     0.29833   0.19340   0.27988   0.00000  Uiso   1.00
C17    C     0.13690   0.16664   0.33751   0.00000  Uiso   1.00
C18    C     0.19650   0.16609   0.16248   0.00000  Uiso   1.00
C19    C     0.11977   0.16409   0.38749   0.00000  Uiso   1.00
C20    C     0.21441   0.16039   0.11225   0.00000  Uiso   1.00
C21    C     0.05743   0.15988   0.46221   0.00000  Uiso   1.00
C22    C     0.27116   0.12869   0.04103   0.00000  Uiso   1.00
C23    C     0.07140   0.16359   0.41475   0.00000  Uiso   1.00
C24    C     0.25749   0.13930   0.08813   0.00000  Uiso   1.00
C25    C     0.15370   0.16103   0.40788   0.00000  Uiso   1.00
C26    C     0.18446   0.16998   0.08924   0.00000  Uiso   1.00
C27    C     0.14061   0.15592   0.45476   0.00000  Uiso   1.00
C28    C     0.19546   0.15567   0.04319   0.00000  Uiso   1.00
C29    C     0.09175   0.15603   0.48256   0.00000  Uiso   1.00
C30    C     0.24093   0.13764   0.01766   0.00000  Uiso   1.00
C31    C     0.17517   0.15063   0.47471   0.00000  Uiso   1.00
C32    C     0.16107   0.15667   0.02295   0.00000  Uiso   1.00
H33    H     0.15175   0.18757   0.10808   0.00000  Uiso   1.00
H34    H     0.19074   0.16390   0.38703   0.00000  Uiso   1.00
H35    H     0.27930   0.12960   0.10637   0.00000  Uiso   1.00
H36    H     0.04462   0.16668   0.39959   0.00000  Uiso   1.00
H37    H     0.02003   0.16159   0.48300   0.00000  Uiso   1.00
H38    H     0.30417   0.11166   0.02326   0.00000  Uiso   1.00
H39    H     0.10056   0.15428   0.08716   0.00000  Uiso   1.00
H40    H     0.23341   0.12768   0.41207   0.00000  Uiso   1.00
N41    N     0.04759   0.16668   0.25001   0.00000  Uiso   1.00
N42    N     0.28574   0.16666   0.24999   0.00000  Uiso   1.00
O43    O     0.12846   0.22775   0.25001   0.00000  Uiso   1.00
O44    O     0.20488   0.10558   0.24999   0.00000  Uiso   1.00
O45    O     0.20490   0.22774   0.25000   0.00000  Uiso   1.00
O46    O     0.12843   0.10559   0.25000   0.00000  Uiso   1.00
O47    O     0.10661   0.16667   0.31612   0.00000  Uiso   1.00
O48    O     0.22672   0.16666   0.18387   0.00000  Uiso   1.00
O49    O     0.18305   0.16666   0.31612   0.00000  Uiso   1.00
O50    O     0.15028   0.16667   0.18388   0.00000  Uiso   1.00
Zn51   Zn    0.11562   0.16667   0.25000   0.00000  Uiso   1.00
Zn52   Zn    0.21771   0.16666   0.25000   0.00000  Uiso   1.00
N53    N     0.03495   0.13409   0.05595   0.00000  Uiso   1.00
H54    H     0.02180   0.14615   0.08974   0.00000  Uiso   1.00
C55    C     0.03823   0.08841   0.05292   0.00000  Uiso   1.00
H56    H     0.00308   0.07515   0.07184   0.00000  Uiso   1.00
H57    H     0.06383   0.07739   0.06830   0.00000  Uiso   1.00
H58    H     0.04983   0.07606   0.01631   0.00000  Uiso   1.00
N59    N     0.29940   0.10894   0.44325   0.00000  Uiso   1.00
H60    H     0.31334   0.11926   0.41028   0.00000  Uiso   1.00
C61    C     0.30098   0.06348   0.44271   0.00000  Uiso   1.00
H62    H     0.00472   0.05176   0.42376   0.00000  Uiso   1.00
H63    H     0.27780   0.04988   0.42502   0.00000  Uiso   1.00
H64    H     0.28916   0.05275   0.47839   0.00000  Uiso   1.00
I65    I     0.28072   0.28944   0.21113   0.00000  Uiso   1.00
I66    I     0.05072   0.04679   0.29380   0.00000  Uiso   1.00
I67    I     0.24769   0.04550   0.29596   0.00000  Uiso   1.00
I68    I     0.08038   0.28915   0.21256   0.00000  Uiso   1.00
I69    I     0.30297   0.09383   0.17762   0.00000  Uiso   1.00
I70    I     0.02845   0.23310   0.32969   0.00000  Uiso   1.00
I71    I     0.08694   0.09715   0.17253   0.00000  Uiso   1.00
I72    I     0.24675   0.23635   0.32748   0.00000  Uiso   1.00
C73    C     0.50175   0.24634   0.24521   0.00000  Uiso   1.00
C74    C     0.49770   0.08740   0.25610   0.00000  Uiso   1.00
C75    C     0.44579   0.15705   0.05028   0.00000  Uiso   1.00
C76    C     0.55549   0.13639   0.44854   0.00000  Uiso   1.00
C77    C     0.41198   0.15191   0.03005   0.00000  Uiso   1.00
C78    C     0.58744   0.12758   0.47001   0.00000  Uiso   1.00
C79    C     0.54238   0.31303   0.24439   0.00000  Uiso   1.00
C80    C     0.45516   0.02139   0.26124   0.00000  Uiso   1.00
C81    C     0.53582   0.02110   0.26153   0.00000  Uiso   1.00
C82    C     0.46135   0.31318   0.24447   0.00000  Uiso   1.00
C83    C     0.49463   0.04303   0.26386   0.00000  Uiso   1.00
C84    C     0.50328   0.29131   0.24074   0.00000  Uiso   1.00
C85    C     0.65391   0.13936   0.22093   0.00000  Uiso   1.00
C86    C     0.34578   0.19297   0.28027   0.00000  Uiso   1.00
C87    C     0.36834   0.13981   0.22032   0.00000  Uiso   1.00
C88    C     0.63167   0.19340   0.27988   0.00000  Uiso   1.00
C89    C     0.47023   0.16664   0.33751   0.00000  Uiso   1.00
C90    C     0.52983   0.16609   0.16248   0.00000  Uiso   1.00
C91    C     0.45311   0.16409   0.38749   0.00000  Uiso   1.00
C92    C     0.54774   0.16039   0.11225   0.00000  Uiso   1.00
C93    C     0.39077   0.15988   0.46221   0.00000  Uiso   1.00
C94    C     0.60449   0.12869   0.04103   0.00000  Uiso   1.00
C95    C     0.40473   0.16359   0.41475   0.00000  Uiso   1.00
C96    C     0.59083   0.13930   0.08813   0.00000  Uiso   1.00
C97    C     0.48703   0.16103   0.40788   0.00000  Uiso   1.00
C98    C     0.51779   0.16998   0.08924   0.00000  Uiso   1.00
C99    C     0.47394   0.15592   0.45476   0.00000  Uiso   1.00
C100   C     0.52880   0.15567   0.04319   0.00000  Uiso   1.00
C101   C     0.42508   0.15603   0.48256   0.00000  Uiso   1.00
C102   C     0.57426   0.13764   0.01766   0.00000  Uiso   1.00
C103   C     0.50851   0.15063   0.47471   0.00000  Uiso   1.00
C104   C     0.49440   0.15667   0.02295   0.00000  Uiso   1.00
H105   H     0.48508   0.18757   0.10808   0.00000  Uiso   1.00
H106   H     0.52407   0.16390   0.38703   0.00000  Uiso   1.00
H107   H     0.61263   0.12960   0.10637   0.00000  Uiso   1.00
H108   H     0.37795   0.16668   0.39959   0.00000  Uiso   1.00
H109   H     0.35337   0.16159   0.48300   0.00000  Uiso   1.00
H110   H     0.63750   0.11166   0.02326   0.00000  Uiso   1.00
H111   H     0.43389   0.15428   0.08716   0.00000  Uiso   1.00
H112   H     0.56674   0.12768   0.41207   0.00000  Uiso   1.00
N113   N     0.38093   0.16668   0.25001   0.00000  Uiso   1.00
N114   N     0.61907   0.16666   0.24999   0.00000  Uiso   1.00
O115   O     0.46179   0.22775   0.25001   0.00000  Uiso   1.00
O116   O     0.53821   0.10558   0.24999   0.00000  Uiso   1.00
O117   O     0.53823   0.22774   0.25000   0.00000  Uiso   1.00
O118   O     0.46177   0.10559   0.25000   0.00000  Uiso   1.00
O119   O     0.43994   0.16667   0.31612   0.00000  Uiso   1.00
O120   O     0.56006   0.16666   0.18387   0.00000  Uiso   1.00
O121   O     0.51639   0.16666   0.31612   0.00000  Uiso   1.00
O122   O     0.48361   0.16667   0.18388   0.00000  Uiso   1.00
Zn123  Zn    0.44896   0.16667   0.25000   0.00000  Uiso   1.00
Zn124  Zn    0.55104   0.16666   0.25000   0.00000  Uiso   1.00
N125   N     0.36828   0.13409   0.05595   0.00000  Uiso   1.00
H126   H     0.35513   0.14615   0.08974   0.00000  Uiso   1.00
C127   C     0.37156   0.08841   0.05292   0.00000  Uiso   1.00
H128   H     0.33642   0.07515   0.07184   0.00000  Uiso   1.00
H129   H     0.39716   0.07739   0.06830   0.00000  Uiso   1.00
H130   H     0.38316   0.07606   0.01631   0.00000  Uiso   1.00
N131   N     0.63273   0.10894   0.44325   0.00000  Uiso   1.00
H132   H     0.64667   0.11926   0.41028   0.00000  Uiso   1.00
C133   C     0.63431   0.06348   0.44271   0.00000  Uiso   1.00
H134   H     0.33805   0.05176   0.42376   0.00000  Uiso   1.00
H135   H     0.61113   0.04988   0.42502   0.00000  Uiso   1.00
H136   H     0.62250   0.05275   0.47839   0.00000  Uiso   1.00
I137   I     0.61405   0.28944   0.21113   0.00000  Uiso   1.00
I138   I     0.38405   0.04679   0.29380   0.00000  Uiso   1.00
I139   I     0.58103   0.04550   0.29596   0.00000  Uiso   1.00
I140   I     0.41372   0.28915   0.21256   0.00000  Uiso   1.00
I141   I     0.63630   0.09383   0.17762   0.00000  Uiso   1.00
I142   I     0.36178   0.23310   0.32969   0.00000  Uiso   1.00
I143   I     0.42027   0.09715   0.17253   0.00000  Uiso   1.00
I144   I     0.58008   0.23635   0.32748   0.00000  Uiso   1.00
C145   C     0.83508   0.24634   0.24521   0.00000  Uiso   1.00
C146   C     0.83103   0.08740   0.25610   0.00000  Uiso   1.00
C147   C     0.77912   0.15705   0.05028   0.00000  Uiso   1.00
C148   C     0.88883   0.13639   0.44854   0.00000  Uiso   1.00
C149   C     0.74531   0.15191   0.03005   0.00000  Uiso   1.00
C150   C     0.92078   0.12758   0.47001   0.00000  Uiso   1.00
C151   C     0.87571   0.31303   0.24439   0.00000  Uiso   1.00
C152   C     0.78850   0.02139   0.26124   0.00000  Uiso   1.00
C153   C     0.86915   0.02110   0.26153   0.00000  Uiso   1.00
C154   C     0.79468   0.31318   0.24447   0.00000  Uiso   1.00
C155   C     0.82796   0.04303   0.26386   0.00000  Uiso   1.00
C156   C     0.83662   0.29131   0.24074   0.00000  Uiso   1.00
C157   C     0.98724   0.13936   0.22093   0.00000  Uiso   1.00
C158   C     0.67911   0.19297   0.28027   0.00000  Uiso   1.00
C159   C     0.70168   0.13981   0.22032   0.00000  Uiso   1.00
C160   C     0.96500   0.19340   0.27988   0.00000  Uiso   1.00
C161   C     0.80356   0.16664   0.33751   0.00000  Uiso   1.00
C162   C     0.86316   0.16609   0.16248   0.00000  Uiso   1.00
C163   C     0.78644   0.16409   0.38749   0.00000  Uiso   1.00
C164   C     0.88107   0.16039   0.11225   0.00000  Uiso   1.00
C165   C     0.72410   0.15988   0.46221   0.00000  Uiso   1.00
C166   C     0.93783   0.12869   0.04103   0.00000  Uiso   1.00
C167   C     0.73806   0.16359   0.41475   0.00000  Uiso   1.00
C168   C     0.92416   0.13930   0.08813   0.00000  Uiso   1.00
C169   C     0.82037   0.16103   0.40788   0.00000  Uiso   1.00
C170   C     0.85112   0.16998   0.08924   0.00000  Uiso   1.00
C171   C     0.80727   0.15592   0.45476   0.00000  Uiso   1.00
C172   C     0.86213   0.15567   0.04319   0.00000  Uiso   1.00
C173   C     0.75841   0.15603   0.48256   0.00000  Uiso   1.00
C174   C     0.90760   0.13764   0.01766   0.00000  Uiso   1.00
C175   C     0.84184   0.15063   0.47471   0.00000  Uiso   1.00
C176   C     0.82773   0.15667   0.02295   0.00000  Uiso   1.00
H177   H     0.81842   0.18757   0.10808   0.00000  Uiso   1.00
H178   H     0.85740   0.16390   0.38703   0.00000  Uiso   1.00
H179   H     0.94597   0.12960   0.10637   0.00000  Uiso   1.00
H180   H     0.71129   0.16668   0.39959   0.00000  Uiso   1.00
H181   H     0.68670   0.16159   0.48300   0.00000  Uiso   1.00
H182   H     0.97083   0.11166   0.02326   0.00000  Uiso   1.00
H183   H     0.76723   0.15428   0.08716   0.00000  Uiso   1.00
H184   H     0.90008   0.12768   0.41207   0.00000  Uiso   1.00
N185   N     0.71426   0.16668   0.25001   0.00000  Uiso   1.00
N186   N     0.95241   0.16666   0.24999   0.00000  Uiso   1.00
O187   O     0.79512   0.22775   0.25001   0.00000  Uiso   1.00
O188   O     0.87154   0.10558   0.24999   0.00000  Uiso   1.00
O189   O     0.87157   0.22774   0.25000   0.00000  Uiso   1.00
O190   O     0.79510   0.10559   0.25000   0.00000  Uiso   1.00
O191   O     0.77328   0.16667   0.31612   0.00000  Uiso   1.00
O192   O     0.89339   0.16666   0.18387   0.00000  Uiso   1.00
O193   O     0.84972   0.16666   0.31612   0.00000  Uiso   1.00
O194   O     0.81695   0.16667   0.18388   0.00000  Uiso   1.00
Zn195  Zn    0.78229   0.16667   0.25000   0.00000  Uiso   1.00
Zn196  Zn    0.88438   0.16666   0.25000   0.00000  Uiso   1.00
N197   N     0.70161   0.13409   0.05595   0.00000  Uiso   1.00
H198   H     0.68846   0.14615   0.08974   0.00000  Uiso   1.00
C199   C     0.70489   0.08841   0.05292   0.00000  Uiso   1.00
H200   H     0.66975   0.07515   0.07184   0.00000  Uiso   1.00
H201   H     0.73049   0.07739   0.06830   0.00000  Uiso   1.00
H202   H     0.71650   0.07606   0.01631   0.00000  Uiso   1.00
N203   N     0.96606   0.10894   0.44325   0.00000  Uiso   1.00
H204   H     0.98001   0.11926   0.41028   0.00000  Uiso   1.00
C205   C     0.96764   0.06348   0.44271   0.00000  Uiso   1.00
H206   H     0.67138   0.05176   0.42376   0.00000  Uiso   1.00
H207   H     0.94447   0.04988   0.42502   0.00000  Uiso   1.00
H208   H     0.95583   0.05275   0.47839   0.00000  Uiso   1.00
I209   I     0.94738   0.28944   0.21113   0.00000  Uiso   1.00
I210   I     0.71738   0.04679   0.29380   0.00000  Uiso   1.00
I211   I     0.91436   0.04550   0.29596   0.00000  Uiso   1.00
I212   I     0.74705   0.28915   0.21256   0.00000  Uiso   1.00
I213   I     0.96964   0.09383   0.17762   0.00000  Uiso   1.00
I214   I     0.69511   0.23310   0.32969   0.00000  Uiso   1.00
I215   I     0.75360   0.09715   0.17253   0.00000  Uiso   1.00
I216   I     0.91341   0.23635   0.32748   0.00000  Uiso   1.00
C217   C     0.16842   0.57968   0.24521   0.00000  Uiso   1.00
C218   C     0.16436   0.42073   0.25610   0.00000  Uiso   1.00
C219   C     0.11245   0.49038   0.05028   0.00000  Uiso   1.00
C220   C     0.22216   0.46973   0.44854   0.00000  Uiso   1.00
C221   C     0.07864   0.48524   0.03005   0.00000  Uiso   1.00
C222   C     0.25411   0.46091   0.47001   0.00000  Uiso   1.00
C223   C     0.20904   0.64637   0.24439   0.00000  Uiso   1.00
C224   C     0.12183   0.35472   0.26124   0.00000  Uiso   1.00
C225   C     0.20249   0.35443   0.26153   0.00000  Uiso   1.00
C226   C     0.12801   0.64651   0.24447   0.00000  Uiso   1.00
C227   C     0.16130   0.37636   0.26386   0.00000  Uiso   1.00
C228   C     0.16995   0.62464   0.24074   0.00000  Uiso   1.00
C229   C     0.32058   0.47269   0.22093   0.00000  Uiso   1.00
C230   C     0.01244   0.52630   0.28027   0.00000  Uiso   1.00
C231   C     0.03501   0.47314   0.22032   0.00000  Uiso   1.00
C232   C     0.29833   0.52674   0.27988   0.00000  Uiso   1.00
C233   C     0.13690   0.49998   0.33751   0.00000  Uiso   1.00
C234   C     0.19650   0.49943   0.16248   0.00000  Uiso   1.00
C235   C     0.11977   0.49742   0.38749   0.00000  Uiso   1.00
C236   C     0.21441   0.49373   0.11225   0.00000  Uiso   1.00
C237   C     0.05743   0.49321   0.46221   0.00000  Uiso   1.00
C238   C     0.27116   0.46202   0.04103   0.00000  Uiso   1.00
C239   C     0.07140   0.49693   0.41475   0.00000  Uiso   1.00
C240   C     0.25749   0.47263   0.08813   0.00000  Uiso   1.00
C241   C     0.15370   0.49436   0.40788   0.00000  Uiso   1.00
C242   C     0.18446   0.50331   0.08924   0.00000  Uiso   1.00
C243   C     0.14061   0.48925   0.45476   0.00000  Uiso   1.00
C244   C     0.19546   0.48900   0.04319   0.00000  Uiso   1.00
C245   C     0.09175   0.48937   0.48256   0.00000  Uiso   1.00
C246   C     0.24093   0.47098   0.01766   0.00000  Uiso   1.00
C247   C     0.17517   0.48396   0.47471   0.00000  Uiso   1.00
C248   C     0.16107   0.49000   0.02295   0.00000  Uiso   1.00
H249   H     0.15175   0.52091   0.10808   0.00000  Uiso   1.00
H250   H     0.19074   0.49723   0.38703   0.00000  Uiso   1.00
H251   H     0.27930   0.46293   0.10637   0.00000  Uiso   1.00
H252   H     0.04462   0.50001   0.39959   0.00000  Uiso   1.00
H253   H     0.02003   0.49493   0.48300   0.00000  Uiso   1.00
H254   H     0.30417   0.44500   0.02326   0.00000  Uiso   1.00
H255   H     0.10056   0.48761   0.08716   0.00000  Uiso   1.00
H256   H     0.23341   0.46101   0.41207   0.00000  Uiso   1.00
N257   N     0.04759   0.50001   0.25001   0.00000  Uiso   1.00
N258   N     0.28574   0.49999   0.24999   0.00000  Uiso   1.00
O259   O     0.12846   0.56108   0.25001   0.00000  Uiso   1.00
O260   O     0.20488   0.43892   0.24999   0.00000  Uiso   1.00
O261   O     0.20490   0.56107   0.25000   0.00000  Uiso   1.00
O262   O     0.12843   0.43893   0.25000   0.00000  Uiso   1.00
O263   O     0.10661   0.50001   0.31612   0.00000  Uiso   1.00
O264   O     0.22672   0.49999   0.18387   0.00000  Uiso   1.00
O265   O     0.18305   0.50000   0.31612   0.00000  Uiso   1.00
O266   O     0.15028   0.50000   0.18388   0.00000  Uiso   1.00
Zn267  Zn    0.11562   0.50001   0.25000   0.00000  Uiso   1.00
Zn268  Zn    0.21771   0.49999   0.25000   0.00000  Uiso   1.00
N269   N     0.03495   0.46742   0.05595   0.00000  Uiso   1.00
H270   H     0.02180   0.47948   0.08974   0.00000  Uiso   1.00
C271   C     0.03823   0.42175   0.05292   0.00000  Uiso   1.00
H272   H     0.00308   0.40848   0.07184   0.00000  Uiso   1.00
H273   H     0.06383   0.41072   0.06830   0.00000  Uiso   1.00
H274   H     0.04983   0.40939   0.01631   0.00000  Uiso   1.00
N275   N     0.29940   0.44227   0.44325   0.00000  Uiso   1.00
H276   H     0.31334   0.45260   0.41028   0.00000  Uiso   1.00
C277   C     0.30098   0.39682   0.44271   0.00000  Uiso   1.00
H278   H     0.00472   0.38509   0.42376   0.00000  Uiso   1.00
H279   H     0.27780   0.38321   0.42502   0.00000  Uiso   1.00
H280   H     0.28916   0.38608   0.47839   0.00000  Uiso   1.00
I281   I     0.28072   0.62277   0.21113   0.00000  Uiso   1.00
I282   I     0.05072   0.38013   0.29380   0.00000  Uiso   1.00
I283   I     0.24769   0.37883   0.29596   0.00000  Uiso   1.00
I284   I     0.08038   0.62248   0.21256   0.00000  Uiso   1.00
I285   I     0.30297   0.42717   0.17762   0.00000  Uiso   1.00
I286   I     0.02845   0.56644   0.32969   0.00000  Uiso   1.00
I287   I     0.08694   0.43048   0.17253   0.00000  Uiso   1.00
I288   I     0.24675   0.56968   0.32748   0.00000  Uiso   1.00
C289   C     0.50175   0.57968   0.24521   0.00000  Uiso   1.00
C290   C     0.49770   0.42073   0.25610   0.00000  Uiso   1.00
C291   C     0.44579   0.49038   0.05028   0.00000  Uiso   1.00
C292   C     0.55549   0.46973   0.44854   0.00000  Uiso   1.00
C293   C     0.41198   0.48524   0.03005   0.00000  Uiso   1.00
C294   C     0.58744   0.46091   0.47001   0.00000  Uiso   1.00
C295   C     0.54238   0.64637   0.24439   0.00000  Uiso   1.00
C296   C     0.45516   0.35472   0.26124   0.00000  Uiso   1.00
C297   C     0.53582   0.35443   0.26153   0.00000  Uiso   1.00
C298   C     0.46135   0.64651   0.24447   0.00000  Uiso   1.00
C299   C     0.49463   0.37636   0.26386   0.00000  Uiso   1.00
C300   C     0.50328   0.62464   0.24074   0.00000  Uiso   1.00
C301   C     0.65391   0.47269   0.22093   0.00000  Uiso   1.00
C302   C     0.34578   0.52630   0.28027   0.00000  Uiso   1.00
C303   C     0.36834   0.47314   0.22032   0.00000  Uiso   1.00
C304   C     0.63167   0.52674   0.27988   0.00000  Uiso   1.00
C305   C     0.47023   0.49998   0.33751   0.00000  Uiso   1.00
C306   C     0.52983   0.49943   0.16248   0.00000  Uiso   1.00
C307   C     0.45311   0.49742   0.38749   0.00000  Uiso   1.00
C308   C     0.54774   0.49373   0.11225   0.00000  Uiso   1.00
C309   C     0.39077   0.49321   0.46221   0.00000  Uiso   1.00
C310   C     0.60449   0.46202   0.04103   0.00000  Uiso   1.00
C311   C     0.40473   0.49693   0.41475   0.00000  Uiso   1.00
C312   C     0.59083   0.47263   0.08813   0.00000  Uiso   1.00
C313   C     0.48703   0.49436   0.40788   0.00000  Uiso   1.00
C314   C     0.51779   0.50331   0.08924   0.00000  Uiso   1.00
C315   C     0.47394   0.48925   0.45476   0.00000  Uiso   1.00
C316   C     0.52880   0.48900   0.04319   0.00000  Uiso   1.00
C317   C     0.42508   0.48937   0.48256   0.00000  Uiso   1.00
C318   C     0.57426   0.47098   0.01766   0.00000  Uiso   1.00
C319   C     0.50851   0.48396   0.47471   0.00000  Uiso   1.00
C320   C     0.49440   0.49000   0.02295   0.00000  Uiso   1.00
H321   H     0.48508   0.52091   0.10808   0.00000  Uiso   1.00
H322   H     0.52407   0.49723   0.38703   0.00000  Uiso   1.00
H323   H     0.61263   0.46293   0.10637   0.00000  Uiso   1.00
H324   H     0.37795   0.50001   0.39959   0.00000  Uiso   1.00
H325   H     0.35337   0.49493   0.48300   0.00000  Uiso   1.00
H326   H     0.63750   0.44500   0.02326   0.00000  Uiso   1.00
H327   H     0.43389   0.48761   0.08716   0.00000  Uiso   1.00
H328   H     0.56674   0.46101   0.41207   0.00000  Uiso   1.00
N329   N     0.38093   0.50001   0.25001   0.00000  Uiso   1.00
N330   N     0.61907   0.49999   0.24999   0.00000  Uiso   1.00
O331   O     0.46179   0.56108   0.25001   0.00000  Uiso   1.00
O332   O     0.53821   0.43892   0.24999   0.00000  Uiso   1.00
O333   O     0.53823   0.56107   0.25000   0.00000  Uiso   1.00
O334   O     0.46177   0.43893   0.25000   0.00000  Uiso   1.00
O335   O     0.43994   0.50001   0.31612   0.00000  Uiso   1.00
O336   O     0.56006   0.49999   0.18387   0.00000  Uiso   1.00
O337   O     0.51639   0.50000   0.31612   0.00000  Uiso   1.00
O338   O     0.48361   0.50000   0.18388   0.00000  Uiso   1.00
Zn339  Zn    0.44896   0.50001   0.25000   0.00000  Uiso   1.00
Zn340  Zn    0.55104   0.49999   0.25000   0.00000  Uiso   1.00
N341   N     0.36828   0.46742   0.05595   0.00000  Uiso   1.00
H342   H     0.35513   0.47948   0.08974   0.00000  Uiso   1.00
C343   C     0.37156   0.42175   0.05292   0.00000  Uiso   1.00
H344   H     0.33642   0.40848   0.07184   0.00000  Uiso   1.00
H345   H     0.39716   0.41072   0.06830   0.00000  Uiso   1.00
H346   H     0.38316   0.40939   0.01631   0.00000  Uiso   1.00
N347   N     0.63273   0.44227   0.44325   0.00000  Uiso   1.00
H348   H     0.64667   0.45260   0.41028   0.00000  Uiso   1.00
C349   C     0.63431   0.39682   0.44271   0.00000  Uiso   1.00
H350   H     0.33805   0.38509   0.42376   0.00000  Uiso   1.00
H351   H     0.61113   0.38321   0.42502   0.00000  Uiso   1.00
H352   H     0.62250   0.38608   0.47839   0.00000  Uiso   1.00
I353   I     0.61405   0.62277   0.21113   0.00000  Uiso   1.00
I354   I     0.38405   0.38013   0.29380   0.00000  Uiso   1.00
I355   I     0.58103   0.37883   0.29596   0.00000  Uiso   1.00
I356   I     0.41372   0.62248   0.21256   0.00000  Uiso   1.00
I357   I     0.63630   0.42717   0.17762   0.00000  Uiso   1.00
I358   I     0.36178   0.56644   0.32969   0.00000  Uiso   1.00
I359   I     0.42027   0.43048   0.17253   0.00000  Uiso   1.00
I360   I     0.58008   0.56968   0.32748   0.00000  Uiso   1.00
C361   C     0.83508   0.57968   0.24521   0.00000  Uiso   1.00
C362   C     0.83103   0.42073   0.25610   0.00000  Uiso   1.00
C363   C     0.77912   0.49038   0.05028   0.00000  Uiso   1.00
C364   C     0.88883   0.46973   0.44854   0.00000  Uiso   1.00
C365   C     0.74531   0.48524   0.03005   0.00000  Uiso   1.00
C366   C     0.92078   0.46091   0.47001   0.00000  Uiso   1.00
C367   C     0.87571   0.64637   0.24439   0.00000  Uiso   1.00
C368   C     0.78850   0.35472   0.26124   0.00000  Uiso   1.00
C369   C     0.86915   0.35443   0.26153   0.00000  Uiso   1.00
C370   C     0.79468   0.64651   0.24447   0.00000  Uiso   1.00
C371   C     0.82796   0.37636   0.26386   0.00000  Uiso   1.00
C372   C     0.83662   0.62464   0.24074   0.00000  Uiso   1.00
C373   C     0.98724   0.47269   0.22093   0.00000  Uiso   1.00
C374   C     0.67911   0.52630   0.28027   0.00000  Uiso   1.00
C375   C     0.70168   0.47314   0.22032   0.00000  Uiso   1.00
C376   C     0.96500   0.52674   0.27988   0.00000  Uiso   1.00
C377   C     0.80356   0.49998   0.33751   0.00000  Uiso   1.00
C378   C     0.86316   0.49943   0.16248   0.00000  Uiso   1.00
C379   C     0.78644   0.49742   0.38749   0.00000  Uiso   1.00
C380   C     0.88107   0.49373   0.11225   0.00000  Uiso   1.00
C381   C     0.72410   0.49321   0.46221   0.00000  Uiso   1.00
C382   C     0.93783   0.46202   0.04103   0.00000  Uiso   1.00
C383   C     0.73806   0.49693   0.41475   0.00000  Uiso   1.00
C384   C     0.92416   0.47263   0.08813   0.00000  Uiso   1.00
C385   C     0.82037   0.49436   0.40788   0.00000  Uiso   1.00
C386   C     0.85112   0.50331   0.08924   0.00000  Uiso   1.00
C387   C     0.80727   0.48925   0.45476   0.00000  Uiso   1.00
C388   C     0.86213   0.48900   0.04319   0.00000  Uiso   1.00
C389   C     0.75841   0.48937   0.48256   0.00000  Uiso   1.00
C390   C     0.90760   0.47098   0.01766   0.00000  Uiso   1.00
C391   C     0.84184   0.48396   0.47471   0.00000  Uiso   1.00
C392   C     0.82773   0.49000   0.02295   0.00000  Uiso   1.00
H393   H     0.81842   0.52091   0.10808   0.00000  Uiso   1.00
H394   H     0.85740   0.49723   0.38703   0.00000  Uiso   1.00
H395   H     0.94597   0.46293   0.10637   0.00000  Uiso   1.00
H396   H     0.71129   0.50001   0.39959   0.00000  Uiso   1.00
H397   H     0.68670   0.49493   0.48300   0.00000  Uiso   1.00
H398   H     0.97083   0.44500   0.02326   0.00000  Uiso   1.00
H399   H     0.76723   0.48761   0.08716   0.00000  Uiso   1.00
H400   H     0.90008   0.46101   0.41207   0.00000  Uiso   1.00
N401   N     0.71426   0.50001   0.25001   0.00000  Uiso   1.00
N402   N     0.95241   0.49999   0.24999   0.00000  Uiso   1.00
O403   O     0.79512   0.56108   0.25001   0.00000  Uiso   1.00
O404   O     0.87154   0.43892   0.24999   0.00000  Uiso   1.00
O405   O     0.87157   0.56107   0.25000   0.00000  Uiso   1.00
O406   O     0.79510   0.43893   0.25000   0.00000  Uiso   1.00
O407   O     0.77328   0.50001   0.31612   0.00000  Uiso   1.00
O408   O     0.89339   0.49999   0.18387   0.00000  Uiso   1.00
O409   O     0.84972   0.50000   0.31612   0.00000  Uiso   1.00
O410   O     0.81695   0.50000   0.18388   0.00000  Uiso   1.00
Zn411  Zn    0.78229   0.50001   0.25000   0.00000  Uiso   1.00
Zn412  Zn    0.88438   0.49999   0.25000   0.00000  Uiso   1.00
N413   N     0.70161   0.46742   0.05595   0.00000  Uiso   1.00
H414   H     0.68846   0.47948   0.08974   0.00000  Uiso   1.00
C415   C     0.70489   0.42175   0.05292   0.00000  Uiso   1.00
H416   H     0.66975   0.40848   0.07184   0.00000  Uiso   1.00
H417   H     0.73049   0.41072   0.06830   0.00000  Uiso   1.00
H418   H     0.71650   0.40939   0.01631   0.00000  Uiso   1.00
N419   N     0.96606   0.44227   0.44325   0.00000  Uiso   1.00
H420   H     0.98001   0.45260   0.41028   0.00000  Uiso   1.00
C421   C     0.96764   0.39682   0.44271   0.00000  Uiso   1.00
H422   H     0.67138   0.38509   0.42376   0.00000  Uiso   1.00
H423   H     0.94447   0.38321   0.42502   0.00000  Uiso   1.00
H424   H     0.95583   0.38608   0.47839   0.00000  Uiso   1.00
I425   I     0.94738   0.62277   0.21113   0.00000  Uiso   1.00
I426   I     0.71738   0.38013   0.29380   0.00000  Uiso   1.00
I427   I     0.91436   0.37883   0.29596   0.00000  Uiso   1.00
I428   I     0.74705   0.62248   0.21256   0.00000  Uiso   1.00
I429   I     0.96964   0.42717   0.17762   0.00000  Uiso   1.00
I430   I     0.69511   0.56644   0.32969   0.00000  Uiso   1.00
I431   I     0.75360   0.43048   0.17253   0.00000  Uiso   1.00
I432   I     0.91341   0.56968   0.32748   0.00000  Uiso   1.00
C433   C     0.16842   0.91301   0.24521   0.00000  Uiso   1.00
C434   C     0.16436   0.75406   0.25610   0.00000  Uiso   1.00
C435   C     0.11245   0.82372   0.05028   0.00000  Uiso   1.00
C436   C     0.22216   0.80306   0.44854   0.00000  Uiso   1.00
C437   C     0.07864   0.81858   0.03005   0.00000  Uiso   1.00
C438   C     0.25411   0.79424   0.47001   0.00000  Uiso   1.00
C439   C     0.20904   0.97970   0.24439   0.00000  Uiso   1.00
C440   C     0.12183   0.68806   0.26124   0.00000  Uiso   1.00
C441   C     0.20249   0.68777   0.26153   0.00000  Uiso   1.00
C442   C     0.12801   0.97984   0.24447   0.00000  Uiso   1.00
C443   C     0.16130   0.70970   0.26386   0.00000  Uiso   1.00
C444   C     0.16995   0.95797   0.24074   0.00000  Uiso   1.00
C445   C     0.32058   0.80603   0.22093   0.00000  Uiso   1.00
C446   C     0.01244   0.85963   0.28027   0.00000  Uiso   1.00
C447   C     0.03501   0.80647   0.22032   0.00000  Uiso   1.00
C448   C     0.29833   0.86007   0.27988   0.00000  Uiso   1.00
C449   C     0.13690   0.83331   0.33751   0.00000  Uiso   1.00
C450   C     0.19650   0.83276   0.16248   0.00000  Uiso   1.00
C451   C     0.11977   0.83076   0.38749   0.00000  Uiso   1.00
C452   C     0.21441   0.82706   0.11225   0.00000  Uiso   1.00
C453   C     0.05743   0.82655   0.46221   0.00000  Uiso   1.00
C454   C     0.27116   0.79535   0.04103   0.00000  Uiso   1.00
C455   C     0.07140   0.83026   0.41475   0.00000  Uiso   1.00
C456   C     0.25749   0.80596   0.08813   0.00000  Uiso   1.00
C457   C     0.15370   0.82770   0.40788   0.00000  Uiso   1.00
C458   C     0.18446   0.83665   0.08924   0.00000  Uiso   1.00
C459   C     0.14061   0.82258   0.45476   0.00000  Uiso   1.00
C460   C     0.19546   0.82233   0.04319   0.00000  Uiso   1.00
C461   C     0.09175   0.82270   0.48256   0.00000  Uiso   1.00
C462   C     0.24093   0.80431   0.01766   0.00000  Uiso   1.00
C463   C     0.17517   0.81729   0.47471   0.00000  Uiso   1.00
C464   C     0.16107   0.82334   0.02295   0.00000  Uiso   1.00
H465   H     0.15175   0.85424   0.10808   0.00000  Uiso   1.00
H466   H     0.19074   0.83057   0.38703   0.00000  Uiso   1.00
H467   H     0.27930   0.79626   0.10637   0.00000  Uiso   1.00
H468   H     0.04462   0.83335   0.39959   0.00000  Uiso   1.00
H469   H     0.02003   0.82826   0.48300   0.00000  Uiso   1.00
H470   H     0.30417   0.77833   0.02326   0.00000  Uiso   1.00
H471   H     0.10056   0.82095   0.08716   0.00000  Uiso   1.00
H472   H     0.23341   0.79434   0.41207   0.00000  Uiso   1.00
N473   N     0.04759   0.83334   0.25001   0.00000  Uiso   1.00
N474   N     0.28574   0.83332   0.24999   0.00000  Uiso   1.00
O475   O     0.12846   0.89442   0.25001   0.00000  Uiso   1.00
O476   O     0.20488   0.77225   0.24999   0.00000  Uiso   1.00
O477   O     0.20490   0.89441   0.25000   0.00000  Uiso   1.00
O478   O     0.12843   0.77226   0.25000   0.00000  Uiso   1.00
O479   O     0.10661   0.83334   0.31612   0.00000  Uiso   1.00
O480   O     0.22672   0.83333   0.18387   0.00000  Uiso   1.00
O481   O     0.18305   0.83333   0.31612   0.00000  Uiso   1.00
O482   O     0.15028   0.83334   0.18388   0.00000  Uiso   1.00
Zn483  Zn    0.11562   0.83334   0.25000   0.00000  Uiso   1.00
Zn484  Zn    0.21771   0.83333   0.25000   0.00000  Uiso   1.00
N485   N     0.03495   0.80076   0.05595   0.00000  Uiso   1.00
H486   H     0.02180   0.81281   0.08974   0.00000  Uiso   1.00
C487   C     0.03823   0.75508   0.05292   0.00000  Uiso   1.00
H488   H     0.00308   0.74182   0.07184   0.00000  Uiso   1.00
H489   H     0.06383   0.74406   0.06830   0.00000  Uiso   1.00
H490   H     0.04983   0.74272   0.01631   0.00000  Uiso   1.00
N491   N     0.29940   0.77560   0.44325   0.00000  Uiso   1.00
H492   H     0.31334   0.78593   0.41028   0.00000  Uiso   1.00
C493   C     0.30098   0.73015   0.44271   0.00000  Uiso   1.00
H494   H     0.00472   0.71843   0.42376   0.00000  Uiso   1.00
H495   H     0.27780   0.71655   0.42502   0.00000  Uiso   1.00
H496   H     0.28916   0.71942   0.47839   0.00000  Uiso   1.00
I497   I     0.28072   0.95610   0.21113   0.00000  Uiso   1.00
I498   I     0.05072   0.71346   0.29380   0.00000  Uiso   1.00
I499   I     0.24769   0.71216   0.29596   0.00000  Uiso   1.00
I500   I     0.08038   0.95582   0.21256   0.00000  Uiso   1.00
I501   I     0.30297   0.76050   0.17762   0.00000  Uiso   1.00
I502   I     0.02845   0.89977   0.32969   0.00000  Uiso   1.00
I503   I     0.08694   0.76381   0.17253   0.00000  Uiso   1.00
I504   I     0.24675   0.90301   0.32748   0.00000  Uiso   1.00
C505   C     0.50175   0.91301   0.24521   0.00000  Uiso   1.00
C506   C     0.49770   0.75406   0.25610   0.00000  Uiso   1.00
C507   C     0.44579   0.82372   0.05028   0.00000  Uiso   1.00
C508   C     0.55549   0.80306   0.44854   0.00000  Uiso   1.00
C509   C     0.41198   0.81858   0.03005   0.00000  Uiso   1.00
C510   C     0.58744   0.79424   0.47001   0.00000  Uiso   1.00
C511   C     0.54238   0.97970   0.24439   0.00000  Uiso   1.00
C512   C     0.45516   0.68806   0.26124   0.00000  Uiso   1.00
C513   C     0.53582   0.68777   0.26153   0.00000  Uiso   1.00
C514   C     0.46135   0.97984   0.24447   0.00000  Uiso   1.00
C515   C     0.49463   0.70970   0.26386   0.00000  Uiso   1.00
C516   C     0.50328   0.95797   0.24074   0.00000  Uiso   1.00
C517   C     0.65391   0.80603   0.22093   0.00000  Uiso   1.00
C518   C     0.34578   0.85963   0.28027   0.00000  Uiso   1.00
C519   C     0.36834   0.80647   0.22032   0.00000  Uiso   1.00
C520   C     0.63167   0.86007   0.27988   0.00000  Uiso   1.00
C521   C     0.47023   0.83331   0.33751   0.00000  Uiso   1.00
C522   C     0.52983   0.83276   0.16248   0.00000  Uiso   1.00
C523   C     0.45311   0.83076   0.38749   0.00000  Uiso   1.00
C524   C     0.54774   0.82706   0.11225   0.00000  Uiso   1.00
C525   C     0.39077   0.82655   0.46221   0.00000  Uiso   1.00
C526   C     0.60449   0.79535   0.04103   0.00000  Uiso   1.00
C527   C     0.40473   0.83026   0.41475   0.00000  Uiso   1.00
C528   C     0.59083   0.80596   0.08813   0.00000  Uiso   1.00
C529   C     0.48703   0.82770   0.40788   0.00000  Uiso   1.00
C530   C     0.51779   0.83665   0.08924   0.00000  Uiso   1.00
C531   C     0.47394   0.82258   0.45476   0.00000  Uiso   1.00
C532   C     0.52880   0.82233   0.04319   0.00000  Uiso   1.00
C533   C     0.42508   0.82270   0.48256   0.00000  Uiso   1.00
C534   C     0.57426   0.80431   0.01766   0.00000  Uiso   1.00
C535   C     0.50851   0.81729   0.47471   0.00000  Uiso   1.00
C536   C     0.49440   0.82334   0.02295   0.00000  Uiso   1.00
H537   H     0.48508   0.85424   0.10808   0.00000  Uiso   1.00
H538   H     0.52407   0.83057   0.38703   0.00000  Uiso   1.00
H539   H     0.61263   0.79626   0.10637   0.00000  Uiso   1.00
H540   H     0.37795   0.83335   0.39959   0.00000  Uiso   1.00
H541   H     0.35337   0.82826   0.48300   0.00000  Uiso   1.00
H542   H     0.63750   0.77833   0.02326   0.00000  Uiso   1.00
H543   H     0.43389   0.82095   0.08716   0.00000  Uiso   1.00
H544   H     0.56674   0.79434   0.41207   0.00000  Uiso   1.00
N545   N     0.38093   0.83334   0.25001   0.00000  Uiso   1.00
N546   N     0.61907   0.83332   0.24999   0.00000  Uiso   1.00
O547   O     0.46179   0.89442   0.25001   0.00000  Uiso   1.00
O548   O     0.53821   0.77225   0.24999   0.00000  Uiso   1.00
O549   O     0.53823   0.89441   0.25000   0.00000  Uiso   1.00
O550   O     0.46177   0.77226   0.25000   0.00000  Uiso   1.00
O551   O     0.43994   0.83334   0.31612   0.00000  Uiso   1.00
O552   O     0.56006   0.83333   0.18387   0.00000  Uiso   1.00
O553   O     0.51639   0.83333   0.31612   0.00000  Uiso   1.00
O554   O     0.48361   0.83334   0.18388   0.00000  Uiso   1.00
Zn555  Zn    0.44896   0.83334   0.25000   0.00000  Uiso   1.00
Zn556  Zn    0.55104   0.83333   0.25000   0.00000  Uiso   1.00
N557   N     0.36828   0.80076   0.05595   0.00000  Uiso   1.00
H558   H     0.35513   0.81281   0.08974   0.00000  Uiso   1.00
C559   C     0.37156   0.75508   0.05292   0.00000  Uiso   1.00
H560   H     0.33642   0.74182   0.07184   0.00000  Uiso   1.00
H561   H     0.39716   0.74406   0.06830   0.00000  Uiso   1.00
H562   H     0.38316   0.74272   0.01631   0.00000  Uiso   1.00
N563   N     0.63273   0.77560   0.44325   0.00000  Uiso   1.00
H564   H     0.64667   0.78593   0.41028   0.00000  Uiso   1.00
C565   C     0.63431   0.73015   0.44271   0.00000  Uiso   1.00
H566   H     0.33805   0.71843   0.42376   0.00000  Uiso   1.00
H567   H     0.61113   0.71655   0.42502   0.00000  Uiso   1.00
H568   H     0.62250   0.71942   0.47839   0.00000  Uiso   1.00
I569   I     0.61405   0.95610   0.21113   0.00000  Uiso   1.00
I570   I     0.38405   0.71346   0.29380   0.00000  Uiso   1.00
I571   I     0.58103   0.71216   0.29596   0.00000  Uiso   1.00
I572   I     0.41372   0.95582   0.21256   0.00000  Uiso   1.00
I573   I     0.63630   0.76050   0.17762   0.00000  Uiso   1.00
I574   I     0.36178   0.89977   0.32969   0.00000  Uiso   1.00
I575   I     0.42027   0.76381   0.17253   0.00000  Uiso   1.00
I576   I     0.58008   0.90301   0.32748   0.00000  Uiso   1.00
C577   C     0.83508   0.91301   0.24521   0.00000  Uiso   1.00
C578   C     0.83103   0.75406   0.25610   0.00000  Uiso   1.00
C579   C     0.77912   0.82372   0.05028   0.00000  Uiso   1.00
C580   C     0.88883   0.80306   0.44854   0.00000  Uiso   1.00
C581   C     0.74531   0.81858   0.03005   0.00000  Uiso   1.00
C582   C     0.92078   0.79424   0.47001   0.00000  Uiso   1.00
C583   C     0.87571   0.97970   0.24439   0.00000  Uiso   1.00
C584   C     0.78850   0.68806   0.26124   0.00000  Uiso   1.00
C585   C     0.86915   0.68777   0.26153   0.00000  Uiso   1.00
C586   C     0.79468   0.97984   0.24447   0.00000  Uiso   1.00
C587   C     0.82796   0.70970   0.26386   0.00000  Uiso   1.00
C588   C     0.83662   0.95797   0.24074   0.00000  Uiso   1.00
C589   C     0.98724   0.80603   0.22093   0.00000  Uiso   1.00
C590   C     0.67911   0.85963   0.28027   0.00000  Uiso   1.00
C591   C     0.70168   0.80647   0.22032   0.00000  Uiso   1.00
C592   C     0.96500   0.86007   0.27988   0.00000  Uiso   1.00
C593   C     0.80356   0.83331   0.33751   0.00000  Uiso   1.00
C594   C     0.86316   0.83276   0.16248   0.00000  Uiso   1.00
C595   C     0.78644   0.83076   0.38749   0.00000  Uiso   1.00
C596   C     0.88107   0.82706   0.11225   0.00000  Uiso   1.00
C597   C     0.72410   0.82655   0.46221   0.00000  Uiso   1.00
C598   C     0.93783   0.79535   0.04103   0.00000  Uiso   1.00
C599   C     0.73806   0.83026   0.41475   0.00000  Uiso   1.00
C600   C     0.92416   0.80596   0.08813   0.00000  Uiso   1.00
C601   C     0.82037   0.82770   0.40788   0.00000  Uiso   1.00
C602   C     0.85112   0.83665   0.08924   0.00000  Uiso   1.00
C603   C     0.80727   0.82258   0.45476   0.00000  Uiso   1.00
C604   C     0.86213   0.82233   0.04319   0.00000  Uiso   1.00
C605   C     0.75841   0.82270   0.48256   0.00000  Uiso   1.00
C606   C     0.90760   0.80431   0.01766   0.00000  Uiso   1.00
C607   C     0.84184   0.81729   0.47471   0.00000  Uiso   1.00
C608   C     0.82773   0.82334   0.02295   0.00000  Uiso   1.00
H609   H     0.81842   0.85424   0.10808   0.00000  Uiso   1.00
H610   H     0.85740   0.83057   0.38703   0.00000  Uiso   1.00
H611   H     0.94597   0.79626   0.10637   0.00000  Uiso   1.00
H612   H     0.71129   0.83335   0.39959   0.00000  Uiso   1.00
H613   H     0.68670   0.82826   0.48300   0.00000  Uiso   1.00
H614   H     0.97083   0.77833   0.02326   0.00000  Uiso   1.00
H615   H     0.76723   0.82095   0.08716   0.00000  Uiso   1.00
H616   H     0.90008   0.79434   0.41207   0.00000  Uiso   1.00
N617   N     0.71426   0.83334   0.25001   0.00000  Uiso   1.00
N618   N     0.95241   0.83332   0.24999   0.00000  Uiso   1.00
O619   O     0.79512   0.89442   0.25001   0.00000  Uiso   1.00
O620   O     0.87154   0.77225   0.24999   0.00000  Uiso   1.00
O621   O     0.87157   0.89441   0.25000   0.00000  Uiso   1.00
O622   O     0.79510   0.77226   0.25000   0.00000  Uiso   1.00
O623   O     0.77328   0.83334   0.31612   0.00000  Uiso   1.00
O624   O     0.89339   0.83333   0.18387   0.00000  Uiso   1.00
O625   O     0.84972   0.83333   0.31612   0.00000  Uiso   1.00
O626   O     0.81695   0.83334   0.18388   0.00000  Uiso   1.00
Zn627  Zn    0.78229   0.83334   0.25000   0.00000  Uiso   1.00
Zn628  Zn    0.88438   0.83333   0.25000   0.00000  Uiso   1.00
N629   N     0.70161   0.80076   0.05595   0.00000  Uiso   1.00
H630   H     0.68846   0.81281   0.08974   0.00000  Uiso   1.00
C631   C     0.70489   0.75508   0.05292   0.00000  Uiso   1.00
H632   H     0.66975   0.74182   0.07184   0.00000  Uiso   1.00
H633   H     0.73049   0.74406   0.06830   0.00000  Uiso   1.00
H634   H     0.71650   0.74272   0.01631   0.00000  Uiso   1.00
N635   N     0.96606   0.77560   0.44325   0.00000  Uiso   1.00
H636   H     0.98001   0.78593   0.41028   0.00000  Uiso   1.00
C637   C     0.96764   0.73015   0.44271   0.00000  Uiso   1.00
H638   H     0.67138   0.71843   0.42376   0.00000  Uiso   1.00
H639   H     0.94447   0.71655   0.42502   0.00000  Uiso   1.00
H640   H     0.95583   0.71942   0.47839   0.00000  Uiso   1.00
I641   I     0.94738   0.95610   0.21113   0.00000  Uiso   1.00
I642   I     0.71738   0.71346   0.29380   0.00000  Uiso   1.00
I643   I     0.91436   0.71216   0.29596   0.00000  Uiso   1.00
I644   I     0.74705   0.95582   0.21256   0.00000  Uiso   1.00
I645   I     0.96964   0.76050   0.17762   0.00000  Uiso   1.00
I646   I     0.69511   0.89977   0.32969   0.00000  Uiso   1.00
I647   I     0.75360   0.76381   0.17253   0.00000  Uiso   1.00
I648   I     0.91341   0.90301   0.32748   0.00000  Uiso   1.00
C649   C     0.16842   0.24634   0.74521   0.00000  Uiso   1.00
C650   C     0.16436   0.08740   0.75610   0.00000  Uiso   1.00
C651   C     0.11245   0.15705   0.55028   0.00000  Uiso   1.00
C652   C     0.22216   0.13639   0.94854   0.00000  Uiso   1.00
C653   C     0.07864   0.15191   0.53005   0.00000  Uiso   1.00
C654   C     0.25411   0.12758   0.97001   0.00000  Uiso   1.00
C655   C     0.20904   0.31303   0.74439   0.00000  Uiso   1.00
C656   C     0.12183   0.02139   0.76124   0.00000  Uiso   1.00
C657   C     0.20249   0.02110   0.76153   0.00000  Uiso   1.00
C658   C     0.12801   0.31318   0.74447   0.00000  Uiso   1.00
C659   C     0.16130   0.04303   0.76386   0.00000  Uiso   1.00
C660   C     0.16995   0.29131   0.74074   0.00000  Uiso   1.00
C661   C     0.32058   0.13936   0.72093   0.00000  Uiso   1.00
C662   C     0.01244   0.19297   0.78027   0.00000  Uiso   1.00
C663   C     0.03501   0.13981   0.72032   0.00000  Uiso   1.00
C664   C     0.29833   0.19340   0.77988   0.00000  Uiso   1.00
C665   C     0.13690   0.16664   0.83751   0.00000  Uiso   1.00
C666   C     0.19650   0.16609   0.66248   0.00000  Uiso   1.00
C667   C     0.11977   0.16409   0.88749   0.00000  Uiso   1.00
C668   C     0.21441   0.16039   0.61225   0.00000  Uiso   1.00
C669   C     0.05743   0.15988   0.96221   0.00000  Uiso   1.00
C670   C     0.27116   0.12869   0.54103   0.00000  Uiso   1.00
C671   C     0.07140   0.16359   0.91475   0.00000  Uiso   1.00
C672   C     0.25749   0.13930   0.58813   0.00000  Uiso   1.00
C673   C     0.15370   0.16103   0.90788   0.00000  Uiso   1.00
C674   C     0.18446   0.16998   0.58924   0.00000  Uiso   1.00
C675   C     0.14061   0.15592   0.95476   0.00000  Uiso   1.00
C676   C     0.19546   0.15567   0.54319   0.00000  Uiso   1.00
C677   C     0.09175   0.15603   0.98256   0.00000  Uiso   1.00
C678   C     0.24093   0.13764   0.51766   0.00000  Uiso   1.00
C679   C     0.17517   0.15063   0.97471   0.00000  Uiso   1.00
C680   C     0.16107   0.15667   0.52295   0.00000  Uiso   1.00
H681   H     0.15175   0.18757   0.60808   0.00000  Uiso   1.00
H682   H     0.19074   0.16390   0.88703   0.00000  Uiso   1.00
H683   H     0.27930   0.12960   0.60637   0.00000  Uiso   1.00
H684   H     0.04462   0.16668   0.89959   0.00000  Uiso   1.00
H685   H     0.02003   0.16159   0.98300   0.00000  Uiso   1.00
H686   H     0.30417   0.11166   0.52326   0.00000  Uiso   1.00
H687   H     0.10056   0.15428   0.58716   0.00000  Uiso   1.00
H688   H     0.23341   0.12768   0.91207   0.00000  Uiso   1.00
N689   N     0.04759   0.16668   0.75001   0.00000  Uiso   1.00
N690   N     0.28574   0.16666   0.74999   0.00000  Uiso   1.00
O691   O     0.12846   0.22775   0.75001   0.00000  Uiso   1.00
O692   O     0.20488   0.10558   0.74999   0.00000  Uiso   1.00
O693   O     0.20490   0.22774   0.75000   0.00000  Uiso   1.00
O694   O     0.12843   0.10559   0.75000   0.00000  Uiso   1.00
O695   O     0.10661   0.16667   0.81612   0.00000  Uiso   1.00
O696   O     0.22672   0.16666   0.68387   0.00000  Uiso   1.00
O697   O     0.18305   0.16666   0.81612   0.00000  Uiso   1.00
O698   O     0.15028   0.16667   0.68388   0.00000  Uiso   1.00
Zn699  Zn    0.11562   0.16667   0.75000   0.00000  Uiso   1.00
Zn700  Zn    0.21771   0.16666   0.75000   0.00000  Uiso   1.00
N701   N     0.03495   0.13409   0.55595   0.00000  Uiso   1.00
H702   H     0.02180   0.14615   0.58974   0.00000  Uiso   1.00
C703   C     0.03823   0.08841   0.55292   0.00000  Uiso   1.00
H704   H     0.00308   0.07515   0.57184   0.00000  Uiso   1.00
H705   H     0.06383   0.07739   0.56830   0.00000  Uiso   1.00
H706   H     0.04983   0.07606   0.51631   0.00000  Uiso   1.00
N707   N     0.29940   0.10894   0.94325   0.00000  Uiso   1.00
H708   H     0.31334   0.11926   0.91028   0.00000  Uiso   1.00
C709   C     0.30098   0.06348   0.94271   0.00000  Uiso   1.00
H710   H     0.00472   0.05176   0.92376   0.00000  Uiso   1.00
H711   H     0.27780   0.04988   0.92502   0.00000  Uiso   1.00
H712   H     0.28916   0.05275   0.97839   0.00000  Uiso   1.00
I713   I     0.28072   0.28944   0.71113   0.00000  Uiso   1.00
I714   I     0.05072   0.04679   0.79380   0.00000  Uiso   1.00
I715   I     0.24769   0.04550   0.79596   0.00000  Uiso   1.00
I716   I     0.08038   0.28915   0.71256   0.00000  Uiso   1.00
I717   I     0.30297   0.09383   0.67762   0.00000  Uiso   1.00
I718   I     0.02845   0.23310   0.82969   0.00000  Uiso   1.00
I719   I     0.08694   0.09715   0.67253   0.00000  Uiso   1.00
I720   I     0.24675   0.23635   0.82748   0.00000  Uiso   1.00
C721   C     0.50175   0.24634   0.74521   0.00000  Uiso   1.00
C722   C     0.49770   0.08740   0.75610   0.00000  Uiso   1.00
C723   C     0.44579   0.15705   0.55028   0.00000  Uiso   1.00
C724   C     0.55549   0.13639   0.94854   0.00000  Uiso   1.00
C725   C     0.41198   0.15191   0.53005   0.00000  Uiso   1.00
C726   C     0.58744   0.12758   0.97001   0.00000  Uiso   1.00
C727   C     0.54238   0.31303   0.74439   0.00000  Uiso   1.00
C728   C     0.45516   0.02139   0.76124   0.00000  Uiso   1.00
C729   C     0.53582   0.02110   0.76153   0.00000  Uiso   1.00
C730   C     0.46135   0.31318   0.74447   0.00000  Uiso   1.00
C731   C     0.49463   0.04303   0.76386   0.00000  Uiso   1.00
C732   C     0.50328   0.29131   0.74074   0.00000  Uiso   1.00
C733   C     0.65391   0.13936   0.72093   0.00000  Uiso   1.00
C734   C     0.34578   0.19297   0.78027   0.00000  Uiso   1.00
C735   C     0.36834   0.13981   0.72032   0.00000  Uiso   1.00
C736   C     0.63167   0.19340   0.77988   0.00000  Uiso   1.00
C737   C     0.47023   0.16664   0.83751   0.00000  Uiso   1.00
C738   C     0.52983   0.16609   0.66248   0.00000  Uiso   1.00
C739   C     0.45311   0.16409   0.88749   0.00000  Uiso   1.00
C740   C     0.54774   0.16039   0.61225   0.00000  Uiso   1.00
C741   C     0.39077   0.15988   0.96221   0.00000  Uiso   1.00
C742   C     0.60449   0.12869   0.54103   0.00000  Uiso   1.00
C743   C     0.40473   0.16359   0.91475   0.00000  Uiso   1.00
C744   C     0.59083   0.13930   0.58813   0.00000  Uiso   1.00
C745   C     0.48703   0.16103   0.90788   0.00000  Uiso   1.00
C746   C     0.51779   0.16998   0.58924   0.00000  Uiso   1.00
C747   C     0.47394   0.15592   0.95476   0.00000  Uiso   1.00
C748   C     0.52880   0.15567   0.54319   0.00000  Uiso   1.00
C749   C     0.42508   0.15603   0.98256   0.00000  Uiso   1.00
C750   C     0.57426   0.13764   0.51766   0.00000  Uiso   1.00
C751   C     0.50851   0.15063   0.97471   0.00000  Uiso   1.00
C752   C     0.49440   0.15667   0.52295   0.00000  Uiso   1.00
H753   H     0.48508   0.18757   0.60808   0.00000  Uiso   1.00
H754   H     0.52407   0.16390   0.88703   0.00000  Uiso   1.00
H755   H     0.61263   0.12960   0.60637   0.00000  Uiso   1.00
H756   H     0.37795   0.16668   0.89959   0.00000  Uiso   1.00
H757   H     0.35337   0.16159   0.98300   0.00000  Uiso   1.00
H758   H     0.63750   0.11166   0.52326   0.00000  Uiso   1.00
H759   H     0.43389   0.15428   0.58716   0.00000  Uiso   1.00
H760   H     0.56674   0.12768   0.91207   0.00000  Uiso   1.00
N761   N     0.38093   0.16668   0.75001   0.00000  Uiso   1.00
N762   N     0.61907   0.16666   0.74999   0.00000  Uiso   1.00
O763   O     0.46179   0.22775   0.75001   0.00000  Uiso   1.00
O764   O     0.53821   0.10558   0.74999   0.00000  Uiso   1.00
O765   O     0.53823   0.22774   0.75000   0.00000  Uiso   1.00
O766   O     0.46177   0.10559   0.75000   0.00000  Uiso   1.00
O767   O     0.43994   0.16667   0.81612   0.00000  Uiso   1.00
O768   O     0.56006   0.16666   0.68387   0.00000  Uiso   1.00
O769   O     0.51639   0.16666   0.81612   0.00000  Uiso   1.00
O770   O     0.48361   0.16667   0.68388   0.00000  Uiso   1.00
Zn771  Zn    0.44896   0.16667   0.75000   0.00000  Uiso   1.00
Zn772  Zn    0.55104   0.16666   0.75000   0.00000  Uiso   1.00
N773   N     0.36828   0.13409   0.55595   0.00000  Uiso   1.00
H774   H     0.35513   0.14615   0.58974   0.00000  Uiso   1.00
C775   C     0.37156   0.08841   0.55292   0.00000  Uiso   1.00
H776   H     0.33642   0.07515   0.57184   0.00000  Uiso   1.00
H777   H     0.39716   0.07739   0.56830   0.00000  Uiso   1.00
H778   H     0.38316   0.07606   0.51631   0.00000  Uiso   1.00
N779   N     0.63273   0.10894   0.94325   0.00000  Uiso   1.00
H780   H     0.64667   0.11926   0.91028   0.00000  Uiso   1.00
C781   C     0.63431   0.06348   0.94271   0.00000  Uiso   1.00
H782   H     0.33805   0.05176   0.92376   0.00000  Uiso   1.00
H783   H     0.61113   0.04988   0.92502   0.00000  Uiso   1.00
H784   H     0.62250   0.05275   0.97839   0.00000  Uiso   1.00
I785   I     0.61405   0.28944   0.71113   0.00000  Uiso   1.00
I786   I     0.38405   0.04679   0.79380   0.00000  Uiso   1.00
I787   I     0.58103   0.04550   0.79596   0.00000  Uiso   1.00
I788   I     0.41372   0.28915   0.71256   0.00000  Uiso   1.00
I789   I     0.63630   0.09383   0.67762   0.00000  Uiso   1.00
I790   I     0.36178   0.23310   0.82969   0.00000  Uiso   1.00
I791   I     0.42027   0.09715   0.67253   0.00000  Uiso   1.00
I792   I     0.58008   0.23635   0.82748   0.00000  Uiso   1.00
C793   C     0.83508   0.24634   0.74521   0.00000  Uiso   1.00
C794   C     0.83103   0.08740   0.75610   0.00000  Uiso   1.00
C795   C     0.77912   0.15705   0.55028   0.00000  Uiso   1.00
C796   C     0.88883   0.13639   0.94854   0.00000  Uiso   1.00
C797   C     0.74531   0.15191   0.53005   0.00000  Uiso   1.00
C798   C     0.92078   0.12758   0.97001   0.00000  Uiso   1.00
C799   C     0.87571   0.31303   0.74439   0.00000  Uiso   1.00
C800   C     0.78850   0.02139   0.76124   0.00000  Uiso   1.00
C801   C     0.86915   0.02110   0.76153   0.00000  Uiso   1.00
C802   C     0.79468   0.31318   0.74447   0.00000  Uiso   1.00
C803   C     0.82796   0.04303   0.76386   0.00000  Uiso   1.00
C804   C     0.83662   0.29131   0.74074   0.00000  Uiso   1.00
C805   C     0.98724   0.13936   0.72093   0.00000  Uiso   1.00
C806   C     0.67911   0.19297   0.78027   0.00000  Uiso   1.00
C807   C     0.70168   0.13981   0.72032   0.00000  Uiso   1.00
C808   C     0.96500   0.19340   0.77988   0.00000  Uiso   1.00
C809   C     0.80356   0.16664   0.83751   0.00000  Uiso   1.00
C810   C     0.86316   0.16609   0.66248   0.00000  Uiso   1.00
C811   C     0.78644   0.16409   0.88749   0.00000  Uiso   1.00
C812   C     0.88107   0.16039   0.61225   0.00000  Uiso   1.00
C813   C     0.72410   0.15988   0.96221   0.00000  Uiso   1.00
C814   C     0.93783   0.12869   0.54103   0.00000  Uiso   1.00
C815   C     0.73806   0.16359   0.91475   0.00000  Uiso   1.00
C816   C     0.92416   0.13930   0.58813   0.00000  Uiso   1.00
C817   C     0.82037   0.16103   0.90788   0.00000  Uiso   1.00
C818   C     0.85112   0.16998   0.58924   0.00000  Uiso   1.00
C819   C     0.80727   0.15592   0.95476   0.00000  Uiso   1.00
C820   C     0.86213   0.15567   0.54319   0.00000  Uiso   1.00
C821   C     0.75841   0.15603   0.98256   0.00000  Uiso   1.00
C822   C     0.90760   0.13764   0.51766   0.00000  Uiso   1.00
C823   C     0.84184   0.15063   0.97471   0.00000  Uiso   1.00
C824   C     0.82773   0.15667   0.52295   0.00000  Uiso   1.00
H825   H     0.81842   0.18757   0.60808   0.00000  Uiso   1.00
H826   H     0.85740   0.16390   0.88703   0.00000  Uiso   1.00
H827   H     0.94597   0.12960   0.60637   0.00000  Uiso   1.00
H828   H     0.71129   0.16668   0.89959   0.00000  Uiso   1.00
H829   H     0.68670   0.16159   0.98300   0.00000  Uiso   1.00
H830   H     0.97083   0.11166   0.52326   0.00000  Uiso   1.00
H831   H     0.76723   0.15428   0.58716   0.00000  Uiso   1.00
H832   H     0.90008   0.12768   0.91207   0.00000  Uiso   1.00
N833   N     0.71426   0.16668   0.75001   0.00000  Uiso   1.00
N834   N     0.95241   0.16666   0.74999   0.00000  Uiso   1.00
O835   O     0.79512   0.22775   0.75001   0.00000  Uiso   1.00
O836   O     0.87154   0.10558   0.74999   0.00000  Uiso   1.00
O837   O     0.87157   0.22774   0.75000   0.00000  Uiso   1.00
O838   O     0.79510   0.10559   0.75000   0.00000  Uiso   1.00
O839   O     0.77328   0.16667   0.81612   0.00000  Uiso   1.00
O840   O     0.89339   0.16666   0.68387   0.00000  Uiso   1.00
O841   O     0.84972   0.16666   0.81612   0.00000  Uiso   1.00
O842   O     0.81695   0.16667   0.68388   0.00000  Uiso   1.00
Zn843  Zn    0.78229   0.16667   0.75000   0.00000  Uiso   1.00
Zn844  Zn    0.88438   0.16666   0.75000   0.00000  Uiso   1.00
N845   N     0.70161   0.13409   0.55595   0.00000  Uiso   1.00
H846   H     0.68846   0.14615   0.58974   0.00000  Uiso   1.00
C847   C     0.70489   0.08841   0.55292   0.00000  Uiso   1.00
H848   H     0.66975   0.07515   0.57184   0.00000  Uiso   1.00
H849   H     0.73049   0.07739   0.56830   0.00000  Uiso   1.00
H850   H     0.71650   0.07606   0.51631   0.00000  Uiso   1.00
N851   N     0.96606   0.10894   0.94325   0.00000  Uiso   1.00
H852   H     0.98001   0.11926   0.91028   0.00000  Uiso   1.00
C853   C     0.96764   0.06348   0.94271   0.00000  Uiso   1.00
H854   H     0.67138   0.05176   0.92376   0.00000  Uiso   1.00
H855   H     0.94447   0.04988   0.92502   0.00000  Uiso   1.00
H856   H     0.95583   0.05275   0.97839   0.00000  Uiso   1.00
I857   I     0.94738   0.28944   0.71113   0.00000  Uiso   1.00
I858   I     0.71738   0.04679   0.79380   0.00000  Uiso   1.00
I859   I     0.91436   0.04550   0.79596   0.00000  Uiso   1.00
I860   I     0.74705   0.28915   0.71256   0.00000  Uiso   1.00
I861   I     0.96964   0.09383   0.67762   0.00000  Uiso   1.00
I862   I     0.69511   0.23310   0.82969   0.00000  Uiso   1.00
I863   I     0.75360   0.09715   0.67253   0.00000  Uiso   1.00
I864   I     0.91341   0.23635   0.82748   0.00000  Uiso   1.00
C865   C     0.16842   0.57968   0.74521   0.00000  Uiso   1.00
C866   C     0.16436   0.42073   0.75610   0.00000  Uiso   1.00
C867   C     0.11245   0.49038   0.55028   0.00000  Uiso   1.00
C868   C     0.22216   0.46973   0.94854   0.00000  Uiso   1.00
C869   C     0.07864   0.48524   0.53005   0.00000  Uiso   1.00
C870   C     0.25411   0.46091   0.97001   0.00000  Uiso   1.00
C871   C     0.20904   0.64637   0.74439   0.00000  Uiso   1.00
C872   C     0.12183   0.35472   0.76124   0.00000  Uiso   1.00
C873   C     0.20249   0.35443   0.76153   0.00000  Uiso   1.00
C874   C     0.12801   0.64651   0.74447   0.00000  Uiso   1.00
C875   C     0.16130   0.37636   0.76386   0.00000  Uiso   1.00
C876   C     0.16995   0.62464   0.74074   0.00000  Uiso   1.00
C877   C     0.32058   0.47269   0.72093   0.00000  Uiso   1.00
C878   C     0.01244   0.52630   0.78027   0.00000  Uiso   1.00
C879   C     0.03501   0.47314   0.72032   0.00000  Uiso   1.00
C880   C     0.29833   0.52674   0.77988   0.00000  Uiso   1.00
C881   C     0.13690   0.49998   0.83751   0.00000  Uiso   1.00
C882   C     0.19650   0.49943   0.66248   0.00000  Uiso   1.00
C883   C     0.11977   0.49742   0.88749   0.00000  Uiso   1.00
C884   C     0.21441   0.49373   0.61225   0.00000  Uiso   1.00
C885   C     0.05743   0.49321   0.96221   0.00000  Uiso   1.00
C886   C     0.27116   0.46202   0.54103   0.00000  Uiso   1.00
C887   C     0.07140   0.49693   0.91475   0.00000  Uiso   1.00
C888   C     0.25749   0.47263   0.58813   0.00000  Uiso   1.00
C889   C     0.15370   0.49436   0.90788   0.00000  Uiso   1.00
C890   C     0.18446   0.50331   0.58924   0.00000  Uiso   1.00
C891   C     0.14061   0.48925   0.95476   0.00000  Uiso   1.00
C892   C     0.19546   0.48900   0.54319   0.00000  Uiso   1.00
C893   C     0.09175   0.48937   0.98256   0.00000  Uiso   1.00
C894   C     0.24093   0.47098   0.51766   0.00000  Uiso   1.00
C895   C     0.17517   0.48396   0.97471   0.00000  Uiso   1.00
C896   C     0.16107   0.49000   0.52295   0.00000  Uiso   1.00
H897   H     0.15175   0.52091   0.60808   0.00000  Uiso   1.00
H898   H     0.19074   0.49723   0.88703   0.00000  Uiso   1.00
H899   H     0.27930   0.46293   0.60637   0.00000  Uiso   1.00
H900   H     0.04462   0.50001   0.89959   0.00000  Uiso   1.00
H901   H     0.02003   0.49493   0.98300   0.00000  Uiso   1.00
H902   H     0.30417   0.44500   0.52326   0.00000  Uiso   1.00
H903   H     0.10056   0.48761   0.58716   0.00000  Uiso   1.00
H904   H     0.23341   0.46101   0.91207   0.00000  Uiso   1.00
N905   N     0.04759   0.50001   0.75001   0.00000  Uiso   1.00
N906   N     0.28574   0.49999   0.74999   0.00000  Uiso   1.00
O907   O     0.12846   0.56108   0.75001   0.00000  Uiso   1.00
O908   O     0.20488   0.43892   0.74999   0.00000  Uiso   1.00
O909   O     0.20490   0.56107   0.75000   0.00000  Uiso   1.00
O910   O     0.12843   0.43893   0.75000   0.00000  Uiso   1.00
O911   O     0.10661   0.50001   0.81612   0.00000  Uiso   1.00
O912   O     0.22672   0.49999   0.68387   0.00000  Uiso   1.00
O913   O     0.18305   0.50000   0.81612   0.00000  Uiso   1.00
O914   O     0.15028   0.50000   0.68388   0.00000  Uiso   1.00
Zn915  Zn    0.11562   0.50001   0.75000   0.00000  Uiso   1.00
Zn916  Zn    0.21771   0.49999   0.75000   0.00000  Uiso   1.00
N917   N     0.03495   0.46742   0.55595   0.00000  Uiso   1.00
H918   H     0.02180   0.47948   0.58974   0.00000  Uiso   1.00
C919   C     0.03823   0.42175   0.55292   0.00000  Uiso   1.00
H920   H     0.00308   0.40848   0.57184   0.00000  Uiso   1.00
H921   H     0.06383   0.41072   0.56830   0.00000  Uiso   1.00
H922   H     0.04983   0.40939   0.51631   0.00000  Uiso   1.00
N923   N     0.29940   0.44227   0.94325   0.00000  Uiso   1.00
H924   H     0.31334   0.45260   0.91028   0.00000  Uiso   1.00
C925   C     0.30098   0.39682   0.94271   0.00000  Uiso   1.00
H926   H     0.00472   0.38509   0.92376   0.00000  Uiso   1.00
H927   H     0.27780   0.38321   0.92502   0.00000  Uiso   1.00
H928   H     0.28916   0.38608   0.97839   0.00000  Uiso   1.00
I929   I     0.28072   0.62277   0.71113   0.00000  Uiso   1.00
I930   I     0.05072   0.38013   0.79380   0.00000  Uiso   1.00
I931   I     0.24769   0.37883   0.79596   0.00000  Uiso   1.00
I932   I     0.08038   0.62248   0.71256   0.00000  Uiso   1.00
I933   I     0.30297   0.42717   0.67762   0.00000  Uiso   1.00
I934   I     0.02845   0.56644   0.82969   0.00000  Uiso   1.00
I935   I     0.08694   0.43048   0.67253   0.00000  Uiso   1.00
I936   I     0.24675   0.56968   0.82748   0.00000  Uiso   1.00
C937   C     0.50175   0.57968   0.74521   0.00000  Uiso   1.00
C938   C     0.49770   0.42073   0.75610   0.00000  Uiso   1.00
C939   C     0.44579   0.49038   0.55028   0.00000  Uiso   1.00
C940   C     0.55549   0.46973   0.94854   0.00000  Uiso   1.00
C941   C     0.41198   0.48524   0.53005   0.00000  Uiso   1.00
C942   C     0.58744   0.46091   0.97001   0.00000  Uiso   1.00
C943   C     0.54238   0.64637   0.74439   0.00000  Uiso   1.00
C944   C     0.45516   0.35472   0.76124   0.00000  Uiso   1.00
C945   C     0.53582   0.35443   0.76153   0.00000  Uiso   1.00
C946   C     0.46135   0.64651   0.74447   0.00000  Uiso   1.00
C947   C     0.49463   0.37636   0.76386   0.00000  Uiso   1.00
C948   C     0.50328   0.62464   0.74074   0.00000  Uiso   1.00
C949   C     0.65391   0.47269   0.72093   0.00000  Uiso   1.00
C950   C     0.34578   0.52630   0.78027   0.00000  Uiso   1.00
C951   C     0.36834   0.47314   0.72032   0.00000  Uiso   1.00
C952   C     0.63167   0.52674   0.77988   0.00000  Uiso   1.00
C953   C     0.47023   0.49998   0.83751   0.00000  Uiso   1.00
C954   C     0.52983   0.49943   0.66248   0.00000  Uiso   1.00
C955   C     0.45311   0.49742   0.88749   0.00000  Uiso   1.00
C956   C     0.54774   0.49373   0.61225   0.00000  Uiso   1.00
C957   C     0.39077   0.49321   0.96221   0.00000  Uiso   1.00
C958   C     0.60449   0.46202   0.54103   0.00000  Uiso   1.00
C959   C     0.40473   0.49693   0.91475   0.00000  Uiso   1.00
C960   C     0.59083   0.47263   0.58813   0.00000  Uiso   1.00
C961   C     0.48703   0.49436   0.90788   0.00000  Uiso   1.00
C962   C     0.51779   0.50331   0.58924   0.00000  Uiso   1.00
C963   C     0.47394   0.48925   0.95476   0.00000  Uiso   1.00
C964   C     0.52880   0.48900   0.54319   0.00000  Uiso   1.00
C965   C     0.42508   0.48937   0.98256   0.00000  Uiso   1.00
C966   C     0.57426   0.47098   0.51766   0.00000  Uiso   1.00
C967   C     0.50851   0.48396   0.97471   0.00000  Uiso   1.00
C968   C     0.49440   0.49000   0.52295   0.00000  Uiso   1.00
H969   H     0.48508   0.52091   0.60808   0.00000  Uiso   1.00
H970   H     0.52407   0.49723   0.88703   0.00000  Uiso   1.00
H971   H     0.61263   0.46293   0.60637   0.00000  Uiso   1.00
H972   H     0.37795   0.50001   0.89959   0.00000  Uiso   1.00
H973   H     0.35337   0.49493   0.98300   0.00000  Uiso   1.00
H974   H     0.63750   0.44500   0.52326   0.00000  Uiso   1.00
H975   H     0.43389   0.48761   0.58716   0.00000  Uiso   1.00
H976   H     0.56674   0.46101   0.91207   0.00000  Uiso   1.00
N977   N     0.38093   0.50001   0.75001   0.00000  Uiso   1.00
N978   N     0.61907   0.49999   0.74999   0.00000  Uiso   1.00
O979   O     0.46179   0.56108   0.75001   0.00000  Uiso   1.00
O980   O     0.53821   0.43892   0.74999   0.00000  Uiso   1.00
O981   O     0.53823   0.56107   0.75000   0.00000  Uiso   1.00
O982   O     0.46177   0.43893   0.75000   0.00000  Uiso   1.00
O983   O     0.43994   0.50001   0.81612   0.00000  Uiso   1.00
O984   O     0.56006   0.49999   0.68387   0.00000  Uiso   1.00
O985   O     0.51639   0.50000   0.81612   0.00000  Uiso   1.00
O986   O     0.48361   0.50000   0.68388   0.00000  Uiso   1.00
Zn987  Zn    0.44896   0.50001   0.75000   0.00000  Uiso   1.00
Zn988  Zn    0.55104   0.49999   0.75000   0.00000  Uiso   1.00
N989   N     0.36828   0.46742   0.55595   0.00000  Uiso   1.00
H990   H     0.35513   0.47948   0.58974   0.00000  Uiso   1.00
C991   C     0.37156   0.42175   0.55292   0.00000  Uiso   1.00
H992   H     0.33642   0.40848   0.57184   0.00000  Uiso   1.00
H993   H     0.39716   0.41072   0.56830   0.00000  Uiso   1.00
H994   H     0.38316   0.40939   0.51631   0.00000  Uiso   1.00
N995   N     0.63273   0.44227   0.94325   0.00000  Uiso   1.00
H996   H     0.64667   0.45260   0.91028   0.00000  Uiso   1.00
C997   C     0.63431   0.39682   0.94271   0.00000  Uiso   1.00
H998   H     0.33805   0.38509   0.92376   0.00000  Uiso   1.00
H999   H     0.61113   0.38321   0.92502   0.00000  Uiso   1.00
H1000  H     0.62250   0.38608   0.97839   0.00000  Uiso   1.00
I1001  I     0.61405   0.62277   0.71113   0.00000  Uiso   1.00
I1002  I     0.38405   0.38013   0.79380   0.00000  Uiso   1.00
I1003  I     0.58103   0.37883   0.79596   0.00000  Uiso   1.00
I1004  I     0.41372   0.62248   0.71256   0.00000  Uiso   1.00
I1005  I     0.63630   0.42717   0.67762   0.00000  Uiso   1.00
I1006  I     0.36178   0.56644   0.82969   0.00000  Uiso   1.00
I1007  I     0.42027   0.43048   0.67253   0.00000  Uiso   1.00
I1008  I     0.58008   0.56968   0.82748   0.00000  Uiso   1.00
C1009  C     0.83508   0.57968   0.74521   0.00000  Uiso   1.00
C1010  C     0.83103   0.42073   0.75610   0.00000  Uiso   1.00
C1011  C     0.77912   0.49038   0.55028   0.00000  Uiso   1.00
C1012  C     0.88883   0.46973   0.94854   0.00000  Uiso   1.00
C1013  C     0.74531   0.48524   0.53005   0.00000  Uiso   1.00
C1014  C     0.92078   0.46091   0.97001   0.00000  Uiso   1.00
C1015  C     0.87571   0.64637   0.74439   0.00000  Uiso   1.00
C1016  C     0.78850   0.35472   0.76124   0.00000  Uiso   1.00
C1017  C     0.86915   0.35443   0.76153   0.00000  Uiso   1.00
C1018  C     0.79468   0.64651   0.74447   0.00000  Uiso   1.00
C1019  C     0.82796   0.37636   0.76386   0.00000  Uiso   1.00
C1020  C     0.83662   0.62464   0.74074   0.00000  Uiso   1.00
C1021  C     0.98724   0.47269   0.72093   0.00000  Uiso   1.00
C1022  C     0.67911   0.52630   0.78027   0.00000  Uiso   1.00
C1023  C     0.70168   0.47314   0.72032   0.00000  Uiso   1.00
C1024  C     0.96500   0.52674   0.77988   0.00000  Uiso   1.00
C1025  C     0.80356   0.49998   0.83751   0.00000  Uiso   1.00
C1026  C     0.86316   0.49943   0.66248   0.00000  Uiso   1.00
C1027  C     0.78644   0.49742   0.88749   0.00000  Uiso   1.00
C1028  C     0.88107   0.49373   0.61225   0.00000  Uiso   1.00
C1029  C     0.72410   0.49321   0.96221   0.00000  Uiso   1.00
C1030  C     0.93783   0.46202   0.54103   0.00000  Uiso   1.00
C1031  C     0.73806   0.49693   0.91475   0.00000  Uiso   1.00
C1032  C     0.92416   0.47263   0.58813   0.00000  Uiso   1.00
C1033  C     0.82037   0.49436   0.90788   0.00000  Uiso   1.00
C1034  C     0.85112   0.50331   0.58924   0.00000  Uiso   1.00
C1035  C     0.80727   0.48925   0.95476   0.00000  Uiso   1.00
C1036  C     0.86213   0.48900   0.54319   0.00000  Uiso   1.00
C1037  C     0.75841   0.48937   0.98256   0.00000  Uiso   1.00
C1038  C     0.90760   0.47098   0.51766   0.00000  Uiso   1.00
C1039  C     0.84184   0.48396   0.97471   0.00000  Uiso   1.00
C1040  C     0.82773   0.49000   0.52295   0.00000  Uiso   1.00
H1041  H     0.81842   0.52091   0.60808   0.00000  Uiso   1.00
H1042  H     0.85740   0.49723   0.88703   0.00000  Uiso   1.00
H1043  H     0.94597   0.46293   0.60637   0.00000  Uiso   1.00
H1044  H     0.71129   0.50001   0.89959   0.00000  Uiso   1.00
H1045  H     0.68670   0.49493   0.98300   0.00000  Uiso   1.00
H1046  H     0.97083   0.44500   0.52326   0.00000  Uiso   1.00
H1047  H     0.76723   0.48761   0.58716   0.00000  Uiso   1.00
H1048  H     0.90008   0.46101   0.91207   0.00000  Uiso   1.00
N1049  N     0.71426   0.50001   0.75001   0.00000  Uiso   1.00
N1050  N     0.95241   0.49999   0.74999   0.00000  Uiso   1.00
O1051  O     0.79512   0.56108   0.75001   0.00000  Uiso   1.00
O1052  O     0.87154   0.43892   0.74999   0.00000  Uiso   1.00
O1053  O     0.87157   0.56107   0.75000   0.00000  Uiso   1.00
O1054  O     0.79510   0.43893   0.75000   0.00000  Uiso   1.00
O1055  O     0.77328   0.50001   0.81612   0.00000  Uiso   1.00
O1056  O     0.89339   0.49999   0.68387   0.00000  Uiso   1.00
O1057  O     0.84972   0.50000   0.81612   0.00000  Uiso   1.00
O1058  O     0.81695   0.50000   0.68388   0.00000  Uiso   1.00
Zn1059 Zn    0.78229   0.50001   0.75000   0.00000  Uiso   1.00
Zn1060 Zn    0.88438   0.49999   0.75000   0.00000  Uiso   1.00
N1061  N     0.70161   0.46742   0.55595   0.00000  Uiso   1.00
H1062  H     0.68846   0.47948   0.58974   0.00000  Uiso   1.00
C1063  C     0.70489   0.42175   0.55292   0.00000  Uiso   1.00
H1064  H     0.66975   0.40848   0.57184   0.00000  Uiso   1.00
H1065  H     0.73049   0.41072   0.56830   0.00000  Uiso   1.00
H1066  H     0.71650   0.40939   0.51631   0.00000  Uiso   1.00
N1067  N     0.96606   0.44227   0.94325   0.00000  Uiso   1.00
H1068  H     0.98001   0.45260   0.91028   0.00000  Uiso   1.00
C1069  C     0.96764   0.39682   0.94271   0.00000  Uiso   1.00
H1070  H     0.67138   0.38509   0.92376   0.00000  Uiso   1.00
H1071  H     0.94447   0.38321   0.92502   0.00000  Uiso   1.00
H1072  H     0.95583   0.38608   0.97839   0.00000  Uiso   1.00
I1073  I     0.94738   0.62277   0.71113   0.00000  Uiso   1.00
I1074  I     0.71738   0.38013   0.79380   0.00000  Uiso   1.00
I1075  I     0.91436   0.37883   0.79596   0.00000  Uiso   1.00
I1076  I     0.74705   0.62248   0.71256   0.00000  Uiso   1.00
I1077  I     0.96964   0.42717   0.67762   0.00000  Uiso   1.00
I1078  I     0.69511   0.56644   0.82969   0.00000  Uiso   1.00
I1079  I     0.75360   0.43048   0.67253   0.00000  Uiso   1.00
I1080  I     0.91341   0.56968   0.82748   0.00000  Uiso   1.00
C1081  C     0.16842   0.91301   0.74521   0.00000  Uiso   1.00
C1082  C     0.16436   0.75406   0.75610   0.00000  Uiso   1.00
C1083  C     0.11245   0.82372   0.55028   0.00000  Uiso   1.00
C1084  C     0.22216   0.80306   0.94854   0.00000  Uiso   1.00
C1085  C     0.07864   0.81858   0.53005   0.00000  Uiso   1.00
C1086  C     0.25411   0.79424   0.97001   0.00000  Uiso   1.00
C1087  C     0.20904   0.97970   0.74439   0.00000  Uiso   1.00
C1088  C     0.12183   0.68806   0.76124   0.00000  Uiso   1.00
C1089  C     0.20249   0.68777   0.76153   0.00000  Uiso   1.00
C1090  C     0.12801   0.97984   0.74447   0.00000  Uiso   1.00
C1091  C     0.16130   0.70970   0.76386   0.00000  Uiso   1.00
C1092  C     0.16995   0.95797   0.74074   0.00000  Uiso   1.00
C1093  C     0.32058   0.80603   0.72093   0.00000  Uiso   1.00
C1094  C     0.01244   0.85963   0.78027   0.00000  Uiso   1.00
C1095  C     0.03501   0.80647   0.72032   0.00000  Uiso   1.00
C1096  C     0.29833   0.86007   0.77988   0.00000  Uiso   1.00
C1097  C     0.13690   0.83331   0.83751   0.00000  Uiso   1.00
C1098  C     0.19650   0.83276   0.66248   0.00000  Uiso   1.00
C1099  C     0.11977   0.83076   0.88749   0.00000  Uiso   1.00
C1100  C     0.21441   0.82706   0.61225   0.00000  Uiso   1.00
C1101  C     0.05743   0.82655   0.96221   0.00000  Uiso   1.00
C1102  C     0.27116   0.79535   0.54103   0.00000  Uiso   1.00
C1103  C     0.07140   0.83026   0.91475   0.00000  Uiso   1.00
C1104  C     0.25749   0.80596   0.58813   0.00000  Uiso   1.00
C1105  C     0.15370   0.82770   0.90788   0.00000  Uiso   1.00
C1106  C     0.18446   0.83665   0.58924   0.00000  Uiso   1.00
C1107  C     0.14061   0.82258   0.95476   0.00000  Uiso   1.00
C1108  C     0.19546   0.82233   0.54319   0.00000  Uiso   1.00
C1109  C     0.09175   0.82270   0.98256   0.00000  Uiso   1.00
C1110  C     0.24093   0.80431   0.51766   0.00000  Uiso   1.00
C1111  C     0.17517   0.81729   0.97471   0.00000  Uiso   1.00
C1112  C     0.16107   0.82334   0.52295   0.00000  Uiso   1.00
H1113  H     0.15175   0.85424   0.60808   0.00000  Uiso   1.00
H1114  H     0.19074   0.83057   0.88703   0.00000  Uiso   1.00
H1115  H     0.27930   0.79626   0.60637   0.00000  Uiso   1.00
H1116  H     0.04462   0.83335   0.89959   0.00000  Uiso   1.00
H1117  H     0.02003   0.82826   0.98300   0.00000  Uiso   1.00
H1118  H     0.30417   0.77833   0.52326   0.00000  Uiso   1.00
H1119  H     0.10056   0.82095   0.58716   0.00000  Uiso   1.00
H1120  H     0.23341   0.79434   0.91207   0.00000  Uiso   1.00
N1121  N     0.04759   0.83334   0.75001   0.00000  Uiso   1.00
N1122  N     0.28574   0.83332   0.74999   0.00000  Uiso   1.00
O1123  O     0.12846   0.89442   0.75001   0.00000  Uiso   1.00
O1124  O     0.20488   0.77225   0.74999   0.00000  Uiso   1.00
O1125  O     0.20490   0.89441   0.75000   0.00000  Uiso   1.00
O1126  O     0.12843   0.77226   0.75000   0.00000  Uiso   1.00
O1127  O     0.10661   0.83334   0.81612   0.00000  Uiso   1.00
O1128  O     0.22672   0.83333   0.68387   0.00000  Uiso   1.00
O1129  O     0.18305   0.83333   0.81612   0.00000  Uiso   1.00
O1130  O     0.15028   0.83334   0.68388   0.00000  Uiso   1.00
Zn1131 Zn    0.11562   0.83334   0.75000   0.00000  Uiso   1.00
Zn1132 Zn    0.21771   0.83333   0.75000   0.00000  Uiso   1.00
N1133  N     0.03495   0.80076   0.55595   0.00000  Uiso   1.00
H1134  H     0.02180   0.81281   0.58974   0.00000  Uiso   1.00
C1135  C     0.03823   0.75508   0.55292   0.00000  Uiso   1.00
H1136  H     0.00308   0.74182   0.57184   0.00000  Uiso   1.00
H1137  H     0.06383   0.74406   0.56830   0.00000  Uiso   1.00
H1138  H     0.04983   0.74272   0.51631   0.00000  Uiso   1.00
N1139  N     0.29940   0.77560   0.94325   0.00000  Uiso   1.00
H1140  H     0.31334   0.78593   0.91028   0.00000  Uiso   1.00
C1141  C     0.30098   0.73015   0.94271   0.00000  Uiso   1.00
H1142  H     0.00472   0.71843   0.92376   0.00000  Uiso   1.00
H1143  H     0.27780   0.71655   0.92502   0.00000  Uiso   1.00
H1144  H     0.28916   0.71942   0.97839   0.00000  Uiso   1.00
I1145  I     0.28072   0.95610   0.71113   0.00000  Uiso   1.00
I1146  I     0.05072   0.71346   0.79380   0.00000  Uiso   1.00
I1147  I     0.24769   0.71216   0.79596   0.00000  Uiso   1.00
I1148  I     0.08038   0.95582   0.71256   0.00000  Uiso   1.00
I1149  I     0.30297   0.76050   0.67762   0.00000  Uiso   1.00
I1150  I     0.02845   0.89977   0.82969   0.00000  Uiso   1.00
I1151  I     0.08694   0.76381   0.67253   0.00000  Uiso   1.00
I1152  I     0.24675   0.90301   0.82748   0.00000  Uiso   1.00
C1153  C     0.50175   0.91301   0.74521   0.00000  Uiso   1.00
C1154  C     0.49770   0.75406   0.75610   0.00000  Uiso   1.00
C1155  C     0.44579   0.82372   0.55028   0.00000  Uiso   1.00
C1156  C     0.55549   0.80306   0.94854   0.00000  Uiso   1.00
C1157  C     0.41198   0.81858   0.53005   0.00000  Uiso   1.00
C1158  C     0.58744   0.79424   0.97001   0.00000  Uiso   1.00
C1159  C     0.54238   0.97970   0.74439   0.00000  Uiso   1.00
C1160  C     0.45516   0.68806   0.76124   0.00000  Uiso   1.00
C1161  C     0.53582   0.68777   0.76153   0.00000  Uiso   1.00
C1162  C     0.46135   0.97984   0.74447   0.00000  Uiso   1.00
C1163  C     0.49463   0.70970   0.76386   0.00000  Uiso   1.00
C1164  C     0.50328   0.95797   0.74074   0.00000  Uiso   1.00
C1165  C     0.65391   0.80603   0.72093   0.00000  Uiso   1.00
C1166  C     0.34578   0.85963   0.78027   0.00000  Uiso   1.00
C1167  C     0.36834   0.80647   0.72032   0.00000  Uiso   1.00
C1168  C     0.63167   0.86007   0.77988   0.00000  Uiso   1.00
C1169  C     0.47023   0.83331   0.83751   0.00000  Uiso   1.00
C1170  C     0.52983   0.83276   0.66248   0.00000  Uiso   1.00
C1171  C     0.45311   0.83076   0.88749   0.00000  Uiso   1.00
C1172  C     0.54774   0.82706   0.61225   0.00000  Uiso   1.00
C1173  C     0.39077   0.82655   0.96221   0.00000  Uiso   1.00
C1174  C     0.60449   0.79535   0.54103   0.00000  Uiso   1.00
C1175  C     0.40473   0.83026   0.91475   0.00000  Uiso   1.00
C1176  C     0.59083   0.80596   0.58813   0.00000  Uiso   1.00
C1177  C     0.48703   0.82770   0.90788   0.00000  Uiso   1.00
C1178  C     0.51779   0.83665   0.58924   0.00000  Uiso   1.00
C1179  C     0.47394   0.82258   0.95476   0.00000  Uiso   1.00
C1180  C     0.52880   0.82233   0.54319   0.00000  Uiso   1.00
C1181  C     0.42508   0.82270   0.98256   0.00000  Uiso   1.00
C1182  C     0.57426   0.80431   0.51766   0.00000  Uiso   1.00
C1183  C     0.50851   0.81729   0.97471   0.00000  Uiso   1.00
C1184  C     0.49440   0.82334   0.52295   0.00000  Uiso   1.00
H1185  H     0.48508   0.85424   0.60808   0.00000  Uiso   1.00
H1186  H     0.52407   0.83057   0.88703   0.00000  Uiso   1.00
H1187  H     0.61263   0.79626   0.60637   0.00000  Uiso   1.00
H1188  H     0.37795   0.83335   0.89959   0.00000  Uiso   1.00
H1189  H     0.35337   0.82826   0.98300   0.00000  Uiso   1.00
H1190  H     0.63750   0.77833   0.52326   0.00000  Uiso   1.00
H1191  H     0.43389   0.82095   0.58716   0.00000  Uiso   1.00
H1192  H     0.56674   0.79434   0.91207   0.00000  Uiso   1.00
N1193  N     0.38093   0.83334   0.75001   0.00000  Uiso   1.00
N1194  N     0.61907   0.83332   0.74999   0.00000  Uiso   1.00
O1195  O     0.46179   0.89442   0.75001   0.00000  Uiso   1.00
O1196  O     0.53821   0.77225   0.74999   0.00000  Uiso   1.00
O1197  O     0.53823   0.89441   0.75000   0.00000  Uiso   1.00
O1198  O     0.46177   0.77226   0.75000   0.00000  Uiso   1.00
O1199  O     0.43994   0.83334   0.81612   0.00000  Uiso   1.00
O1200  O     0.56006   0.83333   0.68387   0.00000  Uiso   1.00
O1201  O     0.51639   0.83333   0.81612   0.00000  Uiso   1.00
O1202  O     0.48361   0.83334   0.68388   0.00000  Uiso   1.00
Zn1203 Zn    0.44896   0.83334   0.75000   0.00000  Uiso   1.00
Zn1204 Zn    0.55104   0.83333   0.75000   0.00000  Uiso   1.00
N1205  N     0.36828   0.80076   0.55595   0.00000  Uiso   1.00
H1206  H     0.35513   0.81281   0.58974   0.00000  Uiso   1.00
C1207  C     0.37156   0.75508   0.55292   0.00000  Uiso   1.00
H1208  H     0.33642   0.74182   0.57184   0.00000  Uiso   1.00
H1209  H     0.39716   0.74406   0.56830   0.00000  Uiso   1.00
H1210  H     0.38316   0.74272   0.51631   0.00000  Uiso   1.00
N1211  N     0.63273   0.77560   0.94325   0.00000  Uiso   1.00
H1212  H     0.64667   0.78593   0.91028   0.00000  Uiso   1.00
C1213  C     0.63431   0.73015   0.94271   0.00000  Uiso   1.00
H1214  H     0.33805   0.71843   0.92376   0.00000  Uiso   1.00
H1215  H     0.61113   0.71655   0.92502   0.00000  Uiso   1.00
H1216  H     0.62250   0.71942   0.97839   0.00000  Uiso   1.00
I1217  I     0.61405   0.95610   0.71113   0.00000  Uiso   1.00
I1218  I     0.38405   0.71346   0.79380   0.00000  Uiso   1.00
I1219  I     0.58103   0.71216   0.79596   0.00000  Uiso   1.00
I1220  I     0.41372   0.95582   0.71256   0.00000  Uiso   1.00
I1221  I     0.63630   0.76050   0.67762   0.00000  Uiso   1.00
I1222  I     0.36178   0.89977   0.82969   0.00000  Uiso   1.00
I1223  I     0.42027   0.76381   0.67253   0.00000  Uiso   1.00
I1224  I     0.58008   0.90301   0.82748   0.00000  Uiso   1.00
C1225  C     0.83508   0.91301   0.74521   0.00000  Uiso   1.00
C1226  C     0.83103   0.75406   0.75610   0.00000  Uiso   1.00
C1227  C     0.77912   0.82372   0.55028   0.00000  Uiso   1.00
C1228  C     0.88883   0.80306   0.94854   0.00000  Uiso   1.00
C1229  C     0.74531   0.81858   0.53005   0.00000  Uiso   1.00
C1230  C     0.92078   0.79424   0.97001   0.00000  Uiso   1.00
C1231  C     0.87571   0.97970   0.74439   0.00000  Uiso   1.00
C1232  C     0.78850   0.68806   0.76124   0.00000  Uiso   1.00
C1233  C     0.86915   0.68777   0.76153   0.00000  Uiso   1.00
C1234  C     0.79468   0.97984   0.74447   0.00000  Uiso   1.00
C1235  C     0.82796   0.70970   0.76386   0.00000  Uiso   1.00
C1236  C     0.83662   0.95797   0.74074   0.00000  Uiso   1.00
C1237  C     0.98724   0.80603   0.72093   0.00000  Uiso   1.00
C1238  C     0.67911   0.85963   0.78027   0.00000  Uiso   1.00
C1239  C     0.70168   0.80647   0.72032   0.00000  Uiso   1.00
C1240  C     0.96500   0.86007   0.77988   0.00000  Uiso   1.00
C1241  C     0.80356   0.83331   0.83751   0.00000  Uiso   1.00
C1242  C     0.86316   0.83276   0.66248   0.00000  Uiso   1.00
C1243  C     0.78644   0.83076   0.88749   0.00000  Uiso   1.00
C1244  C     0.88107   0.82706   0.61225   0.00000  Uiso   1.00
C1245  C     0.72410   0.82655   0.96221   0.00000  Uiso   1.00
C1246  C     0.93783   0.79535   0.54103   0.00000  Uiso   1.00
C1247  C     0.73806   0.83026   0.91475   0.00000  Uiso   1.00
C1248  C     0.92416   0.80596   0.58813   0.00000  Uiso   1.00
C1249  C     0.82037   0.82770   0.90788   0.00000  Uiso   1.00
C1250  C     0.85112   0.83665   0.58924   0.00000  Uiso   1.00
C1251  C     0.80727   0.82258   0.95476   0.00000  Uiso   1.00
C1252  C     0.86213   0.82233   0.54319   0.00000  Uiso   1.00
C1253  C     0.75841   0.82270   0.98256   0.00000  Uiso   1.00
C1254  C     0.90760   0.80431   0.51766   0.00000  Uiso   1.00
C1255  C     0.84184   0.81729   0.97471   0.00000  Uiso   1.00
C1256  C     0.82773   0.82334   0.52295   0.00000  Uiso   1.00
H1257  H     0.81842   0.85424   0.60808   0.00000  Uiso   1.00
H1258  H     0.85740   0.83057   0.88703   0.00000  Uiso   1.00
H1259  H     0.94597   0.79626   0.60637   0.00000  Uiso   1.00
H1260  H     0.71129   0.83335   0.89959   0.00000  Uiso   1.00
H1261  H     0.68670   0.82826   0.98300   0.00000  Uiso   1.00
H1262  H     0.97083   0.77833   0.52326   0.00000  Uiso   1.00
H1263  H     0.76723   0.82095   0.58716   0.00000  Uiso   1.00
H1264  H     0.90008   0.79434   0.91207   0.00000  Uiso   1.00
N1265  N     0.71426   0.83334   0.75001   0.00000  Uiso   1.00
N1266  N     0.95241   0.83332   0.74999   0.00000  Uiso   1.00
O1267  O     0.79512   0.89442   0.75001   0.00000  Uiso   1.00
O1268  O     0.87154   0.77225   0.74999   0.00000  Uiso   1.00
O1269  O     0.87157   0.89441   0.75000   0.00000  Uiso   1.00
O1270  O     0.79510   0.77226   0.75000   0.00000  Uiso   1.00
O1271  O     0.77328   0.83334   0.81612   0.00000  Uiso   1.00
O1272  O     0.89339   0.83333   0.68387   0.00000  Uiso   1.00
O1273  O     0.84972   0.83333   0.81612   0.00000  Uiso   1.00
O1274  O     0.81695   0.83334   0.68388   0.00000  Uiso   1.00
Zn1275 Zn    0.78229   0.83334   0.75000   0.00000  Uiso   1.00
Zn1276 Zn    0.88438   0.83333   0.75000   0.00000  Uiso   1.00
N1277  N     0.70161   0.80076   0.55595   0.00000  Uiso   1.00
H1278  H     0.68846   0.81281   0.58974   0.00000  Uiso   1.00
C1279  C     0.70489   0.75508   0.55292   0.00000  Uiso   1.00
H1280  H     0.66975   0.74182   0.57184   0.00000  Uiso   1.00
H1281  H     0.73049   0.74406   0.56830   0.00000  Uiso   1.00
H1282  H     0.71650   0.74272   0.51631   0.00000  Uiso   1.00
N1283  N     0.96606   0.77560   0.94325   0.00000  Uiso   1.00
H1284  H     0.98001   0.78593   0.91028   0.00000  Uiso   1.00
C1285  C     0.96764   0.73015   0.94271   0.00000  Uiso   1.00
H1286  H     0.67138   0.71843   0.92376   0.00000  Uiso   1.00
H1287  H     0.94447   0.71655   0.92502   0.00000  Uiso   1.00
H1288  H     0.95583   0.71942   0.97839   0.00000  Uiso   1.00
I1289  I     0.94738   0.95610   0.71113   0.00000  Uiso   1.00
I1290  I     0.71738   0.71346   0.79380   0.00000  Uiso   1.00
I1291  I     0.91436   0.71216   0.79596   0.00000  Uiso   1.00
I1292  I     0.74705   0.95582   0.71256   0.00000  Uiso   1.00
I1293  I     0.96964   0.76050   0.67762   0.00000  Uiso   1.00
I1294  I     0.69511   0.89977   0.82969   0.00000  Uiso   1.00
I1295  I     0.75360   0.76381   0.67253   0.00000  Uiso   1.00
I1296  I     0.91341   0.90301   0.82748   0.00000  Uiso   1.00
loop_
_geom_bond_atom_site_label_1
_geom_bond_atom_site_label_2
_geom_bond_distance
_geom_bond_site_symmetry_2
_ccdc_geom_bond_type
C1     O45     1.309   .     A
C1     C12     1.445   .     S
C1     O43     1.308   .     A
C2     O46     1.307   .     A
C2     C11     1.444   .     S
C2     O44     1.310   .     A
C3     C5      1.387   .     A
C3     H39     1.081   .     S
C3     C32     1.403   .     A
C4     C31     1.413   .     A
C4     C6      1.395   .     A
C4     H40     1.080   .     S
C5     N53     1.412   .     S
C5     C677    1.400   1_554 S
C6     N59     1.424   .     S
C6     C678    1.407   .     S
C7     C12     1.407   .     A
C7     I65     2.143   .     S
C7     C225    1.380   .     S
C8     I66     2.146   .     S
C8     C11     1.404   .     A
C8     C442    1.381   1_545 S
C9     I67     2.144   .     S
C9     C11     1.401   .     A
C9     C439    1.380   1_545 S
C10    I68     2.145   .     S
C10    C12     1.407   .     A
C10    C224    1.381   .     S
C13    I69     2.124   .     S
C13    N42     1.377   .     A
C13    C87     1.436   .     S
C14    I70     2.136   .     S
C14    N41     1.376   .     A
C14    C160    1.437   1_455 S
C15    I71     2.141   .     S
C15    N41     1.379   .     A
C15    C157    1.436   1_455 S
C16    I72     2.139   .     S
C16    N42     1.381   .     A
C16    C86     1.437   .     S
C17    C19     1.459   .     S
C17    O49     1.308   .     A
C17    O47     1.313   .     A
C18    O50     1.309   .     A
C18    C20     1.458   .     S
C18    O48     1.311   .     A
C19    C23     1.398   .     A
C19    C25     1.394   .     A
C20    C24     1.391   .     A
C20    C26     1.385   .     A
C21    C23     1.394   .     A
C21    H37     1.078   .     S
C21    C29     1.406   .     A
C22    C24     1.393   .     A
C22    H38     1.075   .     S
C22    C30     1.396   .     A
C23    H36     1.081   .     S
C24    H35     1.069   .     S
C25    H34     1.077   .     S
C25    C27     1.387   .     A
C26    H33     1.082   .     S
C26    C28     1.399   .     A
C27    C29     1.413   .     A
C27    C31     1.409   .     A
C28    C32     1.398   .     A
C28    C30     1.413   .     A
C29    C653    1.400   .     S
C30    C654    1.407   1_554 S
C31    C680    1.407   .     S
C32    C679    1.407   1_554 S
N41    Zn51    2.054   .     S
N42    Zn52    2.054   .     S
O43    Zn51    1.984   .     S
O44    Zn52    1.984   .     S
O45    Zn52    1.982   .     S
O46    Zn51    1.982   .     S
O47    Zn51    1.977   .     S
O48    Zn52    1.977   .     S
O49    Zn52    1.942   .     S
O50    Zn51    1.942   .     S
N53    H54     1.031   .     S
N53    C55     1.453   .     S
C55    H56     1.108   .     S
C55    H57     1.112   .     S
C55    H58     1.112   .     S
N59    H60     1.032   .     S
N59    C61     1.447   .     S
C61    H64     1.111   .     S
C61    H63     1.112   .     S
C61    H134    1.110   .     S
H62    C205    1.110   1_455 S
C73    O117    1.309   .     A
C73    C84     1.445   .     S
C73    O115    1.308   .     A
C74    O118    1.307   .     A
C74    C83     1.444   .     S
C74    O116    1.310   .     A
C75    C77     1.387   .     A
C75    H111    1.081   .     S
C75    C104    1.403   .     A
C76    C103    1.413   .     A
C76    C78     1.395   .     A
C76    H112    1.080   .     S
C77    N125    1.412   .     S
C77    C749    1.400   1_554 S
C78    N131    1.424   .     S
C78    C750    1.407   .     S
C79    C84     1.407   .     A
C79    I137    2.143   .     S
C79    C297    1.380   .     S
C80    I138    2.146   .     S
C80    C83     1.404   .     A
C80    C514    1.381   1_545 S
C81    I139    2.144   .     S
C81    C83     1.401   .     A
C81    C511    1.380   1_545 S
C82    I140    2.145   .     S
C82    C84     1.407   .     A
C82    C296    1.381   .     S
C85    I141    2.124   .     S
C85    N114    1.377   .     A
C85    C159    1.436   .     S
C86    I142    2.136   .     S
C86    N113    1.376   .     A
C87    I143    2.141   .     S
C87    N113    1.379   .     A
C88    I144    2.139   .     S
C88    N114    1.381   .     A
C88    C158    1.437   .     S
C89    C91     1.459   .     S
C89    O121    1.308   .     A
C89    O119    1.313   .     A
C90    O122    1.309   .     A
C90    C92     1.458   .     S
C90    O120    1.311   .     A
C91    C95     1.398   .     A
C91    C97     1.394   .     A
C92    C96     1.391   .     A
C92    C98     1.385   .     A
C93    C95     1.394   .     A
C93    H109    1.078   .     S
C93    C101    1.406   .     A
C94    C96     1.393   .     A
C94    H110    1.075   .     S
C94    C102    1.396   .     A
C95    H108    1.081   .     S
C96    H107    1.069   .     S
C97    H106    1.077   .     S
C97    C99     1.387   .     A
C98    H105    1.082   .     S
C98    C100    1.399   .     A
C99    C101    1.413   .     A
C99    C103    1.409   .     A
C100   C104    1.398   .     A
C100   C102    1.413   .     A
C101   C725    1.400   .     S
C102   C726    1.407   1_554 S
C103   C752    1.407   .     S
C104   C751    1.407   1_554 S
N113   Zn123   2.054   .     S
N114   Zn124   2.054   .     S
O115   Zn123   1.984   .     S
O116   Zn124   1.984   .     S
O117   Zn124   1.982   .     S
O118   Zn123   1.982   .     S
O119   Zn123   1.977   .     S
O120   Zn124   1.977   .     S
O121   Zn124   1.942   .     S
O122   Zn123   1.942   .     S
N125   H126    1.031   .     S
N125   C127    1.453   .     S
C127   H128    1.108   .     S
C127   H129    1.112   .     S
C127   H130    1.112   .     S
N131   H132    1.032   .     S
N131   C133    1.447   .     S
C133   H136    1.111   .     S
C133   H135    1.112   .     S
C133   H206    1.110   .     S
C145   O189    1.309   .     A
C145   C156    1.445   .     S
C145   O187    1.308   .     A
C146   O190    1.307   .     A
C146   C155    1.444   .     S
C146   O188    1.310   .     A
C147   C149    1.387   .     A
C147   H183    1.081   .     S
C147   C176    1.403   .     A
C148   C175    1.413   .     A
C148   C150    1.395   .     A
C148   H184    1.080   .     S
C149   N197    1.412   .     S
C149   C821    1.400   1_554 S
C150   N203    1.424   .     S
C150   C822    1.407   .     S
C151   C156    1.407   .     A
C151   I209    2.143   .     S
C151   C369    1.380   .     S
C152   I210    2.146   .     S
C152   C155    1.404   .     A
C152   C586    1.381   1_545 S
C153   I211    2.144   .     S
C153   C155    1.401   .     A
C153   C583    1.380   1_545 S
C154   I212    2.145   .     S
C154   C156    1.407   .     A
C154   C368    1.381   .     S
C157   I213    2.124   .     S
C157   N186    1.377   .     A
C157   C15     1.436   1_655 S
C158   I214    2.136   .     S
C158   N185    1.376   .     A
C159   I215    2.141   .     S
C159   N185    1.379   .     A
C160   I216    2.139   .     S
C160   N186    1.381   .     A
C160   C14     1.437   1_655 S
C161   C163    1.459   .     S
C161   O193    1.308   .     A
C161   O191    1.313   .     A
C162   O194    1.309   .     A
C162   C164    1.458   .     S
C162   O192    1.311   .     A
C163   C167    1.398   .     A
C163   C169    1.394   .     A
C164   C168    1.391   .     A
C164   C170    1.385   .     A
C165   C167    1.394   .     A
C165   H181    1.078   .     S
C165   C173    1.406   .     A
C166   C168    1.393   .     A
C166   H182    1.075   .     S
C166   C174    1.396   .     A
C167   H180    1.081   .     S
C168   H179    1.069   .     S
C169   H178    1.077   .     S
C169   C171    1.387   .     A
C170   H177    1.082   .     S
C170   C172    1.399   .     A
C171   C173    1.413   .     A
C171   C175    1.409   .     A
C172   C176    1.398   .     A
C172   C174    1.413   .     A
C173   C797    1.400   .     S
C174   C798    1.407   1_554 S
C175   C824    1.407   .     S
C176   C823    1.407   1_554 S
N185   Zn195   2.054   .     S
N186   Zn196   2.054   .     S
O187   Zn195   1.984   .     S
O188   Zn196   1.984   .     S
O189   Zn196   1.982   .     S
O190   Zn195   1.982   .     S
O191   Zn195   1.977   .     S
O192   Zn196   1.977   .     S
O193   Zn196   1.942   .     S
O194   Zn195   1.942   .     S
N197   H198    1.031   .     S
N197   C199    1.453   .     S
C199   H200    1.108   .     S
C199   H201    1.112   .     S
C199   H202    1.112   .     S
N203   H204    1.032   .     S
N203   C205    1.447   .     S
C205   H208    1.111   .     S
C205   H207    1.112   .     S
C205   H62     1.110   1_655 S
C217   O261    1.309   .     A
C217   C228    1.445   .     S
C217   O259    1.308   .     A
C218   O262    1.307   .     A
C218   C227    1.444   .     S
C218   O260    1.310   .     A
C219   C221    1.387   .     A
C219   H255    1.081   .     S
C219   C248    1.403   .     A
C220   C247    1.413   .     A
C220   C222    1.395   .     A
C220   H256    1.080   .     S
C221   N269    1.412   .     S
C221   C893    1.400   1_554 S
C222   N275    1.424   .     S
C222   C894    1.407   .     S
C223   C228    1.407   .     A
C223   I281    2.143   .     S
C223   C441    1.380   .     S
C224   I282    2.146   .     S
C224   C227    1.404   .     A
C225   I283    2.144   .     S
C225   C227    1.401   .     A
C226   I284    2.145   .     S
C226   C228    1.407   .     A
C226   C440    1.381   .     S
C229   I285    2.124   .     S
C229   N258    1.377   .     A
C229   C303    1.436   .     S
C230   I286    2.136   .     S
C230   N257    1.376   .     A
C230   C376    1.437   1_455 S
C231   I287    2.141   .     S
C231   N257    1.379   .     A
C231   C373    1.436   1_455 S
C232   I288    2.139   .     S
C232   N258    1.381   .     A
C232   C302    1.437   .     S
C233   C235    1.459   .     S
C233   O265    1.308   .     A
C233   O263    1.313   .     A
C234   O266    1.309   .     A
C234   C236    1.458   .     S
C234   O264    1.311   .     A
C235   C239    1.398   .     A
C235   C241    1.394   .     A
C236   C240    1.391   .     A
C236   C242    1.385   .     A
C237   C239    1.394   .     A
C237   H253    1.078   .     S
C237   C245    1.406   .     A
C238   C240    1.393   .     A
C238   H254    1.075   .     S
C238   C246    1.396   .     A
C239   H252    1.081   .     S
C240   H251    1.069   .     S
C241   H250    1.077   .     S
C241   C243    1.387   .     A
C242   H249    1.082   .     S
C242   C244    1.399   .     A
C243   C245    1.413   .     A
C243   C247    1.409   .     A
C244   C248    1.398   .     A
C244   C246    1.413   .     A
C245   C869    1.400   .     S
C246   C870    1.407   1_554 S
C247   C896    1.407   .     S
C248   C895    1.407   1_554 S
N257   Zn267   2.054   .     S
N258   Zn268   2.054   .     S
O259   Zn267   1.984   .     S
O260   Zn268   1.984   .     S
O261   Zn268   1.982   .     S
O262   Zn267   1.982   .     S
O263   Zn267   1.977   .     S
O264   Zn268   1.977   .     S
O265   Zn268   1.942   .     S
O266   Zn267   1.942   .     S
N269   H270    1.031   .     S
N269   C271    1.453   .     S
C271   H272    1.108   .     S
C271   H273    1.112   .     S
C271   H274    1.112   .     S
N275   H276    1.032   .     S
N275   C277    1.447   .     S
C277   H280    1.111   .     S
C277   H279    1.112   .     S
C277   H350    1.110   .     S
H278   C421    1.110   1_455 S
C289   O333    1.309   .     A
C289   C300    1.445   .     S
C289   O331    1.308   .     A
C290   O334    1.307   .     A
C290   C299    1.444   .     S
C290   O332    1.310   .     A
C291   C293    1.387   .     A
C291   H327    1.081   .     S
C291   C320    1.403   .     A
C292   C319    1.413   .     A
C292   C294    1.395   .     A
C292   H328    1.080   .     S
C293   N341    1.412   .     S
C293   C965    1.400   1_554 S
C294   N347    1.424   .     S
C294   C966    1.407   .     S
C295   C300    1.407   .     A
C295   I353    2.143   .     S
C295   C513    1.380   .     S
C296   I354    2.146   .     S
C296   C299    1.404   .     A
C297   I355    2.144   .     S
C297   C299    1.401   .     A
C298   I356    2.145   .     S
C298   C300    1.407   .     A
C298   C512    1.381   .     S
C301   I357    2.124   .     S
C301   N330    1.377   .     A
C301   C375    1.436   .     S
C302   I358    2.136   .     S
C302   N329    1.376   .     A
C303   I359    2.141   .     S
C303   N329    1.379   .     A
C304   I360    2.139   .     S
C304   N330    1.381   .     A
C304   C374    1.437   .     S
C305   C307    1.459   .     S
C305   O337    1.308   .     A
C305   O335    1.313   .     A
C306   O338    1.309   .     A
C306   C308    1.458   .     S
C306   O336    1.311   .     A
C307   C311    1.398   .     A
C307   C313    1.394   .     A
C308   C312    1.391   .     A
C308   C314    1.385   .     A
C309   C311    1.394   .     A
C309   H325    1.078   .     S
C309   C317    1.406   .     A
C310   C312    1.393   .     A
C310   H326    1.075   .     S
C310   C318    1.396   .     A
C311   H324    1.081   .     S
C312   H323    1.069   .     S
C313   H322    1.077   .     S
C313   C315    1.387   .     A
C314   H321    1.082   .     S
C314   C316    1.399   .     A
C315   C317    1.413   .     A
C315   C319    1.409   .     A
C316   C320    1.398   .     A
C316   C318    1.413   .     A
C317   C941    1.400   .     S
C318   C942    1.407   1_554 S
C319   C968    1.407   .     S
C320   C967    1.407   1_554 S
N329   Zn339   2.054   .     S
N330   Zn340   2.054   .     S
O331   Zn339   1.984   .     S
O332   Zn340   1.984   .     S
O333   Zn340   1.982   .     S
O334   Zn339   1.982   .     S
O335   Zn339   1.977   .     S
O336   Zn340   1.977   .     S
O337   Zn340   1.942   .     S
O338   Zn339   1.942   .     S
N341   H342    1.031   .     S
N341   C343    1.453   .     S
C343   H344    1.108   .     S
C343   H345    1.112   .     S
C343   H346    1.112   .     S
N347   H348    1.032   .     S
N347   C349    1.447   .     S
C349   H352    1.111   .     S
C349   H351    1.112   .     S
C349   H422    1.110   .     S
C361   O405    1.309   .     A
C361   C372    1.445   .     S
C361   O403    1.308   .     A
C362   O406    1.307   .     A
C362   C371    1.444   .     S
C362   O404    1.310   .     A
C363   C365    1.387   .     A
C363   H399    1.081   .     S
C363   C392    1.403   .     A
C364   C391    1.413   .     A
C364   C366    1.395   .     A
C364   H400    1.080   .     S
C365   N413    1.412   .     S
C365   C1037   1.400   1_554 S
C366   N419    1.424   .     S
C366   C1038   1.407   .     S
C367   C372    1.407   .     A
C367   I425    2.143   .     S
C367   C585    1.380   .     S
C368   I426    2.146   .     S
C368   C371    1.404   .     A
C369   I427    2.144   .     S
C369   C371    1.401   .     A
C370   I428    2.145   .     S
C370   C372    1.407   .     A
C370   C584    1.381   .     S
C373   I429    2.124   .     S
C373   N402    1.377   .     A
C373   C231    1.436   1_655 S
C374   I430    2.136   .     S
C374   N401    1.376   .     A
C375   I431    2.141   .     S
C375   N401    1.379   .     A
C376   I432    2.139   .     S
C376   N402    1.381   .     A
C376   C230    1.437   1_655 S
C377   C379    1.459   .     S
C377   O409    1.308   .     A
C377   O407    1.313   .     A
C378   O410    1.309   .     A
C378   C380    1.458   .     S
C378   O408    1.311   .     A
C379   C383    1.398   .     A
C379   C385    1.394   .     A
C380   C384    1.391   .     A
C380   C386    1.385   .     A
C381   C383    1.394   .     A
C381   H397    1.078   .     S
C381   C389    1.406   .     A
C382   C384    1.393   .     A
C382   H398    1.075   .     S
C382   C390    1.396   .     A
C383   H396    1.081   .     S
C384   H395    1.069   .     S
C385   H394    1.077   .     S
C385   C387    1.387   .     A
C386   H393    1.082   .     S
C386   C388    1.399   .     A
C387   C389    1.413   .     A
C387   C391    1.409   .     A
C388   C392    1.398   .     A
C388   C390    1.413   .     A
C389   C1013   1.400   .     S
C390   C1014   1.407   1_554 S
C391   C1040   1.407   .     S
C392   C1039   1.407   1_554 S
N401   Zn411   2.054   .     S
N402   Zn412   2.054   .     S
O403   Zn411   1.984   .     S
O404   Zn412   1.984   .     S
O405   Zn412   1.982   .     S
O406   Zn411   1.982   .     S
O407   Zn411   1.977   .     S
O408   Zn412   1.977   .     S
O409   Zn412   1.942   .     S
O410   Zn411   1.942   .     S
N413   H414    1.031   .     S
N413   C415    1.453   .     S
C415   H416    1.108   .     S
C415   H417    1.112   .     S
C415   H418    1.112   .     S
N419   H420    1.032   .     S
N419   C421    1.447   .     S
C421   H424    1.111   .     S
C421   H423    1.112   .     S
C421   H278    1.110   1_655 S
C433   O477    1.309   .     A
C433   C444    1.445   .     S
C433   O475    1.308   .     A
C434   O478    1.307   .     A
C434   C443    1.444   .     S
C434   O476    1.310   .     A
C435   C437    1.387   .     A
C435   H471    1.081   .     S
C435   C464    1.403   .     A
C436   C463    1.413   .     A
C436   C438    1.395   .     A
C436   H472    1.080   .     S
C437   N485    1.412   .     S
C437   C1109   1.400   1_554 S
C438   N491    1.424   .     S
C438   C1110   1.407   .     S
C439   C444    1.407   .     A
C439   I497    2.143   .     S
C439   C9      1.380   1_565 S
C440   I498    2.146   .     S
C440   C443    1.404   .     A
C441   I499    2.144   .     S
C441   C443    1.401   .     A
C442   I500    2.145   .     S
C442   C444    1.407   .     A
C442   C8      1.381   1_565 S
C445   I501    2.124   .     S
C445   N474    1.377   .     A
C445   C519    1.436   .     S
C446   I502    2.136   .     S
C446   N473    1.376   .     A
C446   C592    1.437   1_455 S
C447   I503    2.141   .     S
C447   N473    1.379   .     A
C447   C589    1.436   1_455 S
C448   I504    2.139   .     S
C448   N474    1.381   .     A
C448   C518    1.437   .     S
C449   C451    1.459   .     S
C449   O481    1.308   .     A
C449   O479    1.313   .     A
C450   O482    1.309   .     A
C450   C452    1.458   .     S
C450   O480    1.311   .     A
C451   C455    1.398   .     A
C451   C457    1.394   .     A
C452   C456    1.391   .     A
C452   C458    1.385   .     A
C453   C455    1.394   .     A
C453   H469    1.078   .     S
C453   C461    1.406   .     A
C454   C456    1.393   .     A
C454   H470    1.075   .     S
C454   C462    1.396   .     A
C455   H468    1.081   .     S
C456   H467    1.069   .     S
C457   H466    1.077   .     S
C457   C459    1.387   .     A
C458   H465    1.082   .     S
C458   C460    1.399   .     A
C459   C461    1.413   .     A
C459   C463    1.409   .     A
C460   C464    1.398   .     A
C460   C462    1.413   .     A
C461   C1085   1.400   .     S
C462   C1086   1.407   1_554 S
C463   C1112   1.407   .     S
C464   C1111   1.407   1_554 S
N473   Zn483   2.054   .     S
N474   Zn484   2.054   .     S
O475   Zn483   1.984   .     S
O476   Zn484   1.984   .     S
O477   Zn484   1.982   .     S
O478   Zn483   1.982   .     S
O479   Zn483   1.977   .     S
O480   Zn484   1.977   .     S
O481   Zn484   1.942   .     S
O482   Zn483   1.942   .     S
N485   H486    1.031   .     S
N485   C487    1.453   .     S
C487   H488    1.108   .     S
C487   H489    1.112   .     S
C487   H490    1.112   .     S
N491   H492    1.032   .     S
N491   C493    1.447   .     S
C493   H496    1.111   .     S
C493   H495    1.112   .     S
C493   H566    1.110   .     S
H494   C637    1.110   1_455 S
C505   O549    1.309   .     A
C505   C516    1.445   .     S
C505   O547    1.308   .     A
C506   O550    1.307   .     A
C506   C515    1.444   .     S
C506   O548    1.310   .     A
C507   C509    1.387   .     A
C507   H543    1.081   .     S
C507   C536    1.403   .     A
C508   C535    1.413   .     A
C508   C510    1.395   .     A
C508   H544    1.080   .     S
C509   N557    1.412   .     S
C509   C1181   1.400   1_554 S
C510   N563    1.424   .     S
C510   C1182   1.407   .     S
C511   C516    1.407   .     A
C511   I569    2.143   .     S
C511   C81     1.380   1_565 S
C512   I570    2.146   .     S
C512   C515    1.404   .     A
C513   I571    2.144   .     S
C513   C515    1.401   .     A
C514   I572    2.145   .     S
C514   C516    1.407   .     A
C514   C80     1.381   1_565 S
C517   I573    2.124   .     S
C517   N546    1.377   .     A
C517   C591    1.436   .     S
C518   I574    2.136   .     S
C518   N545    1.376   .     A
C519   I575    2.141   .     S
C519   N545    1.379   .     A
C520   I576    2.139   .     S
C520   N546    1.381   .     A
C520   C590    1.437   .     S
C521   C523    1.459   .     S
C521   O553    1.308   .     A
C521   O551    1.313   .     A
C522   O554    1.309   .     A
C522   C524    1.458   .     S
C522   O552    1.311   .     A
C523   C527    1.398   .     A
C523   C529    1.394   .     A
C524   C528    1.391   .     A
C524   C530    1.385   .     A
C525   C527    1.394   .     A
C525   H541    1.078   .     S
C525   C533    1.406   .     A
C526   C528    1.393   .     A
C526   H542    1.075   .     S
C526   C534    1.396   .     A
C527   H540    1.081   .     S
C528   H539    1.069   .     S
C529   H538    1.077   .     S
C529   C531    1.387   .     A
C530   H537    1.082   .     S
C530   C532    1.399   .     A
C531   C533    1.413   .     A
C531   C535    1.409   .     A
C532   C536    1.398   .     A
C532   C534    1.413   .     A
C533   C1157   1.400   .     S
C534   C1158   1.407   1_554 S
C535   C1184   1.407   .     S
C536   C1183   1.407   1_554 S
N545   Zn555   2.054   .     S
N546   Zn556   2.054   .     S
O547   Zn555   1.984   .     S
O548   Zn556   1.984   .     S
O549   Zn556   1.982   .     S
O550   Zn555   1.982   .     S
O551   Zn555   1.977   .     S
O552   Zn556   1.977   .     S
O553   Zn556   1.942   .     S
O554   Zn555   1.942   .     S
N557   H558    1.031   .     S
N557   C559    1.453   .     S
C559   H560    1.108   .     S
C559   H561    1.112   .     S
C559   H562    1.112   .     S
N563   H564    1.032   .     S
N563   C565    1.447   .     S
C565   H568    1.111   .     S
C565   H567    1.112   .     S
C565   H638    1.110   .     S
C577   O621    1.309   .     A
C577   C588    1.445   .     S
C577   O619    1.308   .     A
C578   O622    1.307   .     A
C578   C587    1.444   .     S
C578   O620    1.310   .     A
C579   C581    1.387   .     A
C579   H615    1.081   .     S
C579   C608    1.403   .     A
C580   C607    1.413   .     A
C580   C582    1.395   .     A
C580   H616    1.080   .     S
C581   N629    1.412   .     S
C581   C1253   1.400   1_554 S
C582   N635    1.424   .     S
C582   C1254   1.407   .     S
C583   C588    1.407   .     A
C583   I641    2.143   .     S
C583   C153    1.380   1_565 S
C584   I642    2.146   .     S
C584   C587    1.404   .     A
C585   I643    2.144   .     S
C585   C587    1.401   .     A
C586   I644    2.145   .     S
C586   C588    1.407   .     A
C586   C152    1.381   1_565 S
C589   I645    2.124   .     S
C589   N618    1.377   .     A
C589   C447    1.436   1_655 S
C590   I646    2.136   .     S
C590   N617    1.376   .     A
C591   I647    2.141   .     S
C591   N617    1.379   .     A
C592   I648    2.139   .     S
C592   N618    1.381   .     A
C592   C446    1.437   1_655 S
C593   C595    1.459   .     S
C593   O625    1.308   .     A
C593   O623    1.313   .     A
C594   O626    1.309   .     A
C594   C596    1.458   .     S
C594   O624    1.311   .     A
C595   C599    1.398   .     A
C595   C601    1.394   .     A
C596   C600    1.391   .     A
C596   C602    1.385   .     A
C597   C599    1.394   .     A
C597   H613    1.078   .     S
C597   C605    1.406   .     A
C598   C600    1.393   .     A
C598   H614    1.075   .     S
C598   C606    1.396   .     A
C599   H612    1.081   .     S
C600   H611    1.069   .     S
C601   H610    1.077   .     S
C601   C603    1.387   .     A
C602   H609    1.082   .     S
C602   C604    1.399   .     A
C603   C605    1.413   .     A
C603   C607    1.409   .     A
C604   C608    1.398   .     A
C604   C606    1.413   .     A
C605   C1229   1.400   .     S
C606   C1230   1.407   1_554 S
C607   C1256   1.407   .     S
C608   C1255   1.407   1_554 S
N617   Zn627   2.054   .     S
N618   Zn628   2.054   .     S
O619   Zn627   1.984   .     S
O620   Zn628   1.984   .     S
O621   Zn628   1.982   .     S
O622   Zn627   1.982   .     S
O623   Zn627   1.977   .     S
O624   Zn628   1.977   .     S
O625   Zn628   1.942   .     S
O626   Zn627   1.942   .     S
N629   H630    1.031   .     S
N629   C631    1.453   .     S
C631   H632    1.108   .     S
C631   H633    1.112   .     S
C631   H634    1.112   .     S
N635   H636    1.032   .     S
N635   C637    1.447   .     S
C637   H640    1.111   .     S
C637   H639    1.112   .     S
C637   H494    1.110   1_655 S
C649   O693    1.309   .     A
C649   C660    1.445   .     S
C649   O691    1.308   .     A
C650   O694    1.307   .     A
C650   C659    1.444   .     S
C650   O692    1.310   .     A
C651   C653    1.387   .     A
C651   H687    1.081   .     S
C651   C680    1.403   .     A
C652   C679    1.413   .     A
C652   C654    1.395   .     A
C652   H688    1.080   .     S
C653   N701    1.412   .     S
C654   N707    1.424   .     S
C654   C30     1.407   1_556 S
C655   C660    1.407   .     A
C655   I713    2.143   .     S
C655   C873    1.380   .     S
C656   I714    2.146   .     S
C656   C659    1.404   .     A
C656   C1090   1.381   1_545 S
C657   I715    2.144   .     S
C657   C659    1.401   .     A
C657   C1087   1.380   1_545 S
C658   I716    2.145   .     S
C658   C660    1.407   .     A
C658   C872    1.381   .     S
C661   I717    2.124   .     S
C661   N690    1.377   .     A
C661   C735    1.436   .     S
C662   I718    2.136   .     S
C662   N689    1.376   .     A
C662   C808    1.437   1_455 S
C663   I719    2.141   .     S
C663   N689    1.379   .     A
C663   C805    1.436   1_455 S
C664   I720    2.139   .     S
C664   N690    1.381   .     A
C664   C734    1.437   .     S
C665   C667    1.459   .     S
C665   O697    1.308   .     A
C665   O695    1.313   .     A
C666   O698    1.309   .     A
C666   C668    1.458   .     S
C666   O696    1.311   .     A
C667   C671    1.398   .     A
C667   C673    1.394   .     A
C668   C672    1.391   .     A
C668   C674    1.385   .     A
C669   C671    1.394   .     A
C669   H685    1.078   .     S
C669   C677    1.406   .     A
C670   C672    1.393   .     A
C670   H686    1.075   .     S
C670   C678    1.396   .     A
C671   H684    1.081   .     S
C672   H683    1.069   .     S
C673   H682    1.077   .     S
C673   C675    1.387   .     A
C674   H681    1.082   .     S
C674   C676    1.399   .     A
C675   C677    1.413   .     A
C675   C679    1.409   .     A
C676   C680    1.398   .     A
C676   C678    1.413   .     A
C677   C5      1.400   1_556 S
C679   C32     1.407   1_556 S
N689   Zn699   2.054   .     S
N690   Zn700   2.054   .     S
O691   Zn699   1.984   .     S
O692   Zn700   1.984   .     S
O693   Zn700   1.982   .     S
O694   Zn699   1.982   .     S
O695   Zn699   1.977   .     S
O696   Zn700   1.977   .     S
O697   Zn700   1.942   .     S
O698   Zn699   1.942   .     S
N701   H702    1.031   .     S
N701   C703    1.453   .     S
C703   H704    1.108   .     S
C703   H705    1.112   .     S
C703   H706    1.112   .     S
N707   H708    1.032   .     S
N707   C709    1.447   .     S
C709   H712    1.111   .     S
C709   H711    1.112   .     S
C709   H782    1.110   .     S
H710   C853    1.110   1_455 S
C721   O765    1.309   .     A
C721   C732    1.445   .     S
C721   O763    1.308   .     A
C722   O766    1.307   .     A
C722   C731    1.444   .     S
C722   O764    1.310   .     A
C723   C725    1.387   .     A
C723   H759    1.081   .     S
C723   C752    1.403   .     A
C724   C751    1.413   .     A
C724   C726    1.395   .     A
C724   H760    1.080   .     S
C725   N773    1.412   .     S
C726   N779    1.424   .     S
C726   C102    1.407   1_556 S
C727   C732    1.407   .     A
C727   I785    2.143   .     S
C727   C945    1.380   .     S
C728   I786    2.146   .     S
C728   C731    1.404   .     A
C728   C1162   1.381   1_545 S
C729   I787    2.144   .     S
C729   C731    1.401   .     A
C729   C1159   1.380   1_545 S
C730   I788    2.145   .     S
C730   C732    1.407   .     A
C730   C944    1.381   .     S
C733   I789    2.124   .     S
C733   N762    1.377   .     A
C733   C807    1.436   .     S
C734   I790    2.136   .     S
C734   N761    1.376   .     A
C735   I791    2.141   .     S
C735   N761    1.379   .     A
C736   I792    2.139   .     S
C736   N762    1.381   .     A
C736   C806    1.437   .     S
C737   C739    1.459   .     S
C737   O769    1.308   .     A
C737   O767    1.313   .     A
C738   O770    1.309   .     A
C738   C740    1.458   .     S
C738   O768    1.311   .     A
C739   C743    1.398   .     A
C739   C745    1.394   .     A
C740   C744    1.391   .     A
C740   C746    1.385   .     A
C741   C743    1.394   .     A
C741   H757    1.078   .     S
C741   C749    1.406   .     A
C742   C744    1.393   .     A
C742   H758    1.075   .     S
C742   C750    1.396   .     A
C743   H756    1.081   .     S
C744   H755    1.069   .     S
C745   H754    1.077   .     S
C745   C747    1.387   .     A
C746   H753    1.082   .     S
C746   C748    1.399   .     A
C747   C749    1.413   .     A
C747   C751    1.409   .     A
C748   C752    1.398   .     A
C748   C750    1.413   .     A
C749   C77     1.400   1_556 S
C751   C104    1.407   1_556 S
N761   Zn771   2.054   .     S
N762   Zn772   2.054   .     S
O763   Zn771   1.984   .     S
O764   Zn772   1.984   .     S
O765   Zn772   1.982   .     S
O766   Zn771   1.982   .     S
O767   Zn771   1.977   .     S
O768   Zn772   1.977   .     S
O769   Zn772   1.942   .     S
O770   Zn771   1.942   .     S
N773   H774    1.031   .     S
N773   C775    1.453   .     S
C775   H776    1.108   .     S
C775   H777    1.112   .     S
C775   H778    1.112   .     S
N779   H780    1.032   .     S
N779   C781    1.447   .     S
C781   H784    1.111   .     S
C781   H783    1.112   .     S
C781   H854    1.110   .     S
C793   O837    1.309   .     A
C793   C804    1.445   .     S
C793   O835    1.308   .     A
C794   O838    1.307   .     A
C794   C803    1.444   .     S
C794   O836    1.310   .     A
C795   C797    1.387   .     A
C795   H831    1.081   .     S
C795   C824    1.403   .     A
C796   C823    1.413   .     A
C796   C798    1.395   .     A
C796   H832    1.080   .     S
C797   N845    1.412   .     S
C798   N851    1.424   .     S
C798   C174    1.407   1_556 S
C799   C804    1.407   .     A
C799   I857    2.143   .     S
C799   C1017   1.380   .     S
C800   I858    2.146   .     S
C800   C803    1.404   .     A
C800   C1234   1.381   1_545 S
C801   I859    2.144   .     S
C801   C803    1.401   .     A
C801   C1231   1.380   1_545 S
C802   I860    2.145   .     S
C802   C804    1.407   .     A
C802   C1016   1.381   .     S
C805   I861    2.124   .     S
C805   N834    1.377   .     A
C805   C663    1.436   1_655 S
C806   I862    2.136   .     S
C806   N833    1.376   .     A
C807   I863    2.141   .     S
C807   N833    1.379   .     A
C808   I864    2.139   .     S
C808   N834    1.381   .     A
C808   C662    1.437   1_655 S
C809   C811    1.459   .     S
C809   O841    1.308   .     A
C809   O839    1.313   .     A
C810   O842    1.309   .     A
C810   C812    1.458   .     S
C810   O840    1.311   .     A
C811   C815    1.398   .     A
C811   C817    1.394   .     A
C812   C816    1.391   .     A
C812   C818    1.385   .     A
C813   C815    1.394   .     A
C813   H829    1.078   .     S
C813   C821    1.406   .     A
C814   C816    1.393   .     A
C814   H830    1.075   .     S
C814   C822    1.396   .     A
C815   H828    1.081   .     S
C816   H827    1.069   .     S
C817   H826    1.077   .     S
C817   C819    1.387   .     A
C818   H825    1.082   .     S
C818   C820    1.399   .     A
C819   C821    1.413   .     A
C819   C823    1.409   .     A
C820   C824    1.398   .     A
C820   C822    1.413   .     A
C821   C149    1.400   1_556 S
C823   C176    1.407   1_556 S
N833   Zn843   2.054   .     S
N834   Zn844   2.054   .     S
O835   Zn843   1.984   .     S
O836   Zn844   1.984   .     S
O837   Zn844   1.982   .     S
O838   Zn843   1.982   .     S
O839   Zn843   1.977   .     S
O840   Zn844   1.977   .     S
O841   Zn844   1.942   .     S
O842   Zn843   1.942   .     S
N845   H846    1.031   .     S
N845   C847    1.453   .     S
C847   H848    1.108   .     S
C847   H849    1.112   .     S
C847   H850    1.112   .     S
N851   H852    1.032   .     S
N851   C853    1.447   .     S
C853   H856    1.111   .     S
C853   H855    1.112   .     S
C853   H710    1.110   1_655 S
C865   O909    1.309   .     A
C865   C876    1.445   .     S
C865   O907    1.308   .     A
C866   O910    1.307   .     A
C866   C875    1.444   .     S
C866   O908    1.310   .     A
C867   C869    1.387   .     A
C867   H903    1.081   .     S
C867   C896    1.403   .     A
C868   C895    1.413   .     A
C868   C870    1.395   .     A
C868   H904    1.080   .     S
C869   N917    1.412   .     S
C870   N923    1.424   .     S
C870   C246    1.407   1_556 S
C871   C876    1.407   .     A
C871   I929    2.143   .     S
C871   C1089   1.380   .     S
C872   I930    2.146   .     S
C872   C875    1.404   .     A
C873   I931    2.144   .     S
C873   C875    1.401   .     A
C874   I932    2.145   .     S
C874   C876    1.407   .     A
C874   C1088   1.381   .     S
C877   I933    2.124   .     S
C877   N906    1.377   .     A
C877   C951    1.436   .     S
C878   I934    2.136   .     S
C878   N905    1.376   .     A
C878   C1024   1.437   1_455 S
C879   I935    2.141   .     S
C879   N905    1.379   .     A
C879   C1021   1.436   1_455 S
C880   I936    2.139   .     S
C880   N906    1.381   .     A
C880   C950    1.437   .     S
C881   C883    1.459   .     S
C881   O913    1.308   .     A
C881   O911    1.313   .     A
C882   O914    1.309   .     A
C882   C884    1.458   .     S
C882   O912    1.311   .     A
C883   C887    1.398   .     A
C883   C889    1.394   .     A
C884   C888    1.391   .     A
C884   C890    1.385   .     A
C885   C887    1.394   .     A
C885   H901    1.078   .     S
C885   C893    1.406   .     A
C886   C888    1.393   .     A
C886   H902    1.075   .     S
C886   C894    1.396   .     A
C887   H900    1.081   .     S
C888   H899    1.069   .     S
C889   H898    1.077   .     S
C889   C891    1.387   .     A
C890   H897    1.082   .     S
C890   C892    1.399   .     A
C891   C893    1.413   .     A
C891   C895    1.409   .     A
C892   C896    1.398   .     A
C892   C894    1.413   .     A
C893   C221    1.400   1_556 S
C895   C248    1.407   1_556 S
N905   Zn915   2.054   .     S
N906   Zn916   2.054   .     S
O907   Zn915   1.984   .     S
O908   Zn916   1.984   .     S
O909   Zn916   1.982   .     S
O910   Zn915   1.982   .     S
O911   Zn915   1.977   .     S
O912   Zn916   1.977   .     S
O913   Zn916   1.942   .     S
O914   Zn915   1.942   .     S
N917   H918    1.031   .     S
N917   C919    1.453   .     S
C919   H920    1.108   .     S
C919   H921    1.112   .     S
C919   H922    1.112   .     S
N923   H924    1.032   .     S
N923   C925    1.447   .     S
C925   H928    1.111   .     S
C925   H927    1.112   .     S
C925   H998    1.110   .     S
H926   C1069   1.110   1_455 S
C937   O981    1.309   .     A
C937   C948    1.445   .     S
C937   O979    1.308   .     A
C938   O982    1.307   .     A
C938   C947    1.444   .     S
C938   O980    1.310   .     A
C939   C941    1.387   .     A
C939   H975    1.081   .     S
C939   C968    1.403   .     A
C940   C967    1.413   .     A
C940   C942    1.395   .     A
C940   H976    1.080   .     S
C941   N989    1.412   .     S
C942   N995    1.424   .     S
C942   C318    1.407   1_556 S
C943   C948    1.407   .     A
C943   I1001   2.143   .     S
C943   C1161   1.380   .     S
C944   I1002   2.146   .     S
C944   C947    1.404   .     A
C945   I1003   2.144   .     S
C945   C947    1.401   .     A
C946   I1004   2.145   .     S
C946   C948    1.407   .     A
C946   C1160   1.381   .     S
C949   I1005   2.124   .     S
C949   N978    1.377   .     A
C949   C1023   1.436   .     S
C950   I1006   2.136   .     S
C950   N977    1.376   .     A
C951   I1007   2.141   .     S
C951   N977    1.379   .     A
C952   I1008   2.139   .     S
C952   N978    1.381   .     A
C952   C1022   1.437   .     S
C953   C955    1.459   .     S
C953   O985    1.308   .     A
C953   O983    1.313   .     A
C954   O986    1.309   .     A
C954   C956    1.458   .     S
C954   O984    1.311   .     A
C955   C959    1.398   .     A
C955   C961    1.394   .     A
C956   C960    1.391   .     A
C956   C962    1.385   .     A
C957   C959    1.394   .     A
C957   H973    1.078   .     S
C957   C965    1.406   .     A
C958   C960    1.393   .     A
C958   H974    1.075   .     S
C958   C966    1.396   .     A
C959   H972    1.081   .     S
C960   H971    1.069   .     S
C961   H970    1.077   .     S
C961   C963    1.387   .     A
C962   H969    1.082   .     S
C962   C964    1.399   .     A
C963   C965    1.413   .     A
C963   C967    1.409   .     A
C964   C968    1.398   .     A
C964   C966    1.413   .     A
C965   C293    1.400   1_556 S
C967   C320    1.407   1_556 S
N977   Zn987   2.054   .     S
N978   Zn988   2.054   .     S
O979   Zn987   1.984   .     S
O980   Zn988   1.984   .     S
O981   Zn988   1.982   .     S
O982   Zn987   1.982   .     S
O983   Zn987   1.977   .     S
O984   Zn988   1.977   .     S
O985   Zn988   1.942   .     S
O986   Zn987   1.942   .     S
N989   H990    1.031   .     S
N989   C991    1.453   .     S
C991   H992    1.108   .     S
C991   H993    1.112   .     S
C991   H994    1.112   .     S
N995   H996    1.032   .     S
N995   C997    1.447   .     S
C997   H1000   1.111   .     S
C997   H999    1.112   .     S
C997   H1070   1.110   .     S
C1009  O1053   1.309   .     A
C1009  C1020   1.445   .     S
C1009  O1051   1.308   .     A
C1010  O1054   1.307   .     A
C1010  C1019   1.444   .     S
C1010  O1052   1.310   .     A
C1011  C1013   1.387   .     A
C1011  H1047   1.081   .     S
C1011  C1040   1.403   .     A
C1012  C1039   1.413   .     A
C1012  C1014   1.395   .     A
C1012  H1048   1.080   .     S
C1013  N1061   1.412   .     S
C1014  N1067   1.424   .     S
C1014  C390    1.407   1_556 S
C1015  C1020   1.407   .     A
C1015  I1073   2.143   .     S
C1015  C1233   1.380   .     S
C1016  I1074   2.146   .     S
C1016  C1019   1.404   .     A
C1017  I1075   2.144   .     S
C1017  C1019   1.401   .     A
C1018  I1076   2.145   .     S
C1018  C1020   1.407   .     A
C1018  C1232   1.381   .     S
C1021  I1077   2.124   .     S
C1021  N1050   1.377   .     A
C1021  C879    1.436   1_655 S
C1022  I1078   2.136   .     S
C1022  N1049   1.376   .     A
C1023  I1079   2.141   .     S
C1023  N1049   1.379   .     A
C1024  I1080   2.139   .     S
C1024  N1050   1.381   .     A
C1024  C878    1.437   1_655 S
C1025  C1027   1.459   .     S
C1025  O1057   1.308   .     A
C1025  O1055   1.313   .     A
C1026  O1058   1.309   .     A
C1026  C1028   1.458   .     S
C1026  O1056   1.311   .     A
C1027  C1031   1.398   .     A
C1027  C1033   1.394   .     A
C1028  C1032   1.391   .     A
C1028  C1034   1.385   .     A
C1029  C1031   1.394   .     A
C1029  H1045   1.078   .     S
C1029  C1037   1.406   .     A
C1030  C1032   1.393   .     A
C1030  H1046   1.075   .     S
C1030  C1038   1.396   .     A
C1031  H1044   1.081   .     S
C1032  H1043   1.069   .     S
C1033  H1042   1.077   .     S
C1033  C1035   1.387   .     A
C1034  H1041   1.082   .     S
C1034  C1036   1.399   .     A
C1035  C1037   1.413   .     A
C1035  C1039   1.409   .     A
C1036  C1040   1.398   .     A
C1036  C1038   1.413   .     A
C1037  C365    1.400   1_556 S
C1039  C392    1.407   1_556 S
N1049  Zn1059  2.054   .     S
N1050  Zn1060  2.054   .     S
O1051  Zn1059  1.984   .     S
O1052  Zn1060  1.984   .     S
O1053  Zn1060  1.982   .     S
O1054  Zn1059  1.982   .     S
O1055  Zn1059  1.977   .     S
O1056  Zn1060  1.977   .     S
O1057  Zn1060  1.942   .     S
O1058  Zn1059  1.942   .     S
N1061  H1062   1.031   .     S
N1061  C1063   1.453   .     S
C1063  H1064   1.108   .     S
C1063  H1065   1.112   .     S
C1063  H1066   1.112   .     S
N1067  H1068   1.032   .     S
N1067  C1069   1.447   .     S
C1069  H1072   1.111   .     S
C1069  H1071   1.112   .     S
C1069  H926    1.110   1_655 S
C1081  O1125   1.309   .     A
C1081  C1092   1.445   .     S
C1081  O1123   1.308   .     A
C1082  O1126   1.307   .     A
C1082  C1091   1.444   .     S
C1082  O1124   1.310   .     A
C1083  C1085   1.387   .     A
C1083  H1119   1.081   .     S
C1083  C1112   1.403   .     A
C1084  C1111   1.413   .     A
C1084  C1086   1.395   .     A
C1084  H1120   1.080   .     S
C1085  N1133   1.412   .     S
C1086  N1139   1.424   .     S
C1086  C462    1.407   1_556 S
C1087  C1092   1.407   .     A
C1087  I1145   2.143   .     S
C1087  C657    1.380   1_565 S
C1088  I1146   2.146   .     S
C1088  C1091   1.404   .     A
C1089  I1147   2.144   .     S
C1089  C1091   1.401   .     A
C1090  I1148   2.145   .     S
C1090  C1092   1.407   .     A
C1090  C656    1.381   1_565 S
C1093  I1149   2.124   .     S
C1093  N1122   1.377   .     A
C1093  C1167   1.436   .     S
C1094  I1150   2.136   .     S
C1094  N1121   1.376   .     A
C1094  C1240   1.437   1_455 S
C1095  I1151   2.141   .     S
C1095  N1121   1.379   .     A
C1095  C1237   1.436   1_455 S
C1096  I1152   2.139   .     S
C1096  N1122   1.381   .     A
C1096  C1166   1.437   .     S
C1097  C1099   1.459   .     S
C1097  O1129   1.308   .     A
C1097  O1127   1.313   .     A
C1098  O1130   1.309   .     A
C1098  C1100   1.458   .     S
C1098  O1128   1.311   .     A
C1099  C1103   1.398   .     A
C1099  C1105   1.394   .     A
C1100  C1104   1.391   .     A
C1100  C1106   1.385   .     A
C1101  C1103   1.394   .     A
C1101  H1117   1.078   .     S
C1101  C1109   1.406   .     A
C1102  C1104   1.393   .     A
C1102  H1118   1.075   .     S
C1102  C1110   1.396   .     A
C1103  H1116   1.081   .     S
C1104  H1115   1.069   .     S
C1105  H1114   1.077   .     S
C1105  C1107   1.387   .     A
C1106  H1113   1.082   .     S
C1106  C1108   1.399   .     A
C1107  C1109   1.413   .     A
C1107  C1111   1.409   .     A
C1108  C1112   1.398   .     A
C1108  C1110   1.413   .     A
C1109  C437    1.400   1_556 S
C1111  C464    1.407   1_556 S
N1121  Zn1131  2.054   .     S
N1122  Zn1132  2.054   .     S
O1123  Zn1131  1.984   .     S
O1124  Zn1132  1.984   .     S
O1125  Zn1132  1.982   .     S
O1126  Zn1131  1.982   .     S
O1127  Zn1131  1.977   .     S
O1128  Zn1132  1.977   .     S
O1129  Zn1132  1.942   .     S
O1130  Zn1131  1.942   .     S
N1133  H1134   1.031   .     S
N1133  C1135   1.453   .     S
C1135  H1136   1.108   .     S
C1135  H1137   1.112   .     S
C1135  H1138   1.112   .     S
N1139  H1140   1.032   .     S
N1139  C1141   1.447   .     S
C1141  H1144   1.111   .     S
C1141  H1143   1.112   .     S
C1141  H1214   1.110   .     S
H1142  C1285   1.110   1_455 S
C1153  O1197   1.309   .     A
C1153  C1164   1.445   .     S
C1153  O1195   1.308   .     A
C1154  O1198   1.307   .     A
C1154  C1163   1.444   .     S
C1154  O1196   1.310   .     A
C1155  C1157   1.387   .     A
C1155  H1191   1.081   .     S
C1155  C1184   1.403   .     A
C1156  C1183   1.413   .     A
C1156  C1158   1.395   .     A
C1156  H1192   1.080   .     S
C1157  N1205   1.412   .     S
C1158  N1211   1.424   .     S
C1158  C534    1.407   1_556 S
C1159  C1164   1.407   .     A
C1159  I1217   2.143   .     S
C1159  C729    1.380   1_565 S
C1160  I1218   2.146   .     S
C1160  C1163   1.404   .     A
C1161  I1219   2.144   .     S
C1161  C1163   1.401   .     A
C1162  I1220   2.145   .     S
C1162  C1164   1.407   .     A
C1162  C728    1.381   1_565 S
C1165  I1221   2.124   .     S
C1165  N1194   1.377   .     A
C1165  C1239   1.436   .     S
C1166  I1222   2.136   .     S
C1166  N1193   1.376   .     A
C1167  I1223   2.141   .     S
C1167  N1193   1.379   .     A
C1168  I1224   2.139   .     S
C1168  N1194   1.381   .     A
C1168  C1238   1.437   .     S
C1169  C1171   1.459   .     S
C1169  O1201   1.308   .     A
C1169  O1199   1.313   .     A
C1170  O1202   1.309   .     A
C1170  C1172   1.458   .     S
C1170  O1200   1.311   .     A
C1171  C1175   1.398   .     A
C1171  C1177   1.394   .     A
C1172  C1176   1.391   .     A
C1172  C1178   1.385   .     A
C1173  C1175   1.394   .     A
C1173  H1189   1.078   .     S
C1173  C1181   1.406   .     A
C1174  C1176   1.393   .     A
C1174  H1190   1.075   .     S
C1174  C1182   1.396   .     A
C1175  H1188   1.081   .     S
C1176  H1187   1.069   .     S
C1177  H1186   1.077   .     S
C1177  C1179   1.387   .     A
C1178  H1185   1.082   .     S
C1178  C1180   1.399   .     A
C1179  C1181   1.413   .     A
C1179  C1183   1.409   .     A
C1180  C1184   1.398   .     A
C1180  C1182   1.413   .     A
C1181  C509    1.400   1_556 S
C1183  C536    1.407   1_556 S
N1193  Zn1203  2.054   .     S
N1194  Zn1204  2.054   .     S
O1195  Zn1203  1.984   .     S
O1196  Zn1204  1.984   .     S
O1197  Zn1204  1.982   .     S
O1198  Zn1203  1.982   .     S
O1199  Zn1203  1.977   .     S
O1200  Zn1204  1.977   .     S
O1201  Zn1204  1.942   .     S
O1202  Zn1203  1.942   .     S
N1205  H1206   1.031   .     S
N1205  C1207   1.453   .     S
C1207  H1208   1.108   .     S
C1207  H1209   1.112   .     S
C1207  H1210   1.112   .     S
N1211  H1212   1.032   .     S
N1211  C1213   1.447   .     S
C1213  H1216   1.111   .     S
C1213  H1215   1.112   .     S
C1213  H1286   1.110   .     S
C1225  O1269   1.309   .     A
C1225  C1236   1.445   .     S
C1225  O1267   1.308   .     A
C1226  O1270   1.307   .     A
C1226  C1235   1.444   .     S
C1226  O1268   1.310   .     A
C1227  C1229   1.387   .     A
C1227  H1263   1.081   .     S
C1227  C1256   1.403   .     A
C1228  C1255   1.413   .     A
C1228  C1230   1.395   .     A
C1228  H1264   1.080   .     S
C1229  N1277   1.412   .     S
C1230  N1283   1.424   .     S
C1230  C606    1.407   1_556 S
C1231  C1236   1.407   .     A
C1231  I1289   2.143   .     S
C1231  C801    1.380   1_565 S
C1232  I1290   2.146   .     S
C1232  C1235   1.404   .     A
C1233  I1291   2.144   .     S
C1233  C1235   1.401   .     A
C1234  I1292   2.145   .     S
C1234  C1236   1.407   .     A
C1234  C800    1.381   1_565 S
C1237  I1293   2.124   .     S
C1237  N1266   1.377   .     A
C1237  C1095   1.436   1_655 S
C1238  I1294   2.136   .     S
C1238  N1265   1.376   .     A
C1239  I1295   2.141   .     S
C1239  N1265   1.379   .     A
C1240  I1296   2.139   .     S
C1240  N1266   1.381   .     A
C1240  C1094   1.437   1_655 S
C1241  C1243   1.459   .     S
C1241  O1273   1.308   .     A
C1241  O1271   1.313   .     A
C1242  O1274   1.309   .     A
C1242  C1244   1.458   .     S
C1242  O1272   1.311   .     A
C1243  C1247   1.398   .     A
C1243  C1249   1.394   .     A
C1244  C1248   1.391   .     A
C1244  C1250   1.385   .     A
C1245  C1247   1.394   .     A
C1245  H1261   1.078   .     S
C1245  C1253   1.406   .     A
C1246  C1248   1.393   .     A
C1246  H1262   1.075   .     S
C1246  C1254   1.396   .     A
C1247  H1260   1.081   .     S
C1248  H1259   1.069   .     S
C1249  H1258   1.077   .     S
C1249  C1251   1.387   .     A
C1250  H1257   1.082   .     S
C1250  C1252   1.399   .     A
C1251  C1253   1.413   .     A
C1251  C1255   1.409   .     A
C1252  C1256   1.398   .     A
C1252  C1254   1.413   .     A
C1253  C581    1.400   1_556 S
C1255  C608    1.407   1_556 S
N1265  Zn1275  2.054   .     S
N1266  Zn1276  2.054   .     S
O1267  Zn1275  1.984   .     S
O1268  Zn1276  1.984   .     S
O1269  Zn1276  1.982   .     S
O1270  Zn1275  1.982   .     S
O1271  Zn1275  1.977   .     S
O1272  Zn1276  1.977   .     S
O1273  Zn1276  1.942   .     S
O1274  Zn1275  1.942   .     S
N1277  H1278   1.031   .     S
N1277  C1279   1.453   .     S
C1279  H1280   1.108   .     S
C1279  H1281   1.112   .     S
C1279  H1282   1.112   .     S
N1283  H1284   1.032   .     S
N1283  C1285   1.447   .     S
C1285  H1288   1.111   .     S
C1285  H1287   1.112   .     S
C1285  H1142   1.110   1_655 S
