data_str_m3_o1_o10_pcu_sym.192
_audit_creation_date              2020-01-03
_audit_creation_method            'Materials Studio'
_symmetry_space_group_name_H-M    'P1'
_symmetry_Int_Tables_number       1
_symmetry_cell_setting            triclinic
loop_
_symmetry_equiv_pos_as_xyz
  x,y,z
_cell_length_a                    25.7441
_cell_length_b                    31.9219
_cell_length_c                    29.6093
_cell_angle_alpha                 90.0384
_cell_angle_beta                  98.9205
_cell_angle_gamma                 90.1642
loop_
_atom_site_label
_atom_site_type_symbol
_atom_site_fract_x
_atom_site_fract_y
_atom_site_fract_z
_atom_site_U_iso_or_equiv
_atom_site_adp_type
_atom_site_occupancy
C1     C     0.16551   0.08676   0.16650   0.00000  Uiso   1.00
C2     C     0.16782   0.24658   0.16684   0.00000  Uiso   1.00
C3     C     0.06703   0.16665   0.15465   0.00000  Uiso   1.00
C4     C     0.26631   0.16668   0.17869   0.00000  Uiso   1.00
C5     C     0.01190   0.16671   0.14823   0.00000  Uiso   1.00
C6     C     0.32143   0.16662   0.18510   0.00000  Uiso   1.00
C7     C     0.20179   0.02234   0.14409   0.00000  Uiso   1.00
C8     C     0.13154   0.31100   0.18924   0.00000  Uiso   1.00
C9     C     0.20377   0.31267   0.14436   0.00000  Uiso   1.00
C10    C     0.12957   0.02066   0.18897   0.00000  Uiso   1.00
C11    C     0.16821   0.29070   0.16691   0.00000  Uiso   1.00
C12    C     0.16513   0.04263   0.16642   0.00000  Uiso   1.00
C13    C     0.19865   0.19321   0.02843   0.00000  Uiso   1.00
C14    C     0.13469   0.14012   0.30491   0.00000  Uiso   1.00
C15    C     0.19913   0.19309   0.31380   0.00000  Uiso   1.00
C16    C     0.13421   0.14025   0.01953   0.00000  Uiso   1.00
H17    H     0.32442   0.16686   0.11332   0.00000  Uiso   1.00
H18    H     0.00892   0.16647   0.22001   0.00000  Uiso   1.00
H19    H     0.22944   0.03999   0.12737   0.00000  Uiso   1.00
H20    H     0.10389   0.29334   0.20597   0.00000  Uiso   1.00
H21    H     0.22411   0.21439   0.05025   0.00000  Uiso   1.00
H22    H     0.10922   0.11894   0.28308   0.00000  Uiso   1.00
N23    N     0.16665   0.16666   0.28573   0.00000  Uiso   1.00
N24    N     0.16668   0.16668   0.04760   0.00000  Uiso   1.00
O25    O     0.16666   0.10558   0.20487   0.00000  Uiso   1.00
O26    O     0.16667   0.22775   0.12846   0.00000  Uiso   1.00
O27    O     0.16666   0.10559   0.12843   0.00000  Uiso   1.00
O28    O     0.16667   0.22774   0.20490   0.00000  Uiso   1.00
O29    O     0.09058   0.16666   0.19595   0.00000  Uiso   1.00
O30    O     0.24275   0.16667   0.13739   0.00000  Uiso   1.00
O31    O     0.09058   0.16667   0.11950   0.00000  Uiso   1.00
O32    O     0.24275   0.16666   0.21383   0.00000  Uiso   1.00
Zn33   Zn    0.16667   0.16666   0.21771   0.00000  Uiso   1.00
Zn34   Zn    0.16667   0.16667   0.11563   0.00000  Uiso   1.00
Cl35   Cl    0.25269   0.28776   0.11841   0.00000  Uiso   1.00
Cl36   Cl    0.08064   0.04558   0.21492   0.00000  Uiso   1.00
N37    N     0.23283   0.22087   0.29464   0.00000  Uiso   1.00
H38    H     0.22570   0.25185   0.30142   0.00000  Uiso   1.00
C39    C     0.28812   0.21079   0.30553   0.00000  Uiso   1.00
H40    H     0.30253   0.21641   0.00906   0.00000  Uiso   1.00
H41    H     0.31088   0.23093   0.28504   0.00000  Uiso   1.00
H42    H     0.29501   0.17753   0.29720   0.00000  Uiso   1.00
N43    N     0.10050   0.11246   0.03869   0.00000  Uiso   1.00
H44    H     0.10763   0.08149   0.03191   0.00000  Uiso   1.00
C45    C     0.04521   0.12254   0.02781   0.00000  Uiso   1.00
H46    H     0.03080   0.11693   0.32427   0.00000  Uiso   1.00
H47    H     0.03832   0.15580   0.03614   0.00000  Uiso   1.00
H48    H     0.02246   0.10240   0.04829   0.00000  Uiso   1.00
C49    C     0.49885   0.08676   0.16650   0.00000  Uiso   1.00
C50    C     0.50115   0.24658   0.16684   0.00000  Uiso   1.00
C51    C     0.40036   0.16665   0.15465   0.00000  Uiso   1.00
C52    C     0.59964   0.16668   0.17869   0.00000  Uiso   1.00
C53    C     0.34524   0.16671   0.14823   0.00000  Uiso   1.00
C54    C     0.65476   0.16662   0.18510   0.00000  Uiso   1.00
C55    C     0.53512   0.02234   0.14409   0.00000  Uiso   1.00
C56    C     0.46488   0.31100   0.18924   0.00000  Uiso   1.00
C57    C     0.53710   0.31267   0.14436   0.00000  Uiso   1.00
C58    C     0.46290   0.02066   0.18897   0.00000  Uiso   1.00
C59    C     0.50154   0.29070   0.16691   0.00000  Uiso   1.00
C60    C     0.49846   0.04263   0.16642   0.00000  Uiso   1.00
C61    C     0.53198   0.19321   0.02843   0.00000  Uiso   1.00
C62    C     0.46802   0.14012   0.30491   0.00000  Uiso   1.00
C63    C     0.53246   0.19309   0.31380   0.00000  Uiso   1.00
C64    C     0.46754   0.14025   0.01953   0.00000  Uiso   1.00
H65    H     0.65775   0.16686   0.11332   0.00000  Uiso   1.00
H66    H     0.34225   0.16647   0.22001   0.00000  Uiso   1.00
H67    H     0.56277   0.03999   0.12737   0.00000  Uiso   1.00
H68    H     0.43723   0.29334   0.20597   0.00000  Uiso   1.00
H69    H     0.55744   0.21439   0.05025   0.00000  Uiso   1.00
H70    H     0.44256   0.11894   0.28308   0.00000  Uiso   1.00
N71    N     0.49999   0.16666   0.28573   0.00000  Uiso   1.00
N72    N     0.50001   0.16668   0.04760   0.00000  Uiso   1.00
O73    O     0.50000   0.10558   0.20487   0.00000  Uiso   1.00
O74    O     0.50000   0.22775   0.12846   0.00000  Uiso   1.00
O75    O     0.50000   0.10559   0.12843   0.00000  Uiso   1.00
O76    O     0.50000   0.22774   0.20490   0.00000  Uiso   1.00
O77    O     0.42392   0.16666   0.19595   0.00000  Uiso   1.00
O78    O     0.57608   0.16667   0.13739   0.00000  Uiso   1.00
O79    O     0.42392   0.16667   0.11950   0.00000  Uiso   1.00
O80    O     0.57608   0.16666   0.21383   0.00000  Uiso   1.00
Zn81   Zn    0.50000   0.16666   0.21771   0.00000  Uiso   1.00
Zn82   Zn    0.50000   0.16667   0.11563   0.00000  Uiso   1.00
Cl83   Cl    0.58602   0.28776   0.11841   0.00000  Uiso   1.00
Cl84   Cl    0.41398   0.04558   0.21492   0.00000  Uiso   1.00
N85    N     0.56617   0.22087   0.29464   0.00000  Uiso   1.00
H86    H     0.55904   0.25185   0.30142   0.00000  Uiso   1.00
C87    C     0.62146   0.21079   0.30553   0.00000  Uiso   1.00
H88    H     0.63587   0.21641   0.00906   0.00000  Uiso   1.00
H89    H     0.64421   0.23093   0.28504   0.00000  Uiso   1.00
H90    H     0.62834   0.17753   0.29720   0.00000  Uiso   1.00
N91    N     0.43383   0.11246   0.03869   0.00000  Uiso   1.00
H92    H     0.44096   0.08149   0.03191   0.00000  Uiso   1.00
C93    C     0.37855   0.12254   0.02781   0.00000  Uiso   1.00
H94    H     0.36413   0.11693   0.32427   0.00000  Uiso   1.00
H95    H     0.37165   0.15580   0.03614   0.00000  Uiso   1.00
H96    H     0.35579   0.10240   0.04829   0.00000  Uiso   1.00
C97    C     0.83218   0.08676   0.16650   0.00000  Uiso   1.00
C98    C     0.83449   0.24658   0.16684   0.00000  Uiso   1.00
C99    C     0.73369   0.16665   0.15465   0.00000  Uiso   1.00
C100   C     0.93297   0.16668   0.17869   0.00000  Uiso   1.00
C101   C     0.67857   0.16671   0.14823   0.00000  Uiso   1.00
C102   C     0.98810   0.16662   0.18510   0.00000  Uiso   1.00
C103   C     0.86846   0.02234   0.14409   0.00000  Uiso   1.00
C104   C     0.79821   0.31100   0.18924   0.00000  Uiso   1.00
C105   C     0.87043   0.31267   0.14436   0.00000  Uiso   1.00
C106   C     0.79623   0.02066   0.18897   0.00000  Uiso   1.00
C107   C     0.83487   0.29070   0.16691   0.00000  Uiso   1.00
C108   C     0.83180   0.04263   0.16642   0.00000  Uiso   1.00
C109   C     0.86531   0.19321   0.02843   0.00000  Uiso   1.00
C110   C     0.80135   0.14012   0.30491   0.00000  Uiso   1.00
C111   C     0.86579   0.19309   0.31380   0.00000  Uiso   1.00
C112   C     0.80087   0.14025   0.01953   0.00000  Uiso   1.00
H113   H     0.99108   0.16686   0.11332   0.00000  Uiso   1.00
H114   H     0.67558   0.16647   0.22001   0.00000  Uiso   1.00
H115   H     0.89611   0.03999   0.12737   0.00000  Uiso   1.00
H116   H     0.77056   0.29334   0.20597   0.00000  Uiso   1.00
H117   H     0.89078   0.21439   0.05025   0.00000  Uiso   1.00
H118   H     0.77589   0.11894   0.28308   0.00000  Uiso   1.00
N119   N     0.83332   0.16666   0.28573   0.00000  Uiso   1.00
N120   N     0.83335   0.16668   0.04760   0.00000  Uiso   1.00
O121   O     0.83333   0.10558   0.20487   0.00000  Uiso   1.00
O122   O     0.83334   0.22775   0.12846   0.00000  Uiso   1.00
O123   O     0.83333   0.10559   0.12843   0.00000  Uiso   1.00
O124   O     0.83334   0.22774   0.20490   0.00000  Uiso   1.00
O125   O     0.75725   0.16666   0.19595   0.00000  Uiso   1.00
O126   O     0.90942   0.16667   0.13739   0.00000  Uiso   1.00
O127   O     0.75725   0.16667   0.11950   0.00000  Uiso   1.00
O128   O     0.90942   0.16666   0.21383   0.00000  Uiso   1.00
Zn129  Zn    0.83333   0.16666   0.21771   0.00000  Uiso   1.00
Zn130  Zn    0.83333   0.16667   0.11563   0.00000  Uiso   1.00
Cl131  Cl    0.91936   0.28776   0.11841   0.00000  Uiso   1.00
Cl132  Cl    0.74731   0.04558   0.21492   0.00000  Uiso   1.00
N133   N     0.89950   0.22087   0.29464   0.00000  Uiso   1.00
H134   H     0.89237   0.25185   0.30142   0.00000  Uiso   1.00
C135   C     0.95479   0.21079   0.30553   0.00000  Uiso   1.00
H136   H     0.96920   0.21641   0.00906   0.00000  Uiso   1.00
H137   H     0.97754   0.23093   0.28504   0.00000  Uiso   1.00
H138   H     0.96168   0.17753   0.29720   0.00000  Uiso   1.00
N139   N     0.76717   0.11246   0.03869   0.00000  Uiso   1.00
H140   H     0.77430   0.08149   0.03191   0.00000  Uiso   1.00
C141   C     0.71188   0.12254   0.02781   0.00000  Uiso   1.00
H142   H     0.69747   0.11693   0.32427   0.00000  Uiso   1.00
H143   H     0.70499   0.15580   0.03614   0.00000  Uiso   1.00
H144   H     0.68912   0.10240   0.04829   0.00000  Uiso   1.00
C145   C     0.16551   0.42009   0.16650   0.00000  Uiso   1.00
C146   C     0.16782   0.57991   0.16684   0.00000  Uiso   1.00
C147   C     0.06703   0.49998   0.15465   0.00000  Uiso   1.00
C148   C     0.26631   0.50002   0.17869   0.00000  Uiso   1.00
C149   C     0.01190   0.50004   0.14823   0.00000  Uiso   1.00
C150   C     0.32143   0.49996   0.18510   0.00000  Uiso   1.00
C151   C     0.20179   0.35567   0.14409   0.00000  Uiso   1.00
C152   C     0.13154   0.64433   0.18924   0.00000  Uiso   1.00
C153   C     0.20377   0.64601   0.14436   0.00000  Uiso   1.00
C154   C     0.12957   0.35399   0.18897   0.00000  Uiso   1.00
C155   C     0.16821   0.62404   0.16691   0.00000  Uiso   1.00
C156   C     0.16513   0.37596   0.16642   0.00000  Uiso   1.00
C157   C     0.19865   0.52655   0.02843   0.00000  Uiso   1.00
C158   C     0.13469   0.47345   0.30491   0.00000  Uiso   1.00
C159   C     0.19913   0.52642   0.31380   0.00000  Uiso   1.00
C160   C     0.13421   0.47358   0.01953   0.00000  Uiso   1.00
H161   H     0.32442   0.50020   0.11332   0.00000  Uiso   1.00
H162   H     0.00892   0.49980   0.22001   0.00000  Uiso   1.00
H163   H     0.22944   0.37332   0.12737   0.00000  Uiso   1.00
H164   H     0.10389   0.62668   0.20597   0.00000  Uiso   1.00
H165   H     0.22411   0.54773   0.05025   0.00000  Uiso   1.00
H166   H     0.10922   0.45227   0.28308   0.00000  Uiso   1.00
N167   N     0.16665   0.49999   0.28573   0.00000  Uiso   1.00
N168   N     0.16668   0.50001   0.04760   0.00000  Uiso   1.00
O169   O     0.16666   0.43892   0.20487   0.00000  Uiso   1.00
O170   O     0.16667   0.56108   0.12846   0.00000  Uiso   1.00
O171   O     0.16666   0.43893   0.12843   0.00000  Uiso   1.00
O172   O     0.16667   0.56107   0.20490   0.00000  Uiso   1.00
O173   O     0.09058   0.50000   0.19595   0.00000  Uiso   1.00
O174   O     0.24275   0.50000   0.13739   0.00000  Uiso   1.00
O175   O     0.09058   0.50000   0.11950   0.00000  Uiso   1.00
O176   O     0.24275   0.50000   0.21383   0.00000  Uiso   1.00
Zn177  Zn    0.16667   0.49999   0.21771   0.00000  Uiso   1.00
Zn178  Zn    0.16667   0.50001   0.11563   0.00000  Uiso   1.00
Cl179  Cl    0.25269   0.62109   0.11841   0.00000  Uiso   1.00
Cl180  Cl    0.08064   0.37891   0.21492   0.00000  Uiso   1.00
N181   N     0.23283   0.55421   0.29464   0.00000  Uiso   1.00
H182   H     0.22570   0.58518   0.30142   0.00000  Uiso   1.00
C183   C     0.28812   0.54413   0.30553   0.00000  Uiso   1.00
H184   H     0.30253   0.54974   0.00906   0.00000  Uiso   1.00
H185   H     0.31088   0.56426   0.28504   0.00000  Uiso   1.00
H186   H     0.29501   0.51086   0.29720   0.00000  Uiso   1.00
N187   N     0.10050   0.44579   0.03869   0.00000  Uiso   1.00
H188   H     0.10763   0.41482   0.03191   0.00000  Uiso   1.00
C189   C     0.04521   0.45587   0.02781   0.00000  Uiso   1.00
H190   H     0.03080   0.45026   0.32427   0.00000  Uiso   1.00
H191   H     0.03832   0.48914   0.03614   0.00000  Uiso   1.00
H192   H     0.02246   0.43573   0.04829   0.00000  Uiso   1.00
C193   C     0.49885   0.42009   0.16650   0.00000  Uiso   1.00
C194   C     0.50115   0.57991   0.16684   0.00000  Uiso   1.00
C195   C     0.40036   0.49998   0.15465   0.00000  Uiso   1.00
C196   C     0.59964   0.50002   0.17869   0.00000  Uiso   1.00
C197   C     0.34524   0.50004   0.14823   0.00000  Uiso   1.00
C198   C     0.65476   0.49996   0.18510   0.00000  Uiso   1.00
C199   C     0.53512   0.35567   0.14409   0.00000  Uiso   1.00
C200   C     0.46488   0.64433   0.18924   0.00000  Uiso   1.00
C201   C     0.53710   0.64601   0.14436   0.00000  Uiso   1.00
C202   C     0.46290   0.35399   0.18897   0.00000  Uiso   1.00
C203   C     0.50154   0.62404   0.16691   0.00000  Uiso   1.00
C204   C     0.49846   0.37596   0.16642   0.00000  Uiso   1.00
C205   C     0.53198   0.52655   0.02843   0.00000  Uiso   1.00
C206   C     0.46802   0.47345   0.30491   0.00000  Uiso   1.00
C207   C     0.53246   0.52642   0.31380   0.00000  Uiso   1.00
C208   C     0.46754   0.47358   0.01953   0.00000  Uiso   1.00
H209   H     0.65775   0.50020   0.11332   0.00000  Uiso   1.00
H210   H     0.34225   0.49980   0.22001   0.00000  Uiso   1.00
H211   H     0.56277   0.37332   0.12737   0.00000  Uiso   1.00
H212   H     0.43723   0.62668   0.20597   0.00000  Uiso   1.00
H213   H     0.55744   0.54773   0.05025   0.00000  Uiso   1.00
H214   H     0.44256   0.45227   0.28308   0.00000  Uiso   1.00
N215   N     0.49999   0.49999   0.28573   0.00000  Uiso   1.00
N216   N     0.50001   0.50001   0.04760   0.00000  Uiso   1.00
O217   O     0.50000   0.43892   0.20487   0.00000  Uiso   1.00
O218   O     0.50000   0.56108   0.12846   0.00000  Uiso   1.00
O219   O     0.50000   0.43893   0.12843   0.00000  Uiso   1.00
O220   O     0.50000   0.56107   0.20490   0.00000  Uiso   1.00
O221   O     0.42392   0.50000   0.19595   0.00000  Uiso   1.00
O222   O     0.57608   0.50000   0.13739   0.00000  Uiso   1.00
O223   O     0.42392   0.50000   0.11950   0.00000  Uiso   1.00
O224   O     0.57608   0.50000   0.21383   0.00000  Uiso   1.00
Zn225  Zn    0.50000   0.49999   0.21771   0.00000  Uiso   1.00
Zn226  Zn    0.50000   0.50001   0.11563   0.00000  Uiso   1.00
Cl227  Cl    0.58602   0.62109   0.11841   0.00000  Uiso   1.00
Cl228  Cl    0.41398   0.37891   0.21492   0.00000  Uiso   1.00
N229   N     0.56617   0.55421   0.29464   0.00000  Uiso   1.00
H230   H     0.55904   0.58518   0.30142   0.00000  Uiso   1.00
C231   C     0.62146   0.54413   0.30553   0.00000  Uiso   1.00
H232   H     0.63587   0.54974   0.00906   0.00000  Uiso   1.00
H233   H     0.64421   0.56426   0.28504   0.00000  Uiso   1.00
H234   H     0.62834   0.51086   0.29720   0.00000  Uiso   1.00
N235   N     0.43383   0.44579   0.03869   0.00000  Uiso   1.00
H236   H     0.44096   0.41482   0.03191   0.00000  Uiso   1.00
C237   C     0.37855   0.45587   0.02781   0.00000  Uiso   1.00
H238   H     0.36413   0.45026   0.32427   0.00000  Uiso   1.00
H239   H     0.37165   0.48914   0.03614   0.00000  Uiso   1.00
H240   H     0.35579   0.43573   0.04829   0.00000  Uiso   1.00
C241   C     0.83218   0.42009   0.16650   0.00000  Uiso   1.00
C242   C     0.83449   0.57991   0.16684   0.00000  Uiso   1.00
C243   C     0.73369   0.49998   0.15465   0.00000  Uiso   1.00
C244   C     0.93297   0.50002   0.17869   0.00000  Uiso   1.00
C245   C     0.67857   0.50004   0.14823   0.00000  Uiso   1.00
C246   C     0.98810   0.49996   0.18510   0.00000  Uiso   1.00
C247   C     0.86846   0.35567   0.14409   0.00000  Uiso   1.00
C248   C     0.79821   0.64433   0.18924   0.00000  Uiso   1.00
C249   C     0.87043   0.64601   0.14436   0.00000  Uiso   1.00
C250   C     0.79623   0.35399   0.18897   0.00000  Uiso   1.00
C251   C     0.83487   0.62404   0.16691   0.00000  Uiso   1.00
C252   C     0.83180   0.37596   0.16642   0.00000  Uiso   1.00
C253   C     0.86531   0.52655   0.02843   0.00000  Uiso   1.00
C254   C     0.80135   0.47345   0.30491   0.00000  Uiso   1.00
C255   C     0.86579   0.52642   0.31380   0.00000  Uiso   1.00
C256   C     0.80087   0.47358   0.01953   0.00000  Uiso   1.00
H257   H     0.99108   0.50020   0.11332   0.00000  Uiso   1.00
H258   H     0.67558   0.49980   0.22001   0.00000  Uiso   1.00
H259   H     0.89611   0.37332   0.12737   0.00000  Uiso   1.00
H260   H     0.77056   0.62668   0.20597   0.00000  Uiso   1.00
H261   H     0.89078   0.54773   0.05025   0.00000  Uiso   1.00
H262   H     0.77589   0.45227   0.28308   0.00000  Uiso   1.00
N263   N     0.83332   0.49999   0.28573   0.00000  Uiso   1.00
N264   N     0.83335   0.50001   0.04760   0.00000  Uiso   1.00
O265   O     0.83333   0.43892   0.20487   0.00000  Uiso   1.00
O266   O     0.83334   0.56108   0.12846   0.00000  Uiso   1.00
O267   O     0.83333   0.43893   0.12843   0.00000  Uiso   1.00
O268   O     0.83334   0.56107   0.20490   0.00000  Uiso   1.00
O269   O     0.75725   0.50000   0.19595   0.00000  Uiso   1.00
O270   O     0.90942   0.50000   0.13739   0.00000  Uiso   1.00
O271   O     0.75725   0.50000   0.11950   0.00000  Uiso   1.00
O272   O     0.90942   0.50000   0.21383   0.00000  Uiso   1.00
Zn273  Zn    0.83333   0.49999   0.21771   0.00000  Uiso   1.00
Zn274  Zn    0.83333   0.50001   0.11563   0.00000  Uiso   1.00
Cl275  Cl    0.91936   0.62109   0.11841   0.00000  Uiso   1.00
Cl276  Cl    0.74731   0.37891   0.21492   0.00000  Uiso   1.00
N277   N     0.89950   0.55421   0.29464   0.00000  Uiso   1.00
H278   H     0.89237   0.58518   0.30142   0.00000  Uiso   1.00
C279   C     0.95479   0.54413   0.30553   0.00000  Uiso   1.00
H280   H     0.96920   0.54974   0.00906   0.00000  Uiso   1.00
H281   H     0.97754   0.56426   0.28504   0.00000  Uiso   1.00
H282   H     0.96168   0.51086   0.29720   0.00000  Uiso   1.00
N283   N     0.76717   0.44579   0.03869   0.00000  Uiso   1.00
H284   H     0.77430   0.41482   0.03191   0.00000  Uiso   1.00
C285   C     0.71188   0.45587   0.02781   0.00000  Uiso   1.00
H286   H     0.69747   0.45026   0.32427   0.00000  Uiso   1.00
H287   H     0.70499   0.48914   0.03614   0.00000  Uiso   1.00
H288   H     0.68912   0.43573   0.04829   0.00000  Uiso   1.00
C289   C     0.16551   0.75342   0.16650   0.00000  Uiso   1.00
C290   C     0.16782   0.91324   0.16684   0.00000  Uiso   1.00
C291   C     0.06703   0.83332   0.15465   0.00000  Uiso   1.00
C292   C     0.26631   0.83335   0.17869   0.00000  Uiso   1.00
C293   C     0.01190   0.83338   0.14823   0.00000  Uiso   1.00
C294   C     0.32143   0.83329   0.18510   0.00000  Uiso   1.00
C295   C     0.20179   0.68900   0.14409   0.00000  Uiso   1.00
C296   C     0.13154   0.97766   0.18924   0.00000  Uiso   1.00
C297   C     0.20377   0.97934   0.14436   0.00000  Uiso   1.00
C298   C     0.12957   0.68733   0.18897   0.00000  Uiso   1.00
C299   C     0.16821   0.95737   0.16691   0.00000  Uiso   1.00
C300   C     0.16513   0.70930   0.16642   0.00000  Uiso   1.00
C301   C     0.19865   0.85988   0.02843   0.00000  Uiso   1.00
C302   C     0.13469   0.80679   0.30491   0.00000  Uiso   1.00
C303   C     0.19913   0.85975   0.31380   0.00000  Uiso   1.00
C304   C     0.13421   0.80691   0.01953   0.00000  Uiso   1.00
H305   H     0.32442   0.83353   0.11332   0.00000  Uiso   1.00
H306   H     0.00892   0.83314   0.22001   0.00000  Uiso   1.00
H307   H     0.22944   0.70666   0.12737   0.00000  Uiso   1.00
H308   H     0.10389   0.96001   0.20597   0.00000  Uiso   1.00
H309   H     0.22411   0.88106   0.05025   0.00000  Uiso   1.00
H310   H     0.10922   0.78561   0.28308   0.00000  Uiso   1.00
N311   N     0.16665   0.83332   0.28573   0.00000  Uiso   1.00
N312   N     0.16668   0.83334   0.04760   0.00000  Uiso   1.00
O313   O     0.16666   0.77225   0.20487   0.00000  Uiso   1.00
O314   O     0.16667   0.89442   0.12846   0.00000  Uiso   1.00
O315   O     0.16666   0.77226   0.12843   0.00000  Uiso   1.00
O316   O     0.16667   0.89441   0.20490   0.00000  Uiso   1.00
O317   O     0.09058   0.83333   0.19595   0.00000  Uiso   1.00
O318   O     0.24275   0.83334   0.13739   0.00000  Uiso   1.00
O319   O     0.09058   0.83334   0.11950   0.00000  Uiso   1.00
O320   O     0.24275   0.83333   0.21383   0.00000  Uiso   1.00
Zn321  Zn    0.16667   0.83333   0.21771   0.00000  Uiso   1.00
Zn322  Zn    0.16667   0.83334   0.11563   0.00000  Uiso   1.00
Cl323  Cl    0.25269   0.95442   0.11841   0.00000  Uiso   1.00
Cl324  Cl    0.08064   0.71224   0.21492   0.00000  Uiso   1.00
N325   N     0.23283   0.88754   0.29464   0.00000  Uiso   1.00
H326   H     0.22570   0.91851   0.30142   0.00000  Uiso   1.00
C327   C     0.28812   0.87746   0.30553   0.00000  Uiso   1.00
H328   H     0.30253   0.88307   0.00906   0.00000  Uiso   1.00
H329   H     0.31088   0.89760   0.28504   0.00000  Uiso   1.00
H330   H     0.29501   0.84419   0.29720   0.00000  Uiso   1.00
N331   N     0.10050   0.77913   0.03869   0.00000  Uiso   1.00
H332   H     0.10763   0.74815   0.03191   0.00000  Uiso   1.00
C333   C     0.04521   0.78921   0.02781   0.00000  Uiso   1.00
H334   H     0.03080   0.78360   0.32427   0.00000  Uiso   1.00
H335   H     0.03832   0.82247   0.03614   0.00000  Uiso   1.00
H336   H     0.02246   0.76907   0.04829   0.00000  Uiso   1.00
C337   C     0.49885   0.75342   0.16650   0.00000  Uiso   1.00
C338   C     0.50115   0.91324   0.16684   0.00000  Uiso   1.00
C339   C     0.40036   0.83332   0.15465   0.00000  Uiso   1.00
C340   C     0.59964   0.83335   0.17869   0.00000  Uiso   1.00
C341   C     0.34524   0.83338   0.14823   0.00000  Uiso   1.00
C342   C     0.65476   0.83329   0.18510   0.00000  Uiso   1.00
C343   C     0.53512   0.68900   0.14409   0.00000  Uiso   1.00
C344   C     0.46488   0.97766   0.18924   0.00000  Uiso   1.00
C345   C     0.53710   0.97934   0.14436   0.00000  Uiso   1.00
C346   C     0.46290   0.68733   0.18897   0.00000  Uiso   1.00
C347   C     0.50154   0.95737   0.16691   0.00000  Uiso   1.00
C348   C     0.49846   0.70930   0.16642   0.00000  Uiso   1.00
C349   C     0.53198   0.85988   0.02843   0.00000  Uiso   1.00
C350   C     0.46802   0.80679   0.30491   0.00000  Uiso   1.00
C351   C     0.53246   0.85975   0.31380   0.00000  Uiso   1.00
C352   C     0.46754   0.80691   0.01953   0.00000  Uiso   1.00
H353   H     0.65775   0.83353   0.11332   0.00000  Uiso   1.00
H354   H     0.34225   0.83314   0.22001   0.00000  Uiso   1.00
H355   H     0.56277   0.70666   0.12737   0.00000  Uiso   1.00
H356   H     0.43723   0.96001   0.20597   0.00000  Uiso   1.00
H357   H     0.55744   0.88106   0.05025   0.00000  Uiso   1.00
H358   H     0.44256   0.78561   0.28308   0.00000  Uiso   1.00
N359   N     0.49999   0.83332   0.28573   0.00000  Uiso   1.00
N360   N     0.50001   0.83334   0.04760   0.00000  Uiso   1.00
O361   O     0.50000   0.77225   0.20487   0.00000  Uiso   1.00
O362   O     0.50000   0.89442   0.12846   0.00000  Uiso   1.00
O363   O     0.50000   0.77226   0.12843   0.00000  Uiso   1.00
O364   O     0.50000   0.89441   0.20490   0.00000  Uiso   1.00
O365   O     0.42392   0.83333   0.19595   0.00000  Uiso   1.00
O366   O     0.57608   0.83334   0.13739   0.00000  Uiso   1.00
O367   O     0.42392   0.83334   0.11950   0.00000  Uiso   1.00
O368   O     0.57608   0.83333   0.21383   0.00000  Uiso   1.00
Zn369  Zn    0.50000   0.83333   0.21771   0.00000  Uiso   1.00
Zn370  Zn    0.50000   0.83334   0.11563   0.00000  Uiso   1.00
Cl371  Cl    0.58602   0.95442   0.11841   0.00000  Uiso   1.00
Cl372  Cl    0.41398   0.71224   0.21492   0.00000  Uiso   1.00
N373   N     0.56617   0.88754   0.29464   0.00000  Uiso   1.00
H374   H     0.55904   0.91851   0.30142   0.00000  Uiso   1.00
C375   C     0.62146   0.87746   0.30553   0.00000  Uiso   1.00
H376   H     0.63587   0.88307   0.00906   0.00000  Uiso   1.00
H377   H     0.64421   0.89760   0.28504   0.00000  Uiso   1.00
H378   H     0.62834   0.84419   0.29720   0.00000  Uiso   1.00
N379   N     0.43383   0.77913   0.03869   0.00000  Uiso   1.00
H380   H     0.44096   0.74815   0.03191   0.00000  Uiso   1.00
C381   C     0.37855   0.78921   0.02781   0.00000  Uiso   1.00
H382   H     0.36413   0.78360   0.32427   0.00000  Uiso   1.00
H383   H     0.37165   0.82247   0.03614   0.00000  Uiso   1.00
H384   H     0.35579   0.76907   0.04829   0.00000  Uiso   1.00
C385   C     0.83218   0.75342   0.16650   0.00000  Uiso   1.00
C386   C     0.83449   0.91324   0.16684   0.00000  Uiso   1.00
C387   C     0.73369   0.83332   0.15465   0.00000  Uiso   1.00
C388   C     0.93297   0.83335   0.17869   0.00000  Uiso   1.00
C389   C     0.67857   0.83338   0.14823   0.00000  Uiso   1.00
C390   C     0.98810   0.83329   0.18510   0.00000  Uiso   1.00
C391   C     0.86846   0.68900   0.14409   0.00000  Uiso   1.00
C392   C     0.79821   0.97766   0.18924   0.00000  Uiso   1.00
C393   C     0.87043   0.97934   0.14436   0.00000  Uiso   1.00
C394   C     0.79623   0.68733   0.18897   0.00000  Uiso   1.00
C395   C     0.83487   0.95737   0.16691   0.00000  Uiso   1.00
C396   C     0.83180   0.70930   0.16642   0.00000  Uiso   1.00
C397   C     0.86531   0.85988   0.02843   0.00000  Uiso   1.00
C398   C     0.80135   0.80679   0.30491   0.00000  Uiso   1.00
C399   C     0.86579   0.85975   0.31380   0.00000  Uiso   1.00
C400   C     0.80087   0.80691   0.01953   0.00000  Uiso   1.00
H401   H     0.99108   0.83353   0.11332   0.00000  Uiso   1.00
H402   H     0.67558   0.83314   0.22001   0.00000  Uiso   1.00
H403   H     0.89611   0.70666   0.12737   0.00000  Uiso   1.00
H404   H     0.77056   0.96001   0.20597   0.00000  Uiso   1.00
H405   H     0.89078   0.88106   0.05025   0.00000  Uiso   1.00
H406   H     0.77589   0.78561   0.28308   0.00000  Uiso   1.00
N407   N     0.83332   0.83332   0.28573   0.00000  Uiso   1.00
N408   N     0.83335   0.83334   0.04760   0.00000  Uiso   1.00
O409   O     0.83333   0.77225   0.20487   0.00000  Uiso   1.00
O410   O     0.83334   0.89442   0.12846   0.00000  Uiso   1.00
O411   O     0.83333   0.77226   0.12843   0.00000  Uiso   1.00
O412   O     0.83334   0.89441   0.20490   0.00000  Uiso   1.00
O413   O     0.75725   0.83333   0.19595   0.00000  Uiso   1.00
O414   O     0.90942   0.83334   0.13739   0.00000  Uiso   1.00
O415   O     0.75725   0.83334   0.11950   0.00000  Uiso   1.00
O416   O     0.90942   0.83333   0.21383   0.00000  Uiso   1.00
Zn417  Zn    0.83333   0.83333   0.21771   0.00000  Uiso   1.00
Zn418  Zn    0.83333   0.83334   0.11563   0.00000  Uiso   1.00
Cl419  Cl    0.91936   0.95442   0.11841   0.00000  Uiso   1.00
Cl420  Cl    0.74731   0.71224   0.21492   0.00000  Uiso   1.00
N421   N     0.89950   0.88754   0.29464   0.00000  Uiso   1.00
H422   H     0.89237   0.91851   0.30142   0.00000  Uiso   1.00
C423   C     0.95479   0.87746   0.30553   0.00000  Uiso   1.00
H424   H     0.96920   0.88307   0.00906   0.00000  Uiso   1.00
H425   H     0.97754   0.89760   0.28504   0.00000  Uiso   1.00
H426   H     0.96168   0.84419   0.29720   0.00000  Uiso   1.00
N427   N     0.76717   0.77913   0.03869   0.00000  Uiso   1.00
H428   H     0.77430   0.74815   0.03191   0.00000  Uiso   1.00
C429   C     0.71188   0.78921   0.02781   0.00000  Uiso   1.00
H430   H     0.69747   0.78360   0.32427   0.00000  Uiso   1.00
H431   H     0.70499   0.82247   0.03614   0.00000  Uiso   1.00
H432   H     0.68912   0.76907   0.04829   0.00000  Uiso   1.00
C433   C     0.16551   0.08676   0.49983   0.00000  Uiso   1.00
C434   C     0.16782   0.24658   0.50017   0.00000  Uiso   1.00
C435   C     0.06703   0.16665   0.48798   0.00000  Uiso   1.00
C436   C     0.26631   0.16668   0.51202   0.00000  Uiso   1.00
C437   C     0.01190   0.16671   0.48156   0.00000  Uiso   1.00
C438   C     0.32143   0.16662   0.51844   0.00000  Uiso   1.00
C439   C     0.20179   0.02234   0.47742   0.00000  Uiso   1.00
C440   C     0.13154   0.31100   0.52258   0.00000  Uiso   1.00
C441   C     0.20377   0.31267   0.47770   0.00000  Uiso   1.00
C442   C     0.12957   0.02066   0.52230   0.00000  Uiso   1.00
C443   C     0.16821   0.29070   0.50025   0.00000  Uiso   1.00
C444   C     0.16513   0.04263   0.49975   0.00000  Uiso   1.00
C445   C     0.19865   0.19321   0.36176   0.00000  Uiso   1.00
C446   C     0.13469   0.14012   0.63824   0.00000  Uiso   1.00
C447   C     0.19913   0.19309   0.64713   0.00000  Uiso   1.00
C448   C     0.13421   0.14025   0.35287   0.00000  Uiso   1.00
H449   H     0.32442   0.16686   0.44665   0.00000  Uiso   1.00
H450   H     0.00892   0.16647   0.55335   0.00000  Uiso   1.00
H451   H     0.22944   0.03999   0.46070   0.00000  Uiso   1.00
H452   H     0.10389   0.29334   0.53930   0.00000  Uiso   1.00
H453   H     0.22411   0.21439   0.38359   0.00000  Uiso   1.00
H454   H     0.10922   0.11894   0.61641   0.00000  Uiso   1.00
N455   N     0.16665   0.16666   0.61907   0.00000  Uiso   1.00
N456   N     0.16668   0.16668   0.38093   0.00000  Uiso   1.00
O457   O     0.16666   0.10558   0.53821   0.00000  Uiso   1.00
O458   O     0.16667   0.22775   0.46179   0.00000  Uiso   1.00
O459   O     0.16666   0.10559   0.46176   0.00000  Uiso   1.00
O460   O     0.16667   0.22774   0.53824   0.00000  Uiso   1.00
O461   O     0.09058   0.16666   0.52928   0.00000  Uiso   1.00
O462   O     0.24275   0.16667   0.47072   0.00000  Uiso   1.00
O463   O     0.09058   0.16667   0.45284   0.00000  Uiso   1.00
O464   O     0.24275   0.16666   0.54716   0.00000  Uiso   1.00
Zn465  Zn    0.16667   0.16666   0.55104   0.00000  Uiso   1.00
Zn466  Zn    0.16667   0.16667   0.44896   0.00000  Uiso   1.00
Cl467  Cl    0.25269   0.28776   0.45174   0.00000  Uiso   1.00
Cl468  Cl    0.08064   0.04558   0.54826   0.00000  Uiso   1.00
N469   N     0.23283   0.22087   0.62797   0.00000  Uiso   1.00
H470   H     0.22570   0.25185   0.63475   0.00000  Uiso   1.00
C471   C     0.28812   0.21079   0.63886   0.00000  Uiso   1.00
H472   H     0.30253   0.21641   0.34239   0.00000  Uiso   1.00
H473   H     0.31088   0.23093   0.61838   0.00000  Uiso   1.00
H474   H     0.29501   0.17753   0.63053   0.00000  Uiso   1.00
N475   N     0.10050   0.11246   0.37203   0.00000  Uiso   1.00
H476   H     0.10763   0.08149   0.36525   0.00000  Uiso   1.00
C477   C     0.04521   0.12254   0.36114   0.00000  Uiso   1.00
H478   H     0.03080   0.11693   0.65760   0.00000  Uiso   1.00
H479   H     0.03832   0.15580   0.36947   0.00000  Uiso   1.00
H480   H     0.02246   0.10240   0.38162   0.00000  Uiso   1.00
C481   C     0.49885   0.08676   0.49983   0.00000  Uiso   1.00
C482   C     0.50115   0.24658   0.50017   0.00000  Uiso   1.00
C483   C     0.40036   0.16665   0.48798   0.00000  Uiso   1.00
C484   C     0.59964   0.16668   0.51202   0.00000  Uiso   1.00
C485   C     0.34524   0.16671   0.48156   0.00000  Uiso   1.00
C486   C     0.65476   0.16662   0.51844   0.00000  Uiso   1.00
C487   C     0.53512   0.02234   0.47742   0.00000  Uiso   1.00
C488   C     0.46488   0.31100   0.52258   0.00000  Uiso   1.00
C489   C     0.53710   0.31267   0.47770   0.00000  Uiso   1.00
C490   C     0.46290   0.02066   0.52230   0.00000  Uiso   1.00
C491   C     0.50154   0.29070   0.50025   0.00000  Uiso   1.00
C492   C     0.49846   0.04263   0.49975   0.00000  Uiso   1.00
C493   C     0.53198   0.19321   0.36176   0.00000  Uiso   1.00
C494   C     0.46802   0.14012   0.63824   0.00000  Uiso   1.00
C495   C     0.53246   0.19309   0.64713   0.00000  Uiso   1.00
C496   C     0.46754   0.14025   0.35287   0.00000  Uiso   1.00
H497   H     0.65775   0.16686   0.44665   0.00000  Uiso   1.00
H498   H     0.34225   0.16647   0.55335   0.00000  Uiso   1.00
H499   H     0.56277   0.03999   0.46070   0.00000  Uiso   1.00
H500   H     0.43723   0.29334   0.53930   0.00000  Uiso   1.00
H501   H     0.55744   0.21439   0.38359   0.00000  Uiso   1.00
H502   H     0.44256   0.11894   0.61641   0.00000  Uiso   1.00
N503   N     0.49999   0.16666   0.61907   0.00000  Uiso   1.00
N504   N     0.50001   0.16668   0.38093   0.00000  Uiso   1.00
O505   O     0.50000   0.10558   0.53821   0.00000  Uiso   1.00
O506   O     0.50000   0.22775   0.46179   0.00000  Uiso   1.00
O507   O     0.50000   0.10559   0.46176   0.00000  Uiso   1.00
O508   O     0.50000   0.22774   0.53824   0.00000  Uiso   1.00
O509   O     0.42392   0.16666   0.52928   0.00000  Uiso   1.00
O510   O     0.57608   0.16667   0.47072   0.00000  Uiso   1.00
O511   O     0.42392   0.16667   0.45284   0.00000  Uiso   1.00
O512   O     0.57608   0.16666   0.54716   0.00000  Uiso   1.00
Zn513  Zn    0.50000   0.16666   0.55104   0.00000  Uiso   1.00
Zn514  Zn    0.50000   0.16667   0.44896   0.00000  Uiso   1.00
Cl515  Cl    0.58602   0.28776   0.45174   0.00000  Uiso   1.00
Cl516  Cl    0.41398   0.04558   0.54826   0.00000  Uiso   1.00
N517   N     0.56617   0.22087   0.62797   0.00000  Uiso   1.00
H518   H     0.55904   0.25185   0.63475   0.00000  Uiso   1.00
C519   C     0.62146   0.21079   0.63886   0.00000  Uiso   1.00
H520   H     0.63587   0.21641   0.34239   0.00000  Uiso   1.00
H521   H     0.64421   0.23093   0.61838   0.00000  Uiso   1.00
H522   H     0.62834   0.17753   0.63053   0.00000  Uiso   1.00
N523   N     0.43383   0.11246   0.37203   0.00000  Uiso   1.00
H524   H     0.44096   0.08149   0.36525   0.00000  Uiso   1.00
C525   C     0.37855   0.12254   0.36114   0.00000  Uiso   1.00
H526   H     0.36413   0.11693   0.65760   0.00000  Uiso   1.00
H527   H     0.37165   0.15580   0.36947   0.00000  Uiso   1.00
H528   H     0.35579   0.10240   0.38162   0.00000  Uiso   1.00
C529   C     0.83218   0.08676   0.49983   0.00000  Uiso   1.00
C530   C     0.83449   0.24658   0.50017   0.00000  Uiso   1.00
C531   C     0.73369   0.16665   0.48798   0.00000  Uiso   1.00
C532   C     0.93297   0.16668   0.51202   0.00000  Uiso   1.00
C533   C     0.67857   0.16671   0.48156   0.00000  Uiso   1.00
C534   C     0.98810   0.16662   0.51844   0.00000  Uiso   1.00
C535   C     0.86846   0.02234   0.47742   0.00000  Uiso   1.00
C536   C     0.79821   0.31100   0.52258   0.00000  Uiso   1.00
C537   C     0.87043   0.31267   0.47770   0.00000  Uiso   1.00
C538   C     0.79623   0.02066   0.52230   0.00000  Uiso   1.00
C539   C     0.83487   0.29070   0.50025   0.00000  Uiso   1.00
C540   C     0.83180   0.04263   0.49975   0.00000  Uiso   1.00
C541   C     0.86531   0.19321   0.36176   0.00000  Uiso   1.00
C542   C     0.80135   0.14012   0.63824   0.00000  Uiso   1.00
C543   C     0.86579   0.19309   0.64713   0.00000  Uiso   1.00
C544   C     0.80087   0.14025   0.35287   0.00000  Uiso   1.00
H545   H     0.99108   0.16686   0.44665   0.00000  Uiso   1.00
H546   H     0.67558   0.16647   0.55335   0.00000  Uiso   1.00
H547   H     0.89611   0.03999   0.46070   0.00000  Uiso   1.00
H548   H     0.77056   0.29334   0.53930   0.00000  Uiso   1.00
H549   H     0.89078   0.21439   0.38359   0.00000  Uiso   1.00
H550   H     0.77589   0.11894   0.61641   0.00000  Uiso   1.00
N551   N     0.83332   0.16666   0.61907   0.00000  Uiso   1.00
N552   N     0.83335   0.16668   0.38093   0.00000  Uiso   1.00
O553   O     0.83333   0.10558   0.53821   0.00000  Uiso   1.00
O554   O     0.83334   0.22775   0.46179   0.00000  Uiso   1.00
O555   O     0.83333   0.10559   0.46176   0.00000  Uiso   1.00
O556   O     0.83334   0.22774   0.53824   0.00000  Uiso   1.00
O557   O     0.75725   0.16666   0.52928   0.00000  Uiso   1.00
O558   O     0.90942   0.16667   0.47072   0.00000  Uiso   1.00
O559   O     0.75725   0.16667   0.45284   0.00000  Uiso   1.00
O560   O     0.90942   0.16666   0.54716   0.00000  Uiso   1.00
Zn561  Zn    0.83333   0.16666   0.55104   0.00000  Uiso   1.00
Zn562  Zn    0.83333   0.16667   0.44896   0.00000  Uiso   1.00
Cl563  Cl    0.91936   0.28776   0.45174   0.00000  Uiso   1.00
Cl564  Cl    0.74731   0.04558   0.54826   0.00000  Uiso   1.00
N565   N     0.89950   0.22087   0.62797   0.00000  Uiso   1.00
H566   H     0.89237   0.25185   0.63475   0.00000  Uiso   1.00
C567   C     0.95479   0.21079   0.63886   0.00000  Uiso   1.00
H568   H     0.96920   0.21641   0.34239   0.00000  Uiso   1.00
H569   H     0.97754   0.23093   0.61838   0.00000  Uiso   1.00
H570   H     0.96168   0.17753   0.63053   0.00000  Uiso   1.00
N571   N     0.76717   0.11246   0.37203   0.00000  Uiso   1.00
H572   H     0.77430   0.08149   0.36525   0.00000  Uiso   1.00
C573   C     0.71188   0.12254   0.36114   0.00000  Uiso   1.00
H574   H     0.69747   0.11693   0.65760   0.00000  Uiso   1.00
H575   H     0.70499   0.15580   0.36947   0.00000  Uiso   1.00
H576   H     0.68912   0.10240   0.38162   0.00000  Uiso   1.00
C577   C     0.16551   0.42009   0.49983   0.00000  Uiso   1.00
C578   C     0.16782   0.57991   0.50017   0.00000  Uiso   1.00
C579   C     0.06703   0.49998   0.48798   0.00000  Uiso   1.00
C580   C     0.26631   0.50002   0.51202   0.00000  Uiso   1.00
C581   C     0.01190   0.50004   0.48156   0.00000  Uiso   1.00
C582   C     0.32143   0.49996   0.51844   0.00000  Uiso   1.00
C583   C     0.20179   0.35567   0.47742   0.00000  Uiso   1.00
C584   C     0.13154   0.64433   0.52258   0.00000  Uiso   1.00
C585   C     0.20377   0.64601   0.47770   0.00000  Uiso   1.00
C586   C     0.12957   0.35399   0.52230   0.00000  Uiso   1.00
C587   C     0.16821   0.62404   0.50025   0.00000  Uiso   1.00
C588   C     0.16513   0.37596   0.49975   0.00000  Uiso   1.00
C589   C     0.19865   0.52655   0.36176   0.00000  Uiso   1.00
C590   C     0.13469   0.47345   0.63824   0.00000  Uiso   1.00
C591   C     0.19913   0.52642   0.64713   0.00000  Uiso   1.00
C592   C     0.13421   0.47358   0.35287   0.00000  Uiso   1.00
H593   H     0.32442   0.50020   0.44665   0.00000  Uiso   1.00
H594   H     0.00892   0.49980   0.55335   0.00000  Uiso   1.00
H595   H     0.22944   0.37332   0.46070   0.00000  Uiso   1.00
H596   H     0.10389   0.62668   0.53930   0.00000  Uiso   1.00
H597   H     0.22411   0.54773   0.38359   0.00000  Uiso   1.00
H598   H     0.10922   0.45227   0.61641   0.00000  Uiso   1.00
N599   N     0.16665   0.49999   0.61907   0.00000  Uiso   1.00
N600   N     0.16668   0.50001   0.38093   0.00000  Uiso   1.00
O601   O     0.16666   0.43892   0.53821   0.00000  Uiso   1.00
O602   O     0.16667   0.56108   0.46179   0.00000  Uiso   1.00
O603   O     0.16666   0.43893   0.46176   0.00000  Uiso   1.00
O604   O     0.16667   0.56107   0.53824   0.00000  Uiso   1.00
O605   O     0.09058   0.50000   0.52928   0.00000  Uiso   1.00
O606   O     0.24275   0.50000   0.47072   0.00000  Uiso   1.00
O607   O     0.09058   0.50000   0.45284   0.00000  Uiso   1.00
O608   O     0.24275   0.50000   0.54716   0.00000  Uiso   1.00
Zn609  Zn    0.16667   0.49999   0.55104   0.00000  Uiso   1.00
Zn610  Zn    0.16667   0.50001   0.44896   0.00000  Uiso   1.00
Cl611  Cl    0.25269   0.62109   0.45174   0.00000  Uiso   1.00
Cl612  Cl    0.08064   0.37891   0.54826   0.00000  Uiso   1.00
N613   N     0.23283   0.55421   0.62797   0.00000  Uiso   1.00
H614   H     0.22570   0.58518   0.63475   0.00000  Uiso   1.00
C615   C     0.28812   0.54413   0.63886   0.00000  Uiso   1.00
H616   H     0.30253   0.54974   0.34239   0.00000  Uiso   1.00
H617   H     0.31088   0.56426   0.61838   0.00000  Uiso   1.00
H618   H     0.29501   0.51086   0.63053   0.00000  Uiso   1.00
N619   N     0.10050   0.44579   0.37203   0.00000  Uiso   1.00
H620   H     0.10763   0.41482   0.36525   0.00000  Uiso   1.00
C621   C     0.04521   0.45587   0.36114   0.00000  Uiso   1.00
H622   H     0.03080   0.45026   0.65760   0.00000  Uiso   1.00
H623   H     0.03832   0.48914   0.36947   0.00000  Uiso   1.00
H624   H     0.02246   0.43573   0.38162   0.00000  Uiso   1.00
C625   C     0.49885   0.42009   0.49983   0.00000  Uiso   1.00
C626   C     0.50115   0.57991   0.50017   0.00000  Uiso   1.00
C627   C     0.40036   0.49998   0.48798   0.00000  Uiso   1.00
C628   C     0.59964   0.50002   0.51202   0.00000  Uiso   1.00
C629   C     0.34524   0.50004   0.48156   0.00000  Uiso   1.00
C630   C     0.65476   0.49996   0.51844   0.00000  Uiso   1.00
C631   C     0.53512   0.35567   0.47742   0.00000  Uiso   1.00
C632   C     0.46488   0.64433   0.52258   0.00000  Uiso   1.00
C633   C     0.53710   0.64601   0.47770   0.00000  Uiso   1.00
C634   C     0.46290   0.35399   0.52230   0.00000  Uiso   1.00
C635   C     0.50154   0.62404   0.50025   0.00000  Uiso   1.00
C636   C     0.49846   0.37596   0.49975   0.00000  Uiso   1.00
C637   C     0.53198   0.52655   0.36176   0.00000  Uiso   1.00
C638   C     0.46802   0.47345   0.63824   0.00000  Uiso   1.00
C639   C     0.53246   0.52642   0.64713   0.00000  Uiso   1.00
C640   C     0.46754   0.47358   0.35287   0.00000  Uiso   1.00
H641   H     0.65775   0.50020   0.44665   0.00000  Uiso   1.00
H642   H     0.34225   0.49980   0.55335   0.00000  Uiso   1.00
H643   H     0.56277   0.37332   0.46070   0.00000  Uiso   1.00
H644   H     0.43723   0.62668   0.53930   0.00000  Uiso   1.00
H645   H     0.55744   0.54773   0.38359   0.00000  Uiso   1.00
H646   H     0.44256   0.45227   0.61641   0.00000  Uiso   1.00
N647   N     0.49999   0.49999   0.61907   0.00000  Uiso   1.00
N648   N     0.50001   0.50001   0.38093   0.00000  Uiso   1.00
O649   O     0.50000   0.43892   0.53821   0.00000  Uiso   1.00
O650   O     0.50000   0.56108   0.46179   0.00000  Uiso   1.00
O651   O     0.50000   0.43893   0.46176   0.00000  Uiso   1.00
O652   O     0.50000   0.56107   0.53824   0.00000  Uiso   1.00
O653   O     0.42392   0.50000   0.52928   0.00000  Uiso   1.00
O654   O     0.57608   0.50000   0.47072   0.00000  Uiso   1.00
O655   O     0.42392   0.50000   0.45284   0.00000  Uiso   1.00
O656   O     0.57608   0.50000   0.54716   0.00000  Uiso   1.00
Zn657  Zn    0.50000   0.49999   0.55104   0.00000  Uiso   1.00
Zn658  Zn    0.50000   0.50001   0.44896   0.00000  Uiso   1.00
Cl659  Cl    0.58602   0.62109   0.45174   0.00000  Uiso   1.00
Cl660  Cl    0.41398   0.37891   0.54826   0.00000  Uiso   1.00
N661   N     0.56617   0.55421   0.62797   0.00000  Uiso   1.00
H662   H     0.55904   0.58518   0.63475   0.00000  Uiso   1.00
C663   C     0.62146   0.54413   0.63886   0.00000  Uiso   1.00
H664   H     0.63587   0.54974   0.34239   0.00000  Uiso   1.00
H665   H     0.64421   0.56426   0.61838   0.00000  Uiso   1.00
H666   H     0.62834   0.51086   0.63053   0.00000  Uiso   1.00
N667   N     0.43383   0.44579   0.37203   0.00000  Uiso   1.00
H668   H     0.44096   0.41482   0.36525   0.00000  Uiso   1.00
C669   C     0.37855   0.45587   0.36114   0.00000  Uiso   1.00
H670   H     0.36413   0.45026   0.65760   0.00000  Uiso   1.00
H671   H     0.37165   0.48914   0.36947   0.00000  Uiso   1.00
H672   H     0.35579   0.43573   0.38162   0.00000  Uiso   1.00
C673   C     0.83218   0.42009   0.49983   0.00000  Uiso   1.00
C674   C     0.83449   0.57991   0.50017   0.00000  Uiso   1.00
C675   C     0.73369   0.49998   0.48798   0.00000  Uiso   1.00
C676   C     0.93297   0.50002   0.51202   0.00000  Uiso   1.00
C677   C     0.67857   0.50004   0.48156   0.00000  Uiso   1.00
C678   C     0.98810   0.49996   0.51844   0.00000  Uiso   1.00
C679   C     0.86846   0.35567   0.47742   0.00000  Uiso   1.00
C680   C     0.79821   0.64433   0.52258   0.00000  Uiso   1.00
C681   C     0.87043   0.64601   0.47770   0.00000  Uiso   1.00
C682   C     0.79623   0.35399   0.52230   0.00000  Uiso   1.00
C683   C     0.83487   0.62404   0.50025   0.00000  Uiso   1.00
C684   C     0.83180   0.37596   0.49975   0.00000  Uiso   1.00
C685   C     0.86531   0.52655   0.36176   0.00000  Uiso   1.00
C686   C     0.80135   0.47345   0.63824   0.00000  Uiso   1.00
C687   C     0.86579   0.52642   0.64713   0.00000  Uiso   1.00
C688   C     0.80087   0.47358   0.35287   0.00000  Uiso   1.00
H689   H     0.99108   0.50020   0.44665   0.00000  Uiso   1.00
H690   H     0.67558   0.49980   0.55335   0.00000  Uiso   1.00
H691   H     0.89611   0.37332   0.46070   0.00000  Uiso   1.00
H692   H     0.77056   0.62668   0.53930   0.00000  Uiso   1.00
H693   H     0.89078   0.54773   0.38359   0.00000  Uiso   1.00
H694   H     0.77589   0.45227   0.61641   0.00000  Uiso   1.00
N695   N     0.83332   0.49999   0.61907   0.00000  Uiso   1.00
N696   N     0.83335   0.50001   0.38093   0.00000  Uiso   1.00
O697   O     0.83333   0.43892   0.53821   0.00000  Uiso   1.00
O698   O     0.83334   0.56108   0.46179   0.00000  Uiso   1.00
O699   O     0.83333   0.43893   0.46176   0.00000  Uiso   1.00
O700   O     0.83334   0.56107   0.53824   0.00000  Uiso   1.00
O701   O     0.75725   0.50000   0.52928   0.00000  Uiso   1.00
O702   O     0.90942   0.50000   0.47072   0.00000  Uiso   1.00
O703   O     0.75725   0.50000   0.45284   0.00000  Uiso   1.00
O704   O     0.90942   0.50000   0.54716   0.00000  Uiso   1.00
Zn705  Zn    0.83333   0.49999   0.55104   0.00000  Uiso   1.00
Zn706  Zn    0.83333   0.50001   0.44896   0.00000  Uiso   1.00
Cl707  Cl    0.91936   0.62109   0.45174   0.00000  Uiso   1.00
Cl708  Cl    0.74731   0.37891   0.54826   0.00000  Uiso   1.00
N709   N     0.89950   0.55421   0.62797   0.00000  Uiso   1.00
H710   H     0.89237   0.58518   0.63475   0.00000  Uiso   1.00
C711   C     0.95479   0.54413   0.63886   0.00000  Uiso   1.00
H712   H     0.96920   0.54974   0.34239   0.00000  Uiso   1.00
H713   H     0.97754   0.56426   0.61838   0.00000  Uiso   1.00
H714   H     0.96168   0.51086   0.63053   0.00000  Uiso   1.00
N715   N     0.76717   0.44579   0.37203   0.00000  Uiso   1.00
H716   H     0.77430   0.41482   0.36525   0.00000  Uiso   1.00
C717   C     0.71188   0.45587   0.36114   0.00000  Uiso   1.00
H718   H     0.69747   0.45026   0.65760   0.00000  Uiso   1.00
H719   H     0.70499   0.48914   0.36947   0.00000  Uiso   1.00
H720   H     0.68912   0.43573   0.38162   0.00000  Uiso   1.00
C721   C     0.16551   0.75342   0.49983   0.00000  Uiso   1.00
C722   C     0.16782   0.91324   0.50017   0.00000  Uiso   1.00
C723   C     0.06703   0.83332   0.48798   0.00000  Uiso   1.00
C724   C     0.26631   0.83335   0.51202   0.00000  Uiso   1.00
C725   C     0.01190   0.83338   0.48156   0.00000  Uiso   1.00
C726   C     0.32143   0.83329   0.51844   0.00000  Uiso   1.00
C727   C     0.20179   0.68900   0.47742   0.00000  Uiso   1.00
C728   C     0.13154   0.97766   0.52258   0.00000  Uiso   1.00
C729   C     0.20377   0.97934   0.47770   0.00000  Uiso   1.00
C730   C     0.12957   0.68733   0.52230   0.00000  Uiso   1.00
C731   C     0.16821   0.95737   0.50025   0.00000  Uiso   1.00
C732   C     0.16513   0.70930   0.49975   0.00000  Uiso   1.00
C733   C     0.19865   0.85988   0.36176   0.00000  Uiso   1.00
C734   C     0.13469   0.80679   0.63824   0.00000  Uiso   1.00
C735   C     0.19913   0.85975   0.64713   0.00000  Uiso   1.00
C736   C     0.13421   0.80691   0.35287   0.00000  Uiso   1.00
H737   H     0.32442   0.83353   0.44665   0.00000  Uiso   1.00
H738   H     0.00892   0.83314   0.55335   0.00000  Uiso   1.00
H739   H     0.22944   0.70666   0.46070   0.00000  Uiso   1.00
H740   H     0.10389   0.96001   0.53930   0.00000  Uiso   1.00
H741   H     0.22411   0.88106   0.38359   0.00000  Uiso   1.00
H742   H     0.10922   0.78561   0.61641   0.00000  Uiso   1.00
N743   N     0.16665   0.83332   0.61907   0.00000  Uiso   1.00
N744   N     0.16668   0.83334   0.38093   0.00000  Uiso   1.00
O745   O     0.16666   0.77225   0.53821   0.00000  Uiso   1.00
O746   O     0.16667   0.89442   0.46179   0.00000  Uiso   1.00
O747   O     0.16666   0.77226   0.46176   0.00000  Uiso   1.00
O748   O     0.16667   0.89441   0.53824   0.00000  Uiso   1.00
O749   O     0.09058   0.83333   0.52928   0.00000  Uiso   1.00
O750   O     0.24275   0.83334   0.47072   0.00000  Uiso   1.00
O751   O     0.09058   0.83334   0.45284   0.00000  Uiso   1.00
O752   O     0.24275   0.83333   0.54716   0.00000  Uiso   1.00
Zn753  Zn    0.16667   0.83333   0.55104   0.00000  Uiso   1.00
Zn754  Zn    0.16667   0.83334   0.44896   0.00000  Uiso   1.00
Cl755  Cl    0.25269   0.95442   0.45174   0.00000  Uiso   1.00
Cl756  Cl    0.08064   0.71224   0.54826   0.00000  Uiso   1.00
N757   N     0.23283   0.88754   0.62797   0.00000  Uiso   1.00
H758   H     0.22570   0.91851   0.63475   0.00000  Uiso   1.00
C759   C     0.28812   0.87746   0.63886   0.00000  Uiso   1.00
H760   H     0.30253   0.88307   0.34239   0.00000  Uiso   1.00
H761   H     0.31088   0.89760   0.61838   0.00000  Uiso   1.00
H762   H     0.29501   0.84419   0.63053   0.00000  Uiso   1.00
N763   N     0.10050   0.77913   0.37203   0.00000  Uiso   1.00
H764   H     0.10763   0.74815   0.36525   0.00000  Uiso   1.00
C765   C     0.04521   0.78921   0.36114   0.00000  Uiso   1.00
H766   H     0.03080   0.78360   0.65760   0.00000  Uiso   1.00
H767   H     0.03832   0.82247   0.36947   0.00000  Uiso   1.00
H768   H     0.02246   0.76907   0.38162   0.00000  Uiso   1.00
C769   C     0.49885   0.75342   0.49983   0.00000  Uiso   1.00
C770   C     0.50115   0.91324   0.50017   0.00000  Uiso   1.00
C771   C     0.40036   0.83332   0.48798   0.00000  Uiso   1.00
C772   C     0.59964   0.83335   0.51202   0.00000  Uiso   1.00
C773   C     0.34524   0.83338   0.48156   0.00000  Uiso   1.00
C774   C     0.65476   0.83329   0.51844   0.00000  Uiso   1.00
C775   C     0.53512   0.68900   0.47742   0.00000  Uiso   1.00
C776   C     0.46488   0.97766   0.52258   0.00000  Uiso   1.00
C777   C     0.53710   0.97934   0.47770   0.00000  Uiso   1.00
C778   C     0.46290   0.68733   0.52230   0.00000  Uiso   1.00
C779   C     0.50154   0.95737   0.50025   0.00000  Uiso   1.00
C780   C     0.49846   0.70930   0.49975   0.00000  Uiso   1.00
C781   C     0.53198   0.85988   0.36176   0.00000  Uiso   1.00
C782   C     0.46802   0.80679   0.63824   0.00000  Uiso   1.00
C783   C     0.53246   0.85975   0.64713   0.00000  Uiso   1.00
C784   C     0.46754   0.80691   0.35287   0.00000  Uiso   1.00
H785   H     0.65775   0.83353   0.44665   0.00000  Uiso   1.00
H786   H     0.34225   0.83314   0.55335   0.00000  Uiso   1.00
H787   H     0.56277   0.70666   0.46070   0.00000  Uiso   1.00
H788   H     0.43723   0.96001   0.53930   0.00000  Uiso   1.00
H789   H     0.55744   0.88106   0.38359   0.00000  Uiso   1.00
H790   H     0.44256   0.78561   0.61641   0.00000  Uiso   1.00
N791   N     0.49999   0.83332   0.61907   0.00000  Uiso   1.00
N792   N     0.50001   0.83334   0.38093   0.00000  Uiso   1.00
O793   O     0.50000   0.77225   0.53821   0.00000  Uiso   1.00
O794   O     0.50000   0.89442   0.46179   0.00000  Uiso   1.00
O795   O     0.50000   0.77226   0.46176   0.00000  Uiso   1.00
O796   O     0.50000   0.89441   0.53824   0.00000  Uiso   1.00
O797   O     0.42392   0.83333   0.52928   0.00000  Uiso   1.00
O798   O     0.57608   0.83334   0.47072   0.00000  Uiso   1.00
O799   O     0.42392   0.83334   0.45284   0.00000  Uiso   1.00
O800   O     0.57608   0.83333   0.54716   0.00000  Uiso   1.00
Zn801  Zn    0.50000   0.83333   0.55104   0.00000  Uiso   1.00
Zn802  Zn    0.50000   0.83334   0.44896   0.00000  Uiso   1.00
Cl803  Cl    0.58602   0.95442   0.45174   0.00000  Uiso   1.00
Cl804  Cl    0.41398   0.71224   0.54826   0.00000  Uiso   1.00
N805   N     0.56617   0.88754   0.62797   0.00000  Uiso   1.00
H806   H     0.55904   0.91851   0.63475   0.00000  Uiso   1.00
C807   C     0.62146   0.87746   0.63886   0.00000  Uiso   1.00
H808   H     0.63587   0.88307   0.34239   0.00000  Uiso   1.00
H809   H     0.64421   0.89760   0.61838   0.00000  Uiso   1.00
H810   H     0.62834   0.84419   0.63053   0.00000  Uiso   1.00
N811   N     0.43383   0.77913   0.37203   0.00000  Uiso   1.00
H812   H     0.44096   0.74815   0.36525   0.00000  Uiso   1.00
C813   C     0.37855   0.78921   0.36114   0.00000  Uiso   1.00
H814   H     0.36413   0.78360   0.65760   0.00000  Uiso   1.00
H815   H     0.37165   0.82247   0.36947   0.00000  Uiso   1.00
H816   H     0.35579   0.76907   0.38162   0.00000  Uiso   1.00
C817   C     0.83218   0.75342   0.49983   0.00000  Uiso   1.00
C818   C     0.83449   0.91324   0.50017   0.00000  Uiso   1.00
C819   C     0.73369   0.83332   0.48798   0.00000  Uiso   1.00
C820   C     0.93297   0.83335   0.51202   0.00000  Uiso   1.00
C821   C     0.67857   0.83338   0.48156   0.00000  Uiso   1.00
C822   C     0.98810   0.83329   0.51844   0.00000  Uiso   1.00
C823   C     0.86846   0.68900   0.47742   0.00000  Uiso   1.00
C824   C     0.79821   0.97766   0.52258   0.00000  Uiso   1.00
C825   C     0.87043   0.97934   0.47770   0.00000  Uiso   1.00
C826   C     0.79623   0.68733   0.52230   0.00000  Uiso   1.00
C827   C     0.83487   0.95737   0.50025   0.00000  Uiso   1.00
C828   C     0.83180   0.70930   0.49975   0.00000  Uiso   1.00
C829   C     0.86531   0.85988   0.36176   0.00000  Uiso   1.00
C830   C     0.80135   0.80679   0.63824   0.00000  Uiso   1.00
C831   C     0.86579   0.85975   0.64713   0.00000  Uiso   1.00
C832   C     0.80087   0.80691   0.35287   0.00000  Uiso   1.00
H833   H     0.99108   0.83353   0.44665   0.00000  Uiso   1.00
H834   H     0.67558   0.83314   0.55335   0.00000  Uiso   1.00
H835   H     0.89611   0.70666   0.46070   0.00000  Uiso   1.00
H836   H     0.77056   0.96001   0.53930   0.00000  Uiso   1.00
H837   H     0.89078   0.88106   0.38359   0.00000  Uiso   1.00
H838   H     0.77589   0.78561   0.61641   0.00000  Uiso   1.00
N839   N     0.83332   0.83332   0.61907   0.00000  Uiso   1.00
N840   N     0.83335   0.83334   0.38093   0.00000  Uiso   1.00
O841   O     0.83333   0.77225   0.53821   0.00000  Uiso   1.00
O842   O     0.83334   0.89442   0.46179   0.00000  Uiso   1.00
O843   O     0.83333   0.77226   0.46176   0.00000  Uiso   1.00
O844   O     0.83334   0.89441   0.53824   0.00000  Uiso   1.00
O845   O     0.75725   0.83333   0.52928   0.00000  Uiso   1.00
O846   O     0.90942   0.83334   0.47072   0.00000  Uiso   1.00
O847   O     0.75725   0.83334   0.45284   0.00000  Uiso   1.00
O848   O     0.90942   0.83333   0.54716   0.00000  Uiso   1.00
Zn849  Zn    0.83333   0.83333   0.55104   0.00000  Uiso   1.00
Zn850  Zn    0.83333   0.83334   0.44896   0.00000  Uiso   1.00
Cl851  Cl    0.91936   0.95442   0.45174   0.00000  Uiso   1.00
Cl852  Cl    0.74731   0.71224   0.54826   0.00000  Uiso   1.00
N853   N     0.89950   0.88754   0.62797   0.00000  Uiso   1.00
H854   H     0.89237   0.91851   0.63475   0.00000  Uiso   1.00
C855   C     0.95479   0.87746   0.63886   0.00000  Uiso   1.00
H856   H     0.96920   0.88307   0.34239   0.00000  Uiso   1.00
H857   H     0.97754   0.89760   0.61838   0.00000  Uiso   1.00
H858   H     0.96168   0.84419   0.63053   0.00000  Uiso   1.00
N859   N     0.76717   0.77913   0.37203   0.00000  Uiso   1.00
H860   H     0.77430   0.74815   0.36525   0.00000  Uiso   1.00
C861   C     0.71188   0.78921   0.36114   0.00000  Uiso   1.00
H862   H     0.69747   0.78360   0.65760   0.00000  Uiso   1.00
H863   H     0.70499   0.82247   0.36947   0.00000  Uiso   1.00
H864   H     0.68912   0.76907   0.38162   0.00000  Uiso   1.00
C865   C     0.16551   0.08676   0.83316   0.00000  Uiso   1.00
C866   C     0.16782   0.24658   0.83350   0.00000  Uiso   1.00
C867   C     0.06703   0.16665   0.82131   0.00000  Uiso   1.00
C868   C     0.26631   0.16668   0.84535   0.00000  Uiso   1.00
C869   C     0.01190   0.16671   0.81490   0.00000  Uiso   1.00
C870   C     0.32143   0.16662   0.85177   0.00000  Uiso   1.00
C871   C     0.20179   0.02234   0.81076   0.00000  Uiso   1.00
C872   C     0.13154   0.31100   0.85591   0.00000  Uiso   1.00
C873   C     0.20377   0.31267   0.81103   0.00000  Uiso   1.00
C874   C     0.12957   0.02066   0.85564   0.00000  Uiso   1.00
C875   C     0.16821   0.29070   0.83358   0.00000  Uiso   1.00
C876   C     0.16513   0.04263   0.83309   0.00000  Uiso   1.00
C877   C     0.19865   0.19321   0.69509   0.00000  Uiso   1.00
C878   C     0.13469   0.14012   0.97157   0.00000  Uiso   1.00
C879   C     0.19913   0.19309   0.98047   0.00000  Uiso   1.00
C880   C     0.13421   0.14025   0.68620   0.00000  Uiso   1.00
H881   H     0.32442   0.16686   0.77999   0.00000  Uiso   1.00
H882   H     0.00892   0.16647   0.88668   0.00000  Uiso   1.00
H883   H     0.22944   0.03999   0.79403   0.00000  Uiso   1.00
H884   H     0.10389   0.29334   0.87263   0.00000  Uiso   1.00
H885   H     0.22411   0.21439   0.71692   0.00000  Uiso   1.00
H886   H     0.10922   0.11894   0.94975   0.00000  Uiso   1.00
N887   N     0.16665   0.16666   0.95240   0.00000  Uiso   1.00
N888   N     0.16668   0.16668   0.71427   0.00000  Uiso   1.00
O889   O     0.16666   0.10558   0.87154   0.00000  Uiso   1.00
O890   O     0.16667   0.22775   0.79513   0.00000  Uiso   1.00
O891   O     0.16666   0.10559   0.79510   0.00000  Uiso   1.00
O892   O     0.16667   0.22774   0.87157   0.00000  Uiso   1.00
O893   O     0.09058   0.16666   0.86261   0.00000  Uiso   1.00
O894   O     0.24275   0.16667   0.80405   0.00000  Uiso   1.00
O895   O     0.09058   0.16667   0.78617   0.00000  Uiso   1.00
O896   O     0.24275   0.16666   0.88050   0.00000  Uiso   1.00
Zn897  Zn    0.16667   0.16666   0.88437   0.00000  Uiso   1.00
Zn898  Zn    0.16667   0.16667   0.78229   0.00000  Uiso   1.00
Cl899  Cl    0.25269   0.28776   0.78507   0.00000  Uiso   1.00
Cl900  Cl    0.08064   0.04558   0.88159   0.00000  Uiso   1.00
N901   N     0.23283   0.22087   0.96131   0.00000  Uiso   1.00
H902   H     0.22570   0.25185   0.96808   0.00000  Uiso   1.00
C903   C     0.28812   0.21079   0.97219   0.00000  Uiso   1.00
H904   H     0.30253   0.21641   0.67573   0.00000  Uiso   1.00
H905   H     0.31088   0.23093   0.95171   0.00000  Uiso   1.00
H906   H     0.29501   0.17753   0.96386   0.00000  Uiso   1.00
N907   N     0.10050   0.11246   0.70536   0.00000  Uiso   1.00
H908   H     0.10763   0.08149   0.69858   0.00000  Uiso   1.00
C909   C     0.04521   0.12254   0.69447   0.00000  Uiso   1.00
H910   H     0.03080   0.11693   0.99094   0.00000  Uiso   1.00
H911   H     0.03832   0.15580   0.70280   0.00000  Uiso   1.00
H912   H     0.02246   0.10240   0.71495   0.00000  Uiso   1.00
C913   C     0.49885   0.08676   0.83316   0.00000  Uiso   1.00
C914   C     0.50115   0.24658   0.83350   0.00000  Uiso   1.00
C915   C     0.40036   0.16665   0.82131   0.00000  Uiso   1.00
C916   C     0.59964   0.16668   0.84535   0.00000  Uiso   1.00
C917   C     0.34524   0.16671   0.81490   0.00000  Uiso   1.00
C918   C     0.65476   0.16662   0.85177   0.00000  Uiso   1.00
C919   C     0.53512   0.02234   0.81076   0.00000  Uiso   1.00
C920   C     0.46488   0.31100   0.85591   0.00000  Uiso   1.00
C921   C     0.53710   0.31267   0.81103   0.00000  Uiso   1.00
C922   C     0.46290   0.02066   0.85564   0.00000  Uiso   1.00
C923   C     0.50154   0.29070   0.83358   0.00000  Uiso   1.00
C924   C     0.49846   0.04263   0.83309   0.00000  Uiso   1.00
C925   C     0.53198   0.19321   0.69509   0.00000  Uiso   1.00
C926   C     0.46802   0.14012   0.97157   0.00000  Uiso   1.00
C927   C     0.53246   0.19309   0.98047   0.00000  Uiso   1.00
C928   C     0.46754   0.14025   0.68620   0.00000  Uiso   1.00
H929   H     0.65775   0.16686   0.77999   0.00000  Uiso   1.00
H930   H     0.34225   0.16647   0.88668   0.00000  Uiso   1.00
H931   H     0.56277   0.03999   0.79403   0.00000  Uiso   1.00
H932   H     0.43723   0.29334   0.87263   0.00000  Uiso   1.00
H933   H     0.55744   0.21439   0.71692   0.00000  Uiso   1.00
H934   H     0.44256   0.11894   0.94975   0.00000  Uiso   1.00
N935   N     0.49999   0.16666   0.95240   0.00000  Uiso   1.00
N936   N     0.50001   0.16668   0.71427   0.00000  Uiso   1.00
O937   O     0.50000   0.10558   0.87154   0.00000  Uiso   1.00
O938   O     0.50000   0.22775   0.79513   0.00000  Uiso   1.00
O939   O     0.50000   0.10559   0.79510   0.00000  Uiso   1.00
O940   O     0.50000   0.22774   0.87157   0.00000  Uiso   1.00
O941   O     0.42392   0.16666   0.86261   0.00000  Uiso   1.00
O942   O     0.57608   0.16667   0.80405   0.00000  Uiso   1.00
O943   O     0.42392   0.16667   0.78617   0.00000  Uiso   1.00
O944   O     0.57608   0.16666   0.88050   0.00000  Uiso   1.00
Zn945  Zn    0.50000   0.16666   0.88437   0.00000  Uiso   1.00
Zn946  Zn    0.50000   0.16667   0.78229   0.00000  Uiso   1.00
Cl947  Cl    0.58602   0.28776   0.78507   0.00000  Uiso   1.00
Cl948  Cl    0.41398   0.04558   0.88159   0.00000  Uiso   1.00
N949   N     0.56617   0.22087   0.96131   0.00000  Uiso   1.00
H950   H     0.55904   0.25185   0.96808   0.00000  Uiso   1.00
C951   C     0.62146   0.21079   0.97219   0.00000  Uiso   1.00
H952   H     0.63587   0.21641   0.67573   0.00000  Uiso   1.00
H953   H     0.64421   0.23093   0.95171   0.00000  Uiso   1.00
H954   H     0.62834   0.17753   0.96386   0.00000  Uiso   1.00
N955   N     0.43383   0.11246   0.70536   0.00000  Uiso   1.00
H956   H     0.44096   0.08149   0.69858   0.00000  Uiso   1.00
C957   C     0.37855   0.12254   0.69447   0.00000  Uiso   1.00
H958   H     0.36413   0.11693   0.99094   0.00000  Uiso   1.00
H959   H     0.37165   0.15580   0.70280   0.00000  Uiso   1.00
H960   H     0.35579   0.10240   0.71495   0.00000  Uiso   1.00
C961   C     0.83218   0.08676   0.83316   0.00000  Uiso   1.00
C962   C     0.83449   0.24658   0.83350   0.00000  Uiso   1.00
C963   C     0.73369   0.16665   0.82131   0.00000  Uiso   1.00
C964   C     0.93297   0.16668   0.84535   0.00000  Uiso   1.00
C965   C     0.67857   0.16671   0.81490   0.00000  Uiso   1.00
C966   C     0.98810   0.16662   0.85177   0.00000  Uiso   1.00
C967   C     0.86846   0.02234   0.81076   0.00000  Uiso   1.00
C968   C     0.79821   0.31100   0.85591   0.00000  Uiso   1.00
C969   C     0.87043   0.31267   0.81103   0.00000  Uiso   1.00
C970   C     0.79623   0.02066   0.85564   0.00000  Uiso   1.00
C971   C     0.83487   0.29070   0.83358   0.00000  Uiso   1.00
C972   C     0.83180   0.04263   0.83309   0.00000  Uiso   1.00
C973   C     0.86531   0.19321   0.69509   0.00000  Uiso   1.00
C974   C     0.80135   0.14012   0.97157   0.00000  Uiso   1.00
C975   C     0.86579   0.19309   0.98047   0.00000  Uiso   1.00
C976   C     0.80087   0.14025   0.68620   0.00000  Uiso   1.00
H977   H     0.99108   0.16686   0.77999   0.00000  Uiso   1.00
H978   H     0.67558   0.16647   0.88668   0.00000  Uiso   1.00
H979   H     0.89611   0.03999   0.79403   0.00000  Uiso   1.00
H980   H     0.77056   0.29334   0.87263   0.00000  Uiso   1.00
H981   H     0.89078   0.21439   0.71692   0.00000  Uiso   1.00
H982   H     0.77589   0.11894   0.94975   0.00000  Uiso   1.00
N983   N     0.83332   0.16666   0.95240   0.00000  Uiso   1.00
N984   N     0.83335   0.16668   0.71427   0.00000  Uiso   1.00
O985   O     0.83333   0.10558   0.87154   0.00000  Uiso   1.00
O986   O     0.83334   0.22775   0.79513   0.00000  Uiso   1.00
O987   O     0.83333   0.10559   0.79510   0.00000  Uiso   1.00
O988   O     0.83334   0.22774   0.87157   0.00000  Uiso   1.00
O989   O     0.75725   0.16666   0.86261   0.00000  Uiso   1.00
O990   O     0.90942   0.16667   0.80405   0.00000  Uiso   1.00
O991   O     0.75725   0.16667   0.78617   0.00000  Uiso   1.00
O992   O     0.90942   0.16666   0.88050   0.00000  Uiso   1.00
Zn993  Zn    0.83333   0.16666   0.88437   0.00000  Uiso   1.00
Zn994  Zn    0.83333   0.16667   0.78229   0.00000  Uiso   1.00
Cl995  Cl    0.91936   0.28776   0.78507   0.00000  Uiso   1.00
Cl996  Cl    0.74731   0.04558   0.88159   0.00000  Uiso   1.00
N997   N     0.89950   0.22087   0.96131   0.00000  Uiso   1.00
H998   H     0.89237   0.25185   0.96808   0.00000  Uiso   1.00
C999   C     0.95479   0.21079   0.97219   0.00000  Uiso   1.00
H1000  H     0.96920   0.21641   0.67573   0.00000  Uiso   1.00
H1001  H     0.97754   0.23093   0.95171   0.00000  Uiso   1.00
H1002  H     0.96168   0.17753   0.96386   0.00000  Uiso   1.00
N1003  N     0.76717   0.11246   0.70536   0.00000  Uiso   1.00
H1004  H     0.77430   0.08149   0.69858   0.00000  Uiso   1.00
C1005  C     0.71188   0.12254   0.69447   0.00000  Uiso   1.00
H1006  H     0.69747   0.11693   0.99094   0.00000  Uiso   1.00
H1007  H     0.70499   0.15580   0.70280   0.00000  Uiso   1.00
H1008  H     0.68912   0.10240   0.71495   0.00000  Uiso   1.00
C1009  C     0.16551   0.42009   0.83316   0.00000  Uiso   1.00
C1010  C     0.16782   0.57991   0.83350   0.00000  Uiso   1.00
C1011  C     0.06703   0.49998   0.82131   0.00000  Uiso   1.00
C1012  C     0.26631   0.50002   0.84535   0.00000  Uiso   1.00
C1013  C     0.01190   0.50004   0.81490   0.00000  Uiso   1.00
C1014  C     0.32143   0.49996   0.85177   0.00000  Uiso   1.00
C1015  C     0.20179   0.35567   0.81076   0.00000  Uiso   1.00
C1016  C     0.13154   0.64433   0.85591   0.00000  Uiso   1.00
C1017  C     0.20377   0.64601   0.81103   0.00000  Uiso   1.00
C1018  C     0.12957   0.35399   0.85564   0.00000  Uiso   1.00
C1019  C     0.16821   0.62404   0.83358   0.00000  Uiso   1.00
C1020  C     0.16513   0.37596   0.83309   0.00000  Uiso   1.00
C1021  C     0.19865   0.52655   0.69509   0.00000  Uiso   1.00
C1022  C     0.13469   0.47345   0.97157   0.00000  Uiso   1.00
C1023  C     0.19913   0.52642   0.98047   0.00000  Uiso   1.00
C1024  C     0.13421   0.47358   0.68620   0.00000  Uiso   1.00
H1025  H     0.32442   0.50020   0.77999   0.00000  Uiso   1.00
H1026  H     0.00892   0.49980   0.88668   0.00000  Uiso   1.00
H1027  H     0.22944   0.37332   0.79403   0.00000  Uiso   1.00
H1028  H     0.10389   0.62668   0.87263   0.00000  Uiso   1.00
H1029  H     0.22411   0.54773   0.71692   0.00000  Uiso   1.00
H1030  H     0.10922   0.45227   0.94975   0.00000  Uiso   1.00
N1031  N     0.16665   0.49999   0.95240   0.00000  Uiso   1.00
N1032  N     0.16668   0.50001   0.71427   0.00000  Uiso   1.00
O1033  O     0.16666   0.43892   0.87154   0.00000  Uiso   1.00
O1034  O     0.16667   0.56108   0.79513   0.00000  Uiso   1.00
O1035  O     0.16666   0.43893   0.79510   0.00000  Uiso   1.00
O1036  O     0.16667   0.56107   0.87157   0.00000  Uiso   1.00
O1037  O     0.09058   0.50000   0.86261   0.00000  Uiso   1.00
O1038  O     0.24275   0.50000   0.80405   0.00000  Uiso   1.00
O1039  O     0.09058   0.50000   0.78617   0.00000  Uiso   1.00
O1040  O     0.24275   0.50000   0.88050   0.00000  Uiso   1.00
Zn1041 Zn    0.16667   0.49999   0.88437   0.00000  Uiso   1.00
Zn1042 Zn    0.16667   0.50001   0.78229   0.00000  Uiso   1.00
Cl1043 Cl    0.25269   0.62109   0.78507   0.00000  Uiso   1.00
Cl1044 Cl    0.08064   0.37891   0.88159   0.00000  Uiso   1.00
N1045  N     0.23283   0.55421   0.96131   0.00000  Uiso   1.00
H1046  H     0.22570   0.58518   0.96808   0.00000  Uiso   1.00
C1047  C     0.28812   0.54413   0.97219   0.00000  Uiso   1.00
H1048  H     0.30253   0.54974   0.67573   0.00000  Uiso   1.00
H1049  H     0.31088   0.56426   0.95171   0.00000  Uiso   1.00
H1050  H     0.29501   0.51086   0.96386   0.00000  Uiso   1.00
N1051  N     0.10050   0.44579   0.70536   0.00000  Uiso   1.00
H1052  H     0.10763   0.41482   0.69858   0.00000  Uiso   1.00
C1053  C     0.04521   0.45587   0.69447   0.00000  Uiso   1.00
H1054  H     0.03080   0.45026   0.99094   0.00000  Uiso   1.00
H1055  H     0.03832   0.48914   0.70280   0.00000  Uiso   1.00
H1056  H     0.02246   0.43573   0.71495   0.00000  Uiso   1.00
C1057  C     0.49885   0.42009   0.83316   0.00000  Uiso   1.00
C1058  C     0.50115   0.57991   0.83350   0.00000  Uiso   1.00
C1059  C     0.40036   0.49998   0.82131   0.00000  Uiso   1.00
C1060  C     0.59964   0.50002   0.84535   0.00000  Uiso   1.00
C1061  C     0.34524   0.50004   0.81490   0.00000  Uiso   1.00
C1062  C     0.65476   0.49996   0.85177   0.00000  Uiso   1.00
C1063  C     0.53512   0.35567   0.81076   0.00000  Uiso   1.00
C1064  C     0.46488   0.64433   0.85591   0.00000  Uiso   1.00
C1065  C     0.53710   0.64601   0.81103   0.00000  Uiso   1.00
C1066  C     0.46290   0.35399   0.85564   0.00000  Uiso   1.00
C1067  C     0.50154   0.62404   0.83358   0.00000  Uiso   1.00
C1068  C     0.49846   0.37596   0.83309   0.00000  Uiso   1.00
C1069  C     0.53198   0.52655   0.69509   0.00000  Uiso   1.00
C1070  C     0.46802   0.47345   0.97157   0.00000  Uiso   1.00
C1071  C     0.53246   0.52642   0.98047   0.00000  Uiso   1.00
C1072  C     0.46754   0.47358   0.68620   0.00000  Uiso   1.00
H1073  H     0.65775   0.50020   0.77999   0.00000  Uiso   1.00
H1074  H     0.34225   0.49980   0.88668   0.00000  Uiso   1.00
H1075  H     0.56277   0.37332   0.79403   0.00000  Uiso   1.00
H1076  H     0.43723   0.62668   0.87263   0.00000  Uiso   1.00
H1077  H     0.55744   0.54773   0.71692   0.00000  Uiso   1.00
H1078  H     0.44256   0.45227   0.94975   0.00000  Uiso   1.00
N1079  N     0.49999   0.49999   0.95240   0.00000  Uiso   1.00
N1080  N     0.50001   0.50001   0.71427   0.00000  Uiso   1.00
O1081  O     0.50000   0.43892   0.87154   0.00000  Uiso   1.00
O1082  O     0.50000   0.56108   0.79513   0.00000  Uiso   1.00
O1083  O     0.50000   0.43893   0.79510   0.00000  Uiso   1.00
O1084  O     0.50000   0.56107   0.87157   0.00000  Uiso   1.00
O1085  O     0.42392   0.50000   0.86261   0.00000  Uiso   1.00
O1086  O     0.57608   0.50000   0.80405   0.00000  Uiso   1.00
O1087  O     0.42392   0.50000   0.78617   0.00000  Uiso   1.00
O1088  O     0.57608   0.50000   0.88050   0.00000  Uiso   1.00
Zn1089 Zn    0.50000   0.49999   0.88437   0.00000  Uiso   1.00
Zn1090 Zn    0.50000   0.50001   0.78229   0.00000  Uiso   1.00
Cl1091 Cl    0.58602   0.62109   0.78507   0.00000  Uiso   1.00
Cl1092 Cl    0.41398   0.37891   0.88159   0.00000  Uiso   1.00
N1093  N     0.56617   0.55421   0.96131   0.00000  Uiso   1.00
H1094  H     0.55904   0.58518   0.96808   0.00000  Uiso   1.00
C1095  C     0.62146   0.54413   0.97219   0.00000  Uiso   1.00
H1096  H     0.63587   0.54974   0.67573   0.00000  Uiso   1.00
H1097  H     0.64421   0.56426   0.95171   0.00000  Uiso   1.00
H1098  H     0.62834   0.51086   0.96386   0.00000  Uiso   1.00
N1099  N     0.43383   0.44579   0.70536   0.00000  Uiso   1.00
H1100  H     0.44096   0.41482   0.69858   0.00000  Uiso   1.00
C1101  C     0.37855   0.45587   0.69447   0.00000  Uiso   1.00
H1102  H     0.36413   0.45026   0.99094   0.00000  Uiso   1.00
H1103  H     0.37165   0.48914   0.70280   0.00000  Uiso   1.00
H1104  H     0.35579   0.43573   0.71495   0.00000  Uiso   1.00
C1105  C     0.83218   0.42009   0.83316   0.00000  Uiso   1.00
C1106  C     0.83449   0.57991   0.83350   0.00000  Uiso   1.00
C1107  C     0.73369   0.49998   0.82131   0.00000  Uiso   1.00
C1108  C     0.93297   0.50002   0.84535   0.00000  Uiso   1.00
C1109  C     0.67857   0.50004   0.81490   0.00000  Uiso   1.00
C1110  C     0.98810   0.49996   0.85177   0.00000  Uiso   1.00
C1111  C     0.86846   0.35567   0.81076   0.00000  Uiso   1.00
C1112  C     0.79821   0.64433   0.85591   0.00000  Uiso   1.00
C1113  C     0.87043   0.64601   0.81103   0.00000  Uiso   1.00
C1114  C     0.79623   0.35399   0.85564   0.00000  Uiso   1.00
C1115  C     0.83487   0.62404   0.83358   0.00000  Uiso   1.00
C1116  C     0.83180   0.37596   0.83309   0.00000  Uiso   1.00
C1117  C     0.86531   0.52655   0.69509   0.00000  Uiso   1.00
C1118  C     0.80135   0.47345   0.97157   0.00000  Uiso   1.00
C1119  C     0.86579   0.52642   0.98047   0.00000  Uiso   1.00
C1120  C     0.80087   0.47358   0.68620   0.00000  Uiso   1.00
H1121  H     0.99108   0.50020   0.77999   0.00000  Uiso   1.00
H1122  H     0.67558   0.49980   0.88668   0.00000  Uiso   1.00
H1123  H     0.89611   0.37332   0.79403   0.00000  Uiso   1.00
H1124  H     0.77056   0.62668   0.87263   0.00000  Uiso   1.00
H1125  H     0.89078   0.54773   0.71692   0.00000  Uiso   1.00
H1126  H     0.77589   0.45227   0.94975   0.00000  Uiso   1.00
N1127  N     0.83332   0.49999   0.95240   0.00000  Uiso   1.00
N1128  N     0.83335   0.50001   0.71427   0.00000  Uiso   1.00
O1129  O     0.83333   0.43892   0.87154   0.00000  Uiso   1.00
O1130  O     0.83334   0.56108   0.79513   0.00000  Uiso   1.00
O1131  O     0.83333   0.43893   0.79510   0.00000  Uiso   1.00
O1132  O     0.83334   0.56107   0.87157   0.00000  Uiso   1.00
O1133  O     0.75725   0.50000   0.86261   0.00000  Uiso   1.00
O1134  O     0.90942   0.50000   0.80405   0.00000  Uiso   1.00
O1135  O     0.75725   0.50000   0.78617   0.00000  Uiso   1.00
O1136  O     0.90942   0.50000   0.88050   0.00000  Uiso   1.00
Zn1137 Zn    0.83333   0.49999   0.88437   0.00000  Uiso   1.00
Zn1138 Zn    0.83333   0.50001   0.78229   0.00000  Uiso   1.00
Cl1139 Cl    0.91936   0.62109   0.78507   0.00000  Uiso   1.00
Cl1140 Cl    0.74731   0.37891   0.88159   0.00000  Uiso   1.00
N1141  N     0.89950   0.55421   0.96131   0.00000  Uiso   1.00
H1142  H     0.89237   0.58518   0.96808   0.00000  Uiso   1.00
C1143  C     0.95479   0.54413   0.97219   0.00000  Uiso   1.00
H1144  H     0.96920   0.54974   0.67573   0.00000  Uiso   1.00
H1145  H     0.97754   0.56426   0.95171   0.00000  Uiso   1.00
H1146  H     0.96168   0.51086   0.96386   0.00000  Uiso   1.00
N1147  N     0.76717   0.44579   0.70536   0.00000  Uiso   1.00
H1148  H     0.77430   0.41482   0.69858   0.00000  Uiso   1.00
C1149  C     0.71188   0.45587   0.69447   0.00000  Uiso   1.00
H1150  H     0.69747   0.45026   0.99094   0.00000  Uiso   1.00
H1151  H     0.70499   0.48914   0.70280   0.00000  Uiso   1.00
H1152  H     0.68912   0.43573   0.71495   0.00000  Uiso   1.00
C1153  C     0.16551   0.75342   0.83316   0.00000  Uiso   1.00
C1154  C     0.16782   0.91324   0.83350   0.00000  Uiso   1.00
C1155  C     0.06703   0.83332   0.82131   0.00000  Uiso   1.00
C1156  C     0.26631   0.83335   0.84535   0.00000  Uiso   1.00
C1157  C     0.01190   0.83338   0.81490   0.00000  Uiso   1.00
C1158  C     0.32143   0.83329   0.85177   0.00000  Uiso   1.00
C1159  C     0.20179   0.68900   0.81076   0.00000  Uiso   1.00
C1160  C     0.13154   0.97766   0.85591   0.00000  Uiso   1.00
C1161  C     0.20377   0.97934   0.81103   0.00000  Uiso   1.00
C1162  C     0.12957   0.68733   0.85564   0.00000  Uiso   1.00
C1163  C     0.16821   0.95737   0.83358   0.00000  Uiso   1.00
C1164  C     0.16513   0.70930   0.83309   0.00000  Uiso   1.00
C1165  C     0.19865   0.85988   0.69509   0.00000  Uiso   1.00
C1166  C     0.13469   0.80679   0.97157   0.00000  Uiso   1.00
C1167  C     0.19913   0.85975   0.98047   0.00000  Uiso   1.00
C1168  C     0.13421   0.80691   0.68620   0.00000  Uiso   1.00
H1169  H     0.32442   0.83353   0.77999   0.00000  Uiso   1.00
H1170  H     0.00892   0.83314   0.88668   0.00000  Uiso   1.00
H1171  H     0.22944   0.70666   0.79403   0.00000  Uiso   1.00
H1172  H     0.10389   0.96001   0.87263   0.00000  Uiso   1.00
H1173  H     0.22411   0.88106   0.71692   0.00000  Uiso   1.00
H1174  H     0.10922   0.78561   0.94975   0.00000  Uiso   1.00
N1175  N     0.16665   0.83332   0.95240   0.00000  Uiso   1.00
N1176  N     0.16668   0.83334   0.71427   0.00000  Uiso   1.00
O1177  O     0.16666   0.77225   0.87154   0.00000  Uiso   1.00
O1178  O     0.16667   0.89442   0.79513   0.00000  Uiso   1.00
O1179  O     0.16666   0.77226   0.79510   0.00000  Uiso   1.00
O1180  O     0.16667   0.89441   0.87157   0.00000  Uiso   1.00
O1181  O     0.09058   0.83333   0.86261   0.00000  Uiso   1.00
O1182  O     0.24275   0.83334   0.80405   0.00000  Uiso   1.00
O1183  O     0.09058   0.83334   0.78617   0.00000  Uiso   1.00
O1184  O     0.24275   0.83333   0.88050   0.00000  Uiso   1.00
Zn1185 Zn    0.16667   0.83333   0.88437   0.00000  Uiso   1.00
Zn1186 Zn    0.16667   0.83334   0.78229   0.00000  Uiso   1.00
Cl1187 Cl    0.25269   0.95442   0.78507   0.00000  Uiso   1.00
Cl1188 Cl    0.08064   0.71224   0.88159   0.00000  Uiso   1.00
N1189  N     0.23283   0.88754   0.96131   0.00000  Uiso   1.00
H1190  H     0.22570   0.91851   0.96808   0.00000  Uiso   1.00
C1191  C     0.28812   0.87746   0.97219   0.00000  Uiso   1.00
H1192  H     0.30253   0.88307   0.67573   0.00000  Uiso   1.00
H1193  H     0.31088   0.89760   0.95171   0.00000  Uiso   1.00
H1194  H     0.29501   0.84419   0.96386   0.00000  Uiso   1.00
N1195  N     0.10050   0.77913   0.70536   0.00000  Uiso   1.00
H1196  H     0.10763   0.74815   0.69858   0.00000  Uiso   1.00
C1197  C     0.04521   0.78921   0.69447   0.00000  Uiso   1.00
H1198  H     0.03080   0.78360   0.99094   0.00000  Uiso   1.00
H1199  H     0.03832   0.82247   0.70280   0.00000  Uiso   1.00
H1200  H     0.02246   0.76907   0.71495   0.00000  Uiso   1.00
C1201  C     0.49885   0.75342   0.83316   0.00000  Uiso   1.00
C1202  C     0.50115   0.91324   0.83350   0.00000  Uiso   1.00
C1203  C     0.40036   0.83332   0.82131   0.00000  Uiso   1.00
C1204  C     0.59964   0.83335   0.84535   0.00000  Uiso   1.00
C1205  C     0.34524   0.83338   0.81490   0.00000  Uiso   1.00
C1206  C     0.65476   0.83329   0.85177   0.00000  Uiso   1.00
C1207  C     0.53512   0.68900   0.81076   0.00000  Uiso   1.00
C1208  C     0.46488   0.97766   0.85591   0.00000  Uiso   1.00
C1209  C     0.53710   0.97934   0.81103   0.00000  Uiso   1.00
C1210  C     0.46290   0.68733   0.85564   0.00000  Uiso   1.00
C1211  C     0.50154   0.95737   0.83358   0.00000  Uiso   1.00
C1212  C     0.49846   0.70930   0.83309   0.00000  Uiso   1.00
C1213  C     0.53198   0.85988   0.69509   0.00000  Uiso   1.00
C1214  C     0.46802   0.80679   0.97157   0.00000  Uiso   1.00
C1215  C     0.53246   0.85975   0.98047   0.00000  Uiso   1.00
C1216  C     0.46754   0.80691   0.68620   0.00000  Uiso   1.00
H1217  H     0.65775   0.83353   0.77999   0.00000  Uiso   1.00
H1218  H     0.34225   0.83314   0.88668   0.00000  Uiso   1.00
H1219  H     0.56277   0.70666   0.79403   0.00000  Uiso   1.00
H1220  H     0.43723   0.96001   0.87263   0.00000  Uiso   1.00
H1221  H     0.55744   0.88106   0.71692   0.00000  Uiso   1.00
H1222  H     0.44256   0.78561   0.94975   0.00000  Uiso   1.00
N1223  N     0.49999   0.83332   0.95240   0.00000  Uiso   1.00
N1224  N     0.50001   0.83334   0.71427   0.00000  Uiso   1.00
O1225  O     0.50000   0.77225   0.87154   0.00000  Uiso   1.00
O1226  O     0.50000   0.89442   0.79513   0.00000  Uiso   1.00
O1227  O     0.50000   0.77226   0.79510   0.00000  Uiso   1.00
O1228  O     0.50000   0.89441   0.87157   0.00000  Uiso   1.00
O1229  O     0.42392   0.83333   0.86261   0.00000  Uiso   1.00
O1230  O     0.57608   0.83334   0.80405   0.00000  Uiso   1.00
O1231  O     0.42392   0.83334   0.78617   0.00000  Uiso   1.00
O1232  O     0.57608   0.83333   0.88050   0.00000  Uiso   1.00
Zn1233 Zn    0.50000   0.83333   0.88437   0.00000  Uiso   1.00
Zn1234 Zn    0.50000   0.83334   0.78229   0.00000  Uiso   1.00
Cl1235 Cl    0.58602   0.95442   0.78507   0.00000  Uiso   1.00
Cl1236 Cl    0.41398   0.71224   0.88159   0.00000  Uiso   1.00
N1237  N     0.56617   0.88754   0.96131   0.00000  Uiso   1.00
H1238  H     0.55904   0.91851   0.96808   0.00000  Uiso   1.00
C1239  C     0.62146   0.87746   0.97219   0.00000  Uiso   1.00
H1240  H     0.63587   0.88307   0.67573   0.00000  Uiso   1.00
H1241  H     0.64421   0.89760   0.95171   0.00000  Uiso   1.00
H1242  H     0.62834   0.84419   0.96386   0.00000  Uiso   1.00
N1243  N     0.43383   0.77913   0.70536   0.00000  Uiso   1.00
H1244  H     0.44096   0.74815   0.69858   0.00000  Uiso   1.00
C1245  C     0.37855   0.78921   0.69447   0.00000  Uiso   1.00
H1246  H     0.36413   0.78360   0.99094   0.00000  Uiso   1.00
H1247  H     0.37165   0.82247   0.70280   0.00000  Uiso   1.00
H1248  H     0.35579   0.76907   0.71495   0.00000  Uiso   1.00
C1249  C     0.83218   0.75342   0.83316   0.00000  Uiso   1.00
C1250  C     0.83449   0.91324   0.83350   0.00000  Uiso   1.00
C1251  C     0.73369   0.83332   0.82131   0.00000  Uiso   1.00
C1252  C     0.93297   0.83335   0.84535   0.00000  Uiso   1.00
C1253  C     0.67857   0.83338   0.81490   0.00000  Uiso   1.00
C1254  C     0.98810   0.83329   0.85177   0.00000  Uiso   1.00
C1255  C     0.86846   0.68900   0.81076   0.00000  Uiso   1.00
C1256  C     0.79821   0.97766   0.85591   0.00000  Uiso   1.00
C1257  C     0.87043   0.97934   0.81103   0.00000  Uiso   1.00
C1258  C     0.79623   0.68733   0.85564   0.00000  Uiso   1.00
C1259  C     0.83487   0.95737   0.83358   0.00000  Uiso   1.00
C1260  C     0.83180   0.70930   0.83309   0.00000  Uiso   1.00
C1261  C     0.86531   0.85988   0.69509   0.00000  Uiso   1.00
C1262  C     0.80135   0.80679   0.97157   0.00000  Uiso   1.00
C1263  C     0.86579   0.85975   0.98047   0.00000  Uiso   1.00
C1264  C     0.80087   0.80691   0.68620   0.00000  Uiso   1.00
H1265  H     0.99108   0.83353   0.77999   0.00000  Uiso   1.00
H1266  H     0.67558   0.83314   0.88668   0.00000  Uiso   1.00
H1267  H     0.89611   0.70666   0.79403   0.00000  Uiso   1.00
H1268  H     0.77056   0.96001   0.87263   0.00000  Uiso   1.00
H1269  H     0.89078   0.88106   0.71692   0.00000  Uiso   1.00
H1270  H     0.77589   0.78561   0.94975   0.00000  Uiso   1.00
N1271  N     0.83332   0.83332   0.95240   0.00000  Uiso   1.00
N1272  N     0.83335   0.83334   0.71427   0.00000  Uiso   1.00
O1273  O     0.83333   0.77225   0.87154   0.00000  Uiso   1.00
O1274  O     0.83334   0.89442   0.79513   0.00000  Uiso   1.00
O1275  O     0.83333   0.77226   0.79510   0.00000  Uiso   1.00
O1276  O     0.83334   0.89441   0.87157   0.00000  Uiso   1.00
O1277  O     0.75725   0.83333   0.86261   0.00000  Uiso   1.00
O1278  O     0.90942   0.83334   0.80405   0.00000  Uiso   1.00
O1279  O     0.75725   0.83334   0.78617   0.00000  Uiso   1.00
O1280  O     0.90942   0.83333   0.88050   0.00000  Uiso   1.00
Zn1281 Zn    0.83333   0.83333   0.88437   0.00000  Uiso   1.00
Zn1282 Zn    0.83333   0.83334   0.78229   0.00000  Uiso   1.00
Cl1283 Cl    0.91936   0.95442   0.78507   0.00000  Uiso   1.00
Cl1284 Cl    0.74731   0.71224   0.88159   0.00000  Uiso   1.00
N1285  N     0.89950   0.88754   0.96131   0.00000  Uiso   1.00
H1286  H     0.89237   0.91851   0.96808   0.00000  Uiso   1.00
C1287  C     0.95479   0.87746   0.97219   0.00000  Uiso   1.00
H1288  H     0.96920   0.88307   0.67573   0.00000  Uiso   1.00
H1289  H     0.97754   0.89760   0.95171   0.00000  Uiso   1.00
H1290  H     0.96168   0.84419   0.96386   0.00000  Uiso   1.00
N1291  N     0.76717   0.77913   0.70536   0.00000  Uiso   1.00
H1292  H     0.77430   0.74815   0.69858   0.00000  Uiso   1.00
C1293  C     0.71188   0.78921   0.69447   0.00000  Uiso   1.00
H1294  H     0.69747   0.78360   0.99094   0.00000  Uiso   1.00
H1295  H     0.70499   0.82247   0.70280   0.00000  Uiso   1.00
H1296  H     0.68912   0.76907   0.71495   0.00000  Uiso   1.00
loop_
_geom_bond_atom_site_label_1
_geom_bond_atom_site_label_2
_geom_bond_distance
_geom_bond_site_symmetry_2
_ccdc_geom_bond_type
C1     O25     1.281   .     A
C1     C12     1.409   .     S
C1     O27     1.282   .     A
C2     O26     1.281   .     A
C2     C11     1.409   .     S
C2     O28     1.282   .     A
C3     O31     1.283   .     A
C3     O29     1.278   .     A
C3     C5      1.402   .     S
C4     O32     1.283   .     A
C4     C6      1.402   .     S
C4     O30     1.278   .     A
C5     C102    1.332   1_455 S
C5     H113    1.088   1_455 S
C6     C53     1.332   .     S
C6     H66     1.088   .     S
C7     H19     1.085   .     S
C7     C12     1.394   .     A
C7     C297    1.374   1_545 S
C8     H20     1.085   .     S
C8     C11     1.394   .     A
C8     C154    1.374   .     S
C9     C11     1.401   .     A
C9     Cl35    1.765   .     S
C9     C151    1.374   .     S
C10    C12     1.401   .     A
C10    Cl36    1.765   .     S
C10    C296    1.374   1_545 S
C13    H21     1.082   .     S
C13    N24     1.363   .     A
C13    C879    1.422   1_554 S
C14    N23     1.363   .     A
C14    H22     1.082   .     S
C14    C448    1.422   .     S
C15    N23     1.371   .     A
C15    N37     1.418   .     S
C15    C445    1.422   .     S
C16    N24     1.371   .     A
C16    N43     1.418   .     S
C16    C878    1.422   1_554 S
H17    C53     1.088   .     S
H18    C102    1.088   1_455 S
N23    Zn33    2.014   .     S
N24    Zn34    2.014   .     S
O25    Zn33    1.986   .     S
O26    Zn34    1.986   .     S
O27    Zn34    1.987   .     S
O28    Zn33    1.987   .     S
O29    Zn33    1.965   .     S
O30    Zn34    1.965   .     S
O31    Zn34    1.980   .     S
O32    Zn33    1.980   .     S
N37    H38     1.031   .     S
N37    C39     1.447   .     S
C39    H42     1.111   .     S
C39    H41     1.110   .     S
C39    H472    1.111   .     S
H40    C903    1.111   1_554 S
N43    H44     1.031   .     S
N43    C45     1.447   .     S
C45    H48     1.110   .     S
C45    H47     1.111   .     S
C45    H910    1.111   1_554 S
H46    C477    1.111   .     S
C49    O73     1.281   .     A
C49    C60     1.409   .     S
C49    O75     1.282   .     A
C50    O74     1.281   .     A
C50    C59     1.409   .     S
C50    O76     1.282   .     A
C51    O79     1.283   .     A
C51    O77     1.278   .     A
C51    C53     1.402   .     S
C52    O80     1.283   .     A
C52    C54     1.402   .     S
C52    O78     1.278   .     A
C54    C101    1.332   .     S
C54    H114    1.088   .     S
C55    H67     1.085   .     S
C55    C60     1.394   .     A
C55    C345    1.374   1_545 S
C56    H68     1.085   .     S
C56    C59     1.394   .     A
C56    C202    1.374   .     S
C57    C59     1.401   .     A
C57    Cl83    1.765   .     S
C57    C199    1.374   .     S
C58    C60     1.401   .     A
C58    Cl84    1.765   .     S
C58    C344    1.374   1_545 S
C61    H69     1.082   .     S
C61    N72     1.363   .     A
C61    C927    1.422   1_554 S
C62    N71     1.363   .     A
C62    H70     1.082   .     S
C62    C496    1.422   .     S
C63    N71     1.371   .     A
C63    N85     1.418   .     S
C63    C493    1.422   .     S
C64    N72     1.371   .     A
C64    N91     1.418   .     S
C64    C926    1.422   1_554 S
H65    C101    1.088   .     S
N71    Zn81    2.014   .     S
N72    Zn82    2.014   .     S
O73    Zn81    1.986   .     S
O74    Zn82    1.986   .     S
O75    Zn82    1.987   .     S
O76    Zn81    1.987   .     S
O77    Zn81    1.965   .     S
O78    Zn82    1.965   .     S
O79    Zn82    1.980   .     S
O80    Zn81    1.980   .     S
N85    H86     1.031   .     S
N85    C87     1.447   .     S
C87    H90     1.111   .     S
C87    H89     1.110   .     S
C87    H520    1.111   .     S
H88    C951    1.111   1_554 S
N91    H92     1.031   .     S
N91    C93     1.447   .     S
C93    H96     1.110   .     S
C93    H95     1.111   .     S
C93    H958    1.111   1_554 S
H94    C525    1.111   .     S
C97    O121    1.281   .     A
C97    C108    1.409   .     S
C97    O123    1.282   .     A
C98    O122    1.281   .     A
C98    C107    1.409   .     S
C98    O124    1.282   .     A
C99    O127    1.283   .     A
C99    O125    1.278   .     A
C99    C101    1.402   .     S
C100   O128    1.283   .     A
C100   C102    1.402   .     S
C100   O126    1.278   .     A
C102   C5      1.332   1_655 S
C102   H18     1.088   1_655 S
C103   H115    1.085   .     S
C103   C108    1.394   .     A
C103   C393    1.374   1_545 S
C104   H116    1.085   .     S
C104   C107    1.394   .     A
C104   C250    1.374   .     S
C105   C107    1.401   .     A
C105   Cl131   1.765   .     S
C105   C247    1.374   .     S
C106   C108    1.401   .     A
C106   Cl132   1.765   .     S
C106   C392    1.374   1_545 S
C109   H117    1.082   .     S
C109   N120    1.363   .     A
C109   C975    1.422   1_554 S
C110   N119    1.363   .     A
C110   H118    1.082   .     S
C110   C544    1.422   .     S
C111   N119    1.371   .     A
C111   N133    1.418   .     S
C111   C541    1.422   .     S
C112   N120    1.371   .     A
C112   N139    1.418   .     S
C112   C974    1.422   1_554 S
H113   C5      1.088   1_655 S
N119   Zn129   2.014   .     S
N120   Zn130   2.014   .     S
O121   Zn129   1.986   .     S
O122   Zn130   1.986   .     S
O123   Zn130   1.987   .     S
O124   Zn129   1.987   .     S
O125   Zn129   1.965   .     S
O126   Zn130   1.965   .     S
O127   Zn130   1.980   .     S
O128   Zn129   1.980   .     S
N133   H134    1.031   .     S
N133   C135    1.447   .     S
C135   H138    1.111   .     S
C135   H137    1.110   .     S
C135   H568    1.111   .     S
H136   C999    1.111   1_554 S
N139   H140    1.031   .     S
N139   C141    1.447   .     S
C141   H144    1.110   .     S
C141   H143    1.111   .     S
C141   H1006   1.111   1_554 S
H142   C573    1.111   .     S
C145   O169    1.281   .     A
C145   C156    1.409   .     S
C145   O171    1.282   .     A
C146   O170    1.281   .     A
C146   C155    1.409   .     S
C146   O172    1.282   .     A
C147   O175    1.283   .     A
C147   O173    1.278   .     A
C147   C149    1.402   .     S
C148   O176    1.283   .     A
C148   C150    1.402   .     S
C148   O174    1.278   .     A
C149   C246    1.332   1_455 S
C149   H257    1.088   1_455 S
C150   C197    1.332   .     S
C150   H210    1.088   .     S
C151   H163    1.085   .     S
C151   C156    1.394   .     A
C152   H164    1.085   .     S
C152   C155    1.394   .     A
C152   C298    1.374   .     S
C153   C155    1.401   .     A
C153   Cl179   1.765   .     S
C153   C295    1.374   .     S
C154   C156    1.401   .     A
C154   Cl180   1.765   .     S
C157   H165    1.082   .     S
C157   N168    1.363   .     A
C157   C1023   1.422   1_554 S
C158   N167    1.363   .     A
C158   H166    1.082   .     S
C158   C592    1.422   .     S
C159   N167    1.371   .     A
C159   N181    1.418   .     S
C159   C589    1.422   .     S
C160   N168    1.371   .     A
C160   N187    1.418   .     S
C160   C1022   1.422   1_554 S
H161   C197    1.088   .     S
H162   C246    1.088   1_455 S
N167   Zn177   2.014   .     S
N168   Zn178   2.014   .     S
O169   Zn177   1.986   .     S
O170   Zn178   1.986   .     S
O171   Zn178   1.987   .     S
O172   Zn177   1.987   .     S
O173   Zn177   1.965   .     S
O174   Zn178   1.965   .     S
O175   Zn178   1.980   .     S
O176   Zn177   1.980   .     S
N181   H182    1.031   .     S
N181   C183    1.447   .     S
C183   H186    1.111   .     S
C183   H185    1.110   .     S
C183   H616    1.111   .     S
H184   C1047   1.111   1_554 S
N187   H188    1.031   .     S
N187   C189    1.447   .     S
C189   H192    1.110   .     S
C189   H191    1.111   .     S
C189   H1054   1.111   1_554 S
H190   C621    1.111   .     S
C193   O217    1.281   .     A
C193   C204    1.409   .     S
C193   O219    1.282   .     A
C194   O218    1.281   .     A
C194   C203    1.409   .     S
C194   O220    1.282   .     A
C195   O223    1.283   .     A
C195   O221    1.278   .     A
C195   C197    1.402   .     S
C196   O224    1.283   .     A
C196   C198    1.402   .     S
C196   O222    1.278   .     A
C198   C245    1.332   .     S
C198   H258    1.088   .     S
C199   H211    1.085   .     S
C199   C204    1.394   .     A
C200   H212    1.085   .     S
C200   C203    1.394   .     A
C200   C346    1.374   .     S
C201   C203    1.401   .     A
C201   Cl227   1.765   .     S
C201   C343    1.374   .     S
C202   C204    1.401   .     A
C202   Cl228   1.765   .     S
C205   H213    1.082   .     S
C205   N216    1.363   .     A
C205   C1071   1.422   1_554 S
C206   N215    1.363   .     A
C206   H214    1.082   .     S
C206   C640    1.422   .     S
C207   N215    1.371   .     A
C207   N229    1.418   .     S
C207   C637    1.422   .     S
C208   N216    1.371   .     A
C208   N235    1.418   .     S
C208   C1070   1.422   1_554 S
H209   C245    1.088   .     S
N215   Zn225   2.014   .     S
N216   Zn226   2.014   .     S
O217   Zn225   1.986   .     S
O218   Zn226   1.986   .     S
O219   Zn226   1.987   .     S
O220   Zn225   1.987   .     S
O221   Zn225   1.965   .     S
O222   Zn226   1.965   .     S
O223   Zn226   1.980   .     S
O224   Zn225   1.980   .     S
N229   H230    1.031   .     S
N229   C231    1.447   .     S
C231   H234    1.111   .     S
C231   H233    1.110   .     S
C231   H664    1.111   .     S
H232   C1095   1.111   1_554 S
N235   H236    1.031   .     S
N235   C237    1.447   .     S
C237   H240    1.110   .     S
C237   H239    1.111   .     S
C237   H1102   1.111   1_554 S
H238   C669    1.111   .     S
C241   O265    1.281   .     A
C241   C252    1.409   .     S
C241   O267    1.282   .     A
C242   O266    1.281   .     A
C242   C251    1.409   .     S
C242   O268    1.282   .     A
C243   O271    1.283   .     A
C243   O269    1.278   .     A
C243   C245    1.402   .     S
C244   O272    1.283   .     A
C244   C246    1.402   .     S
C244   O270    1.278   .     A
C246   C149    1.332   1_655 S
C246   H162    1.088   1_655 S
C247   H259    1.085   .     S
C247   C252    1.394   .     A
C248   H260    1.085   .     S
C248   C251    1.394   .     A
C248   C394    1.374   .     S
C249   C251    1.401   .     A
C249   Cl275   1.765   .     S
C249   C391    1.374   .     S
C250   C252    1.401   .     A
C250   Cl276   1.765   .     S
C253   H261    1.082   .     S
C253   N264    1.363   .     A
C253   C1119   1.422   1_554 S
C254   N263    1.363   .     A
C254   H262    1.082   .     S
C254   C688    1.422   .     S
C255   N263    1.371   .     A
C255   N277    1.418   .     S
C255   C685    1.422   .     S
C256   N264    1.371   .     A
C256   N283    1.418   .     S
C256   C1118   1.422   1_554 S
H257   C149    1.088   1_655 S
N263   Zn273   2.014   .     S
N264   Zn274   2.014   .     S
O265   Zn273   1.986   .     S
O266   Zn274   1.986   .     S
O267   Zn274   1.987   .     S
O268   Zn273   1.987   .     S
O269   Zn273   1.965   .     S
O270   Zn274   1.965   .     S
O271   Zn274   1.980   .     S
O272   Zn273   1.980   .     S
N277   H278    1.031   .     S
N277   C279    1.447   .     S
C279   H282    1.111   .     S
C279   H281    1.110   .     S
C279   H712    1.111   .     S
H280   C1143   1.111   1_554 S
N283   H284    1.031   .     S
N283   C285    1.447   .     S
C285   H288    1.110   .     S
C285   H287    1.111   .     S
C285   H1150   1.111   1_554 S
H286   C717    1.111   .     S
C289   O313    1.281   .     A
C289   C300    1.409   .     S
C289   O315    1.282   .     A
C290   O314    1.281   .     A
C290   C299    1.409   .     S
C290   O316    1.282   .     A
C291   O319    1.283   .     A
C291   O317    1.278   .     A
C291   C293    1.402   .     S
C292   O320    1.283   .     A
C292   C294    1.402   .     S
C292   O318    1.278   .     A
C293   C390    1.332   1_455 S
C293   H401    1.088   1_455 S
C294   C341    1.332   .     S
C294   H354    1.088   .     S
C295   H307    1.085   .     S
C295   C300    1.394   .     A
C296   H308    1.085   .     S
C296   C299    1.394   .     A
C296   C10     1.374   1_565 S
C297   C299    1.401   .     A
C297   Cl323   1.765   .     S
C297   C7      1.374   1_565 S
C298   C300    1.401   .     A
C298   Cl324   1.765   .     S
C301   H309    1.082   .     S
C301   N312    1.363   .     A
C301   C1167   1.422   1_554 S
C302   N311    1.363   .     A
C302   H310    1.082   .     S
C302   C736    1.422   .     S
C303   N311    1.371   .     A
C303   N325    1.418   .     S
C303   C733    1.422   .     S
C304   N312    1.371   .     A
C304   N331    1.418   .     S
C304   C1166   1.422   1_554 S
H305   C341    1.088   .     S
H306   C390    1.088   1_455 S
N311   Zn321   2.014   .     S
N312   Zn322   2.014   .     S
O313   Zn321   1.986   .     S
O314   Zn322   1.986   .     S
O315   Zn322   1.987   .     S
O316   Zn321   1.987   .     S
O317   Zn321   1.965   .     S
O318   Zn322   1.965   .     S
O319   Zn322   1.980   .     S
O320   Zn321   1.980   .     S
N325   H326    1.031   .     S
N325   C327    1.447   .     S
C327   H330    1.111   .     S
C327   H329    1.110   .     S
C327   H760    1.111   .     S
H328   C1191   1.111   1_554 S
N331   H332    1.031   .     S
N331   C333    1.447   .     S
C333   H336    1.110   .     S
C333   H335    1.111   .     S
C333   H1198   1.111   1_554 S
H334   C765    1.111   .     S
C337   O361    1.281   .     A
C337   C348    1.409   .     S
C337   O363    1.282   .     A
C338   O362    1.281   .     A
C338   C347    1.409   .     S
C338   O364    1.282   .     A
C339   O367    1.283   .     A
C339   O365    1.278   .     A
C339   C341    1.402   .     S
C340   O368    1.283   .     A
C340   C342    1.402   .     S
C340   O366    1.278   .     A
C342   C389    1.332   .     S
C342   H402    1.088   .     S
C343   H355    1.085   .     S
C343   C348    1.394   .     A
C344   H356    1.085   .     S
C344   C347    1.394   .     A
C344   C58     1.374   1_565 S
C345   C347    1.401   .     A
C345   Cl371   1.765   .     S
C345   C55     1.374   1_565 S
C346   C348    1.401   .     A
C346   Cl372   1.765   .     S
C349   H357    1.082   .     S
C349   N360    1.363   .     A
C349   C1215   1.422   1_554 S
C350   N359    1.363   .     A
C350   H358    1.082   .     S
C350   C784    1.422   .     S
C351   N359    1.371   .     A
C351   N373    1.418   .     S
C351   C781    1.422   .     S
C352   N360    1.371   .     A
C352   N379    1.418   .     S
C352   C1214   1.422   1_554 S
H353   C389    1.088   .     S
N359   Zn369   2.014   .     S
N360   Zn370   2.014   .     S
O361   Zn369   1.986   .     S
O362   Zn370   1.986   .     S
O363   Zn370   1.987   .     S
O364   Zn369   1.987   .     S
O365   Zn369   1.965   .     S
O366   Zn370   1.965   .     S
O367   Zn370   1.980   .     S
O368   Zn369   1.980   .     S
N373   H374    1.031   .     S
N373   C375    1.447   .     S
C375   H378    1.111   .     S
C375   H377    1.110   .     S
C375   H808    1.111   .     S
H376   C1239   1.111   1_554 S
N379   H380    1.031   .     S
N379   C381    1.447   .     S
C381   H384    1.110   .     S
C381   H383    1.111   .     S
C381   H1246   1.111   1_554 S
H382   C813    1.111   .     S
C385   O409    1.281   .     A
C385   C396    1.409   .     S
C385   O411    1.282   .     A
C386   O410    1.281   .     A
C386   C395    1.409   .     S
C386   O412    1.282   .     A
C387   O415    1.283   .     A
C387   O413    1.278   .     A
C387   C389    1.402   .     S
C388   O416    1.283   .     A
C388   C390    1.402   .     S
C388   O414    1.278   .     A
C390   C293    1.332   1_655 S
C390   H306    1.088   1_655 S
C391   H403    1.085   .     S
C391   C396    1.394   .     A
C392   H404    1.085   .     S
C392   C395    1.394   .     A
C392   C106    1.374   1_565 S
C393   C395    1.401   .     A
C393   Cl419   1.765   .     S
C393   C103    1.374   1_565 S
C394   C396    1.401   .     A
C394   Cl420   1.765   .     S
C397   H405    1.082   .     S
C397   N408    1.363   .     A
C397   C1263   1.422   1_554 S
C398   N407    1.363   .     A
C398   H406    1.082   .     S
C398   C832    1.422   .     S
C399   N407    1.371   .     A
C399   N421    1.418   .     S
C399   C829    1.422   .     S
C400   N408    1.371   .     A
C400   N427    1.418   .     S
C400   C1262   1.422   1_554 S
H401   C293    1.088   1_655 S
N407   Zn417   2.014   .     S
N408   Zn418   2.014   .     S
O409   Zn417   1.986   .     S
O410   Zn418   1.986   .     S
O411   Zn418   1.987   .     S
O412   Zn417   1.987   .     S
O413   Zn417   1.965   .     S
O414   Zn418   1.965   .     S
O415   Zn418   1.980   .     S
O416   Zn417   1.980   .     S
N421   H422    1.031   .     S
N421   C423    1.447   .     S
C423   H426    1.111   .     S
C423   H425    1.110   .     S
C423   H856    1.111   .     S
H424   C1287   1.111   1_554 S
N427   H428    1.031   .     S
N427   C429    1.447   .     S
C429   H432    1.110   .     S
C429   H431    1.111   .     S
C429   H1294   1.111   1_554 S
H430   C861    1.111   .     S
C433   O457    1.281   .     A
C433   C444    1.409   .     S
C433   O459    1.282   .     A
C434   O458    1.281   .     A
C434   C443    1.409   .     S
C434   O460    1.282   .     A
C435   O463    1.283   .     A
C435   O461    1.278   .     A
C435   C437    1.402   .     S
C436   O464    1.283   .     A
C436   C438    1.402   .     S
C436   O462    1.278   .     A
C437   C534    1.332   1_455 S
C437   H545    1.088   1_455 S
C438   C485    1.332   .     S
C438   H498    1.088   .     S
C439   H451    1.085   .     S
C439   C444    1.394   .     A
C439   C729    1.374   1_545 S
C440   H452    1.085   .     S
C440   C443    1.394   .     A
C440   C586    1.374   .     S
C441   C443    1.401   .     A
C441   Cl467   1.765   .     S
C441   C583    1.374   .     S
C442   C444    1.401   .     A
C442   Cl468   1.765   .     S
C442   C728    1.374   1_545 S
C445   H453    1.082   .     S
C445   N456    1.363   .     A
C446   N455    1.363   .     A
C446   H454    1.082   .     S
C446   C880    1.422   .     S
C447   N455    1.371   .     A
C447   N469    1.418   .     S
C447   C877    1.422   .     S
C448   N456    1.371   .     A
C448   N475    1.418   .     S
H449   C485    1.088   .     S
H450   C534    1.088   1_455 S
N455   Zn465   2.014   .     S
N456   Zn466   2.014   .     S
O457   Zn465   1.986   .     S
O458   Zn466   1.986   .     S
O459   Zn466   1.987   .     S
O460   Zn465   1.987   .     S
O461   Zn465   1.965   .     S
O462   Zn466   1.965   .     S
O463   Zn466   1.980   .     S
O464   Zn465   1.980   .     S
N469   H470    1.031   .     S
N469   C471    1.447   .     S
C471   H474    1.111   .     S
C471   H473    1.110   .     S
C471   H904    1.111   .     S
N475   H476    1.031   .     S
N475   C477    1.447   .     S
C477   H480    1.110   .     S
C477   H479    1.111   .     S
H478   C909    1.111   .     S
C481   O505    1.281   .     A
C481   C492    1.409   .     S
C481   O507    1.282   .     A
C482   O506    1.281   .     A
C482   C491    1.409   .     S
C482   O508    1.282   .     A
C483   O511    1.283   .     A
C483   O509    1.278   .     A
C483   C485    1.402   .     S
C484   O512    1.283   .     A
C484   C486    1.402   .     S
C484   O510    1.278   .     A
C486   C533    1.332   .     S
C486   H546    1.088   .     S
C487   H499    1.085   .     S
C487   C492    1.394   .     A
C487   C777    1.374   1_545 S
C488   H500    1.085   .     S
C488   C491    1.394   .     A
C488   C634    1.374   .     S
C489   C491    1.401   .     A
C489   Cl515   1.765   .     S
C489   C631    1.374   .     S
C490   C492    1.401   .     A
C490   Cl516   1.765   .     S
C490   C776    1.374   1_545 S
C493   H501    1.082   .     S
C493   N504    1.363   .     A
C494   N503    1.363   .     A
C494   H502    1.082   .     S
C494   C928    1.422   .     S
C495   N503    1.371   .     A
C495   N517    1.418   .     S
C495   C925    1.422   .     S
C496   N504    1.371   .     A
C496   N523    1.418   .     S
H497   C533    1.088   .     S
N503   Zn513   2.014   .     S
N504   Zn514   2.014   .     S
O505   Zn513   1.986   .     S
O506   Zn514   1.986   .     S
O507   Zn514   1.987   .     S
O508   Zn513   1.987   .     S
O509   Zn513   1.965   .     S
O510   Zn514   1.965   .     S
O511   Zn514   1.980   .     S
O512   Zn513   1.980   .     S
N517   H518    1.031   .     S
N517   C519    1.447   .     S
C519   H522    1.111   .     S
C519   H521    1.110   .     S
C519   H952    1.111   .     S
N523   H524    1.031   .     S
N523   C525    1.447   .     S
C525   H528    1.110   .     S
C525   H527    1.111   .     S
H526   C957    1.111   .     S
C529   O553    1.281   .     A
C529   C540    1.409   .     S
C529   O555    1.282   .     A
C530   O554    1.281   .     A
C530   C539    1.409   .     S
C530   O556    1.282   .     A
C531   O559    1.283   .     A
C531   O557    1.278   .     A
C531   C533    1.402   .     S
C532   O560    1.283   .     A
C532   C534    1.402   .     S
C532   O558    1.278   .     A
C534   C437    1.332   1_655 S
C534   H450    1.088   1_655 S
C535   H547    1.085   .     S
C535   C540    1.394   .     A
C535   C825    1.374   1_545 S
C536   H548    1.085   .     S
C536   C539    1.394   .     A
C536   C682    1.374   .     S
C537   C539    1.401   .     A
C537   Cl563   1.765   .     S
C537   C679    1.374   .     S
C538   C540    1.401   .     A
C538   Cl564   1.765   .     S
C538   C824    1.374   1_545 S
C541   H549    1.082   .     S
C541   N552    1.363   .     A
C542   N551    1.363   .     A
C542   H550    1.082   .     S
C542   C976    1.422   .     S
C543   N551    1.371   .     A
C543   N565    1.418   .     S
C543   C973    1.422   .     S
C544   N552    1.371   .     A
C544   N571    1.418   .     S
H545   C437    1.088   1_655 S
N551   Zn561   2.014   .     S
N552   Zn562   2.014   .     S
O553   Zn561   1.986   .     S
O554   Zn562   1.986   .     S
O555   Zn562   1.987   .     S
O556   Zn561   1.987   .     S
O557   Zn561   1.965   .     S
O558   Zn562   1.965   .     S
O559   Zn562   1.980   .     S
O560   Zn561   1.980   .     S
N565   H566    1.031   .     S
N565   C567    1.447   .     S
C567   H570    1.111   .     S
C567   H569    1.110   .     S
C567   H1000   1.111   .     S
N571   H572    1.031   .     S
N571   C573    1.447   .     S
C573   H576    1.110   .     S
C573   H575    1.111   .     S
H574   C1005   1.111   .     S
C577   O601    1.281   .     A
C577   C588    1.409   .     S
C577   O603    1.282   .     A
C578   O602    1.281   .     A
C578   C587    1.409   .     S
C578   O604    1.282   .     A
C579   O607    1.283   .     A
C579   O605    1.278   .     A
C579   C581    1.402   .     S
C580   O608    1.283   .     A
C580   C582    1.402   .     S
C580   O606    1.278   .     A
C581   C678    1.332   1_455 S
C581   H689    1.088   1_455 S
C582   C629    1.332   .     S
C582   H642    1.088   .     S
C583   H595    1.085   .     S
C583   C588    1.394   .     A
C584   H596    1.085   .     S
C584   C587    1.394   .     A
C584   C730    1.374   .     S
C585   C587    1.401   .     A
C585   Cl611   1.765   .     S
C585   C727    1.374   .     S
C586   C588    1.401   .     A
C586   Cl612   1.765   .     S
C589   H597    1.082   .     S
C589   N600    1.363   .     A
C590   N599    1.363   .     A
C590   H598    1.082   .     S
C590   C1024   1.422   .     S
C591   N599    1.371   .     A
C591   N613    1.418   .     S
C591   C1021   1.422   .     S
C592   N600    1.371   .     A
C592   N619    1.418   .     S
H593   C629    1.088   .     S
H594   C678    1.088   1_455 S
N599   Zn609   2.014   .     S
N600   Zn610   2.014   .     S
O601   Zn609   1.986   .     S
O602   Zn610   1.986   .     S
O603   Zn610   1.987   .     S
O604   Zn609   1.987   .     S
O605   Zn609   1.965   .     S
O606   Zn610   1.965   .     S
O607   Zn610   1.980   .     S
O608   Zn609   1.980   .     S
N613   H614    1.031   .     S
N613   C615    1.447   .     S
C615   H618    1.111   .     S
C615   H617    1.110   .     S
C615   H1048   1.111   .     S
N619   H620    1.031   .     S
N619   C621    1.447   .     S
C621   H624    1.110   .     S
C621   H623    1.111   .     S
H622   C1053   1.111   .     S
C625   O649    1.281   .     A
C625   C636    1.409   .     S
C625   O651    1.282   .     A
C626   O650    1.281   .     A
C626   C635    1.409   .     S
C626   O652    1.282   .     A
C627   O655    1.283   .     A
C627   O653    1.278   .     A
C627   C629    1.402   .     S
C628   O656    1.283   .     A
C628   C630    1.402   .     S
C628   O654    1.278   .     A
C630   C677    1.332   .     S
C630   H690    1.088   .     S
C631   H643    1.085   .     S
C631   C636    1.394   .     A
C632   H644    1.085   .     S
C632   C635    1.394   .     A
C632   C778    1.374   .     S
C633   C635    1.401   .     A
C633   Cl659   1.765   .     S
C633   C775    1.374   .     S
C634   C636    1.401   .     A
C634   Cl660   1.765   .     S
C637   H645    1.082   .     S
C637   N648    1.363   .     A
C638   N647    1.363   .     A
C638   H646    1.082   .     S
C638   C1072   1.422   .     S
C639   N647    1.371   .     A
C639   N661    1.418   .     S
C639   C1069   1.422   .     S
C640   N648    1.371   .     A
C640   N667    1.418   .     S
H641   C677    1.088   .     S
N647   Zn657   2.014   .     S
N648   Zn658   2.014   .     S
O649   Zn657   1.986   .     S
O650   Zn658   1.986   .     S
O651   Zn658   1.987   .     S
O652   Zn657   1.987   .     S
O653   Zn657   1.965   .     S
O654   Zn658   1.965   .     S
O655   Zn658   1.980   .     S
O656   Zn657   1.980   .     S
N661   H662    1.031   .     S
N661   C663    1.447   .     S
C663   H666    1.111   .     S
C663   H665    1.110   .     S
C663   H1096   1.111   .     S
N667   H668    1.031   .     S
N667   C669    1.447   .     S
C669   H672    1.110   .     S
C669   H671    1.111   .     S
H670   C1101   1.111   .     S
C673   O697    1.281   .     A
C673   C684    1.409   .     S
C673   O699    1.282   .     A
C674   O698    1.281   .     A
C674   C683    1.409   .     S
C674   O700    1.282   .     A
C675   O703    1.283   .     A
C675   O701    1.278   .     A
C675   C677    1.402   .     S
C676   O704    1.283   .     A
C676   C678    1.402   .     S
C676   O702    1.278   .     A
C678   C581    1.332   1_655 S
C678   H594    1.088   1_655 S
C679   H691    1.085   .     S
C679   C684    1.394   .     A
C680   H692    1.085   .     S
C680   C683    1.394   .     A
C680   C826    1.374   .     S
C681   C683    1.401   .     A
C681   Cl707   1.765   .     S
C681   C823    1.374   .     S
C682   C684    1.401   .     A
C682   Cl708   1.765   .     S
C685   H693    1.082   .     S
C685   N696    1.363   .     A
C686   N695    1.363   .     A
C686   H694    1.082   .     S
C686   C1120   1.422   .     S
C687   N695    1.371   .     A
C687   N709    1.418   .     S
C687   C1117   1.422   .     S
C688   N696    1.371   .     A
C688   N715    1.418   .     S
H689   C581    1.088   1_655 S
N695   Zn705   2.014   .     S
N696   Zn706   2.014   .     S
O697   Zn705   1.986   .     S
O698   Zn706   1.986   .     S
O699   Zn706   1.987   .     S
O700   Zn705   1.987   .     S
O701   Zn705   1.965   .     S
O702   Zn706   1.965   .     S
O703   Zn706   1.980   .     S
O704   Zn705   1.980   .     S
N709   H710    1.031   .     S
N709   C711    1.447   .     S
C711   H714    1.111   .     S
C711   H713    1.110   .     S
C711   H1144   1.111   .     S
N715   H716    1.031   .     S
N715   C717    1.447   .     S
C717   H720    1.110   .     S
C717   H719    1.111   .     S
H718   C1149   1.111   .     S
C721   O745    1.281   .     A
C721   C732    1.409   .     S
C721   O747    1.282   .     A
C722   O746    1.281   .     A
C722   C731    1.409   .     S
C722   O748    1.282   .     A
C723   O751    1.283   .     A
C723   O749    1.278   .     A
C723   C725    1.402   .     S
C724   O752    1.283   .     A
C724   C726    1.402   .     S
C724   O750    1.278   .     A
C725   C822    1.332   1_455 S
C725   H833    1.088   1_455 S
C726   C773    1.332   .     S
C726   H786    1.088   .     S
C727   H739    1.085   .     S
C727   C732    1.394   .     A
C728   H740    1.085   .     S
C728   C731    1.394   .     A
C728   C442    1.374   1_565 S
C729   C731    1.401   .     A
C729   Cl755   1.765   .     S
C729   C439    1.374   1_565 S
C730   C732    1.401   .     A
C730   Cl756   1.765   .     S
C733   H741    1.082   .     S
C733   N744    1.363   .     A
C734   N743    1.363   .     A
C734   H742    1.082   .     S
C734   C1168   1.422   .     S
C735   N743    1.371   .     A
C735   N757    1.418   .     S
C735   C1165   1.422   .     S
C736   N744    1.371   .     A
C736   N763    1.418   .     S
H737   C773    1.088   .     S
H738   C822    1.088   1_455 S
N743   Zn753   2.014   .     S
N744   Zn754   2.014   .     S
O745   Zn753   1.986   .     S
O746   Zn754   1.986   .     S
O747   Zn754   1.987   .     S
O748   Zn753   1.987   .     S
O749   Zn753   1.965   .     S
O750   Zn754   1.965   .     S
O751   Zn754   1.980   .     S
O752   Zn753   1.980   .     S
N757   H758    1.031   .     S
N757   C759    1.447   .     S
C759   H762    1.111   .     S
C759   H761    1.110   .     S
C759   H1192   1.111   .     S
N763   H764    1.031   .     S
N763   C765    1.447   .     S
C765   H768    1.110   .     S
C765   H767    1.111   .     S
H766   C1197   1.111   .     S
C769   O793    1.281   .     A
C769   C780    1.409   .     S
C769   O795    1.282   .     A
C770   O794    1.281   .     A
C770   C779    1.409   .     S
C770   O796    1.282   .     A
C771   O799    1.283   .     A
C771   O797    1.278   .     A
C771   C773    1.402   .     S
C772   O800    1.283   .     A
C772   C774    1.402   .     S
C772   O798    1.278   .     A
C774   C821    1.332   .     S
C774   H834    1.088   .     S
C775   H787    1.085   .     S
C775   C780    1.394   .     A
C776   H788    1.085   .     S
C776   C779    1.394   .     A
C776   C490    1.374   1_565 S
C777   C779    1.401   .     A
C777   Cl803   1.765   .     S
C777   C487    1.374   1_565 S
C778   C780    1.401   .     A
C778   Cl804   1.765   .     S
C781   H789    1.082   .     S
C781   N792    1.363   .     A
C782   N791    1.363   .     A
C782   H790    1.082   .     S
C782   C1216   1.422   .     S
C783   N791    1.371   .     A
C783   N805    1.418   .     S
C783   C1213   1.422   .     S
C784   N792    1.371   .     A
C784   N811    1.418   .     S
H785   C821    1.088   .     S
N791   Zn801   2.014   .     S
N792   Zn802   2.014   .     S
O793   Zn801   1.986   .     S
O794   Zn802   1.986   .     S
O795   Zn802   1.987   .     S
O796   Zn801   1.987   .     S
O797   Zn801   1.965   .     S
O798   Zn802   1.965   .     S
O799   Zn802   1.980   .     S
O800   Zn801   1.980   .     S
N805   H806    1.031   .     S
N805   C807    1.447   .     S
C807   H810    1.111   .     S
C807   H809    1.110   .     S
C807   H1240   1.111   .     S
N811   H812    1.031   .     S
N811   C813    1.447   .     S
C813   H816    1.110   .     S
C813   H815    1.111   .     S
H814   C1245   1.111   .     S
C817   O841    1.281   .     A
C817   C828    1.409   .     S
C817   O843    1.282   .     A
C818   O842    1.281   .     A
C818   C827    1.409   .     S
C818   O844    1.282   .     A
C819   O847    1.283   .     A
C819   O845    1.278   .     A
C819   C821    1.402   .     S
C820   O848    1.283   .     A
C820   C822    1.402   .     S
C820   O846    1.278   .     A
C822   C725    1.332   1_655 S
C822   H738    1.088   1_655 S
C823   H835    1.085   .     S
C823   C828    1.394   .     A
C824   H836    1.085   .     S
C824   C827    1.394   .     A
C824   C538    1.374   1_565 S
C825   C827    1.401   .     A
C825   Cl851   1.765   .     S
C825   C535    1.374   1_565 S
C826   C828    1.401   .     A
C826   Cl852   1.765   .     S
C829   H837    1.082   .     S
C829   N840    1.363   .     A
C830   N839    1.363   .     A
C830   H838    1.082   .     S
C830   C1264   1.422   .     S
C831   N839    1.371   .     A
C831   N853    1.418   .     S
C831   C1261   1.422   .     S
C832   N840    1.371   .     A
C832   N859    1.418   .     S
H833   C725    1.088   1_655 S
N839   Zn849   2.014   .     S
N840   Zn850   2.014   .     S
O841   Zn849   1.986   .     S
O842   Zn850   1.986   .     S
O843   Zn850   1.987   .     S
O844   Zn849   1.987   .     S
O845   Zn849   1.965   .     S
O846   Zn850   1.965   .     S
O847   Zn850   1.980   .     S
O848   Zn849   1.980   .     S
N853   H854    1.031   .     S
N853   C855    1.447   .     S
C855   H858    1.111   .     S
C855   H857    1.110   .     S
C855   H1288   1.111   .     S
N859   H860    1.031   .     S
N859   C861    1.447   .     S
C861   H864    1.110   .     S
C861   H863    1.111   .     S
H862   C1293   1.111   .     S
C865   O889    1.281   .     A
C865   C876    1.409   .     S
C865   O891    1.282   .     A
C866   O890    1.281   .     A
C866   C875    1.409   .     S
C866   O892    1.282   .     A
C867   O895    1.283   .     A
C867   O893    1.278   .     A
C867   C869    1.402   .     S
C868   O896    1.283   .     A
C868   C870    1.402   .     S
C868   O894    1.278   .     A
C869   C966    1.332   1_455 S
C869   H977    1.088   1_455 S
C870   C917    1.332   .     S
C870   H930    1.088   .     S
C871   H883    1.085   .     S
C871   C876    1.394   .     A
C871   C1161   1.374   1_545 S
C872   H884    1.085   .     S
C872   C875    1.394   .     A
C872   C1018   1.374   .     S
C873   C875    1.401   .     A
C873   Cl899   1.765   .     S
C873   C1015   1.374   .     S
C874   C876    1.401   .     A
C874   Cl900   1.765   .     S
C874   C1160   1.374   1_545 S
C877   H885    1.082   .     S
C877   N888    1.363   .     A
C878   N887    1.363   .     A
C878   H886    1.082   .     S
C878   C16     1.422   1_556 S
C879   N887    1.371   .     A
C879   N901    1.418   .     S
C879   C13     1.422   1_556 S
C880   N888    1.371   .     A
C880   N907    1.418   .     S
H881   C917    1.088   .     S
H882   C966    1.088   1_455 S
N887   Zn897   2.014   .     S
N888   Zn898   2.014   .     S
O889   Zn897   1.986   .     S
O890   Zn898   1.986   .     S
O891   Zn898   1.987   .     S
O892   Zn897   1.987   .     S
O893   Zn897   1.965   .     S
O894   Zn898   1.965   .     S
O895   Zn898   1.980   .     S
O896   Zn897   1.980   .     S
N901   H902    1.031   .     S
N901   C903    1.447   .     S
C903   H906    1.111   .     S
C903   H905    1.110   .     S
C903   H40     1.111   1_556 S
N907   H908    1.031   .     S
N907   C909    1.447   .     S
C909   H912    1.110   .     S
C909   H911    1.111   .     S
H910   C45     1.111   1_556 S
C913   O937    1.281   .     A
C913   C924    1.409   .     S
C913   O939    1.282   .     A
C914   O938    1.281   .     A
C914   C923    1.409   .     S
C914   O940    1.282   .     A
C915   O943    1.283   .     A
C915   O941    1.278   .     A
C915   C917    1.402   .     S
C916   O944    1.283   .     A
C916   C918    1.402   .     S
C916   O942    1.278   .     A
C918   C965    1.332   .     S
C918   H978    1.088   .     S
C919   H931    1.085   .     S
C919   C924    1.394   .     A
C919   C1209   1.374   1_545 S
C920   H932    1.085   .     S
C920   C923    1.394   .     A
C920   C1066   1.374   .     S
C921   C923    1.401   .     A
C921   Cl947   1.765   .     S
C921   C1063   1.374   .     S
C922   C924    1.401   .     A
C922   Cl948   1.765   .     S
C922   C1208   1.374   1_545 S
C925   H933    1.082   .     S
C925   N936    1.363   .     A
C926   N935    1.363   .     A
C926   H934    1.082   .     S
C926   C64     1.422   1_556 S
C927   N935    1.371   .     A
C927   N949    1.418   .     S
C927   C61     1.422   1_556 S
C928   N936    1.371   .     A
C928   N955    1.418   .     S
H929   C965    1.088   .     S
N935   Zn945   2.014   .     S
N936   Zn946   2.014   .     S
O937   Zn945   1.986   .     S
O938   Zn946   1.986   .     S
O939   Zn946   1.987   .     S
O940   Zn945   1.987   .     S
O941   Zn945   1.965   .     S
O942   Zn946   1.965   .     S
O943   Zn946   1.980   .     S
O944   Zn945   1.980   .     S
N949   H950    1.031   .     S
N949   C951    1.447   .     S
C951   H954    1.111   .     S
C951   H953    1.110   .     S
C951   H88     1.111   1_556 S
N955   H956    1.031   .     S
N955   C957    1.447   .     S
C957   H960    1.110   .     S
C957   H959    1.111   .     S
H958   C93     1.111   1_556 S
C961   O985    1.281   .     A
C961   C972    1.409   .     S
C961   O987    1.282   .     A
C962   O986    1.281   .     A
C962   C971    1.409   .     S
C962   O988    1.282   .     A
C963   O991    1.283   .     A
C963   O989    1.278   .     A
C963   C965    1.402   .     S
C964   O992    1.283   .     A
C964   C966    1.402   .     S
C964   O990    1.278   .     A
C966   C869    1.332   1_655 S
C966   H882    1.088   1_655 S
C967   H979    1.085   .     S
C967   C972    1.394   .     A
C967   C1257   1.374   1_545 S
C968   H980    1.085   .     S
C968   C971    1.394   .     A
C968   C1114   1.374   .     S
C969   C971    1.401   .     A
C969   Cl995   1.765   .     S
C969   C1111   1.374   .     S
C970   C972    1.401   .     A
C970   Cl996   1.765   .     S
C970   C1256   1.374   1_545 S
C973   H981    1.082   .     S
C973   N984    1.363   .     A
C974   N983    1.363   .     A
C974   H982    1.082   .     S
C974   C112    1.422   1_556 S
C975   N983    1.371   .     A
C975   N997    1.418   .     S
C975   C109    1.422   1_556 S
C976   N984    1.371   .     A
C976   N1003   1.418   .     S
H977   C869    1.088   1_655 S
N983   Zn993   2.014   .     S
N984   Zn994   2.014   .     S
O985   Zn993   1.986   .     S
O986   Zn994   1.986   .     S
O987   Zn994   1.987   .     S
O988   Zn993   1.987   .     S
O989   Zn993   1.965   .     S
O990   Zn994   1.965   .     S
O991   Zn994   1.980   .     S
O992   Zn993   1.980   .     S
N997   H998    1.031   .     S
N997   C999    1.447   .     S
C999   H1002   1.111   .     S
C999   H1001   1.110   .     S
C999   H136    1.111   1_556 S
N1003  H1004   1.031   .     S
N1003  C1005   1.447   .     S
C1005  H1008   1.110   .     S
C1005  H1007   1.111   .     S
H1006  C141    1.111   1_556 S
C1009  O1033   1.281   .     A
C1009  C1020   1.409   .     S
C1009  O1035   1.282   .     A
C1010  O1034   1.281   .     A
C1010  C1019   1.409   .     S
C1010  O1036   1.282   .     A
C1011  O1039   1.283   .     A
C1011  O1037   1.278   .     A
C1011  C1013   1.402   .     S
C1012  O1040   1.283   .     A
C1012  C1014   1.402   .     S
C1012  O1038   1.278   .     A
C1013  C1110   1.332   1_455 S
C1013  H1121   1.088   1_455 S
C1014  C1061   1.332   .     S
C1014  H1074   1.088   .     S
C1015  H1027   1.085   .     S
C1015  C1020   1.394   .     A
C1016  H1028   1.085   .     S
C1016  C1019   1.394   .     A
C1016  C1162   1.374   .     S
C1017  C1019   1.401   .     A
C1017  Cl1043  1.765   .     S
C1017  C1159   1.374   .     S
C1018  C1020   1.401   .     A
C1018  Cl1044  1.765   .     S
C1021  H1029   1.082   .     S
C1021  N1032   1.363   .     A
C1022  N1031   1.363   .     A
C1022  H1030   1.082   .     S
C1022  C160    1.422   1_556 S
C1023  N1031   1.371   .     A
C1023  N1045   1.418   .     S
C1023  C157    1.422   1_556 S
C1024  N1032   1.371   .     A
C1024  N1051   1.418   .     S
H1025  C1061   1.088   .     S
H1026  C1110   1.088   1_455 S
N1031  Zn1041  2.014   .     S
N1032  Zn1042  2.014   .     S
O1033  Zn1041  1.986   .     S
O1034  Zn1042  1.986   .     S
O1035  Zn1042  1.987   .     S
O1036  Zn1041  1.987   .     S
O1037  Zn1041  1.965   .     S
O1038  Zn1042  1.965   .     S
O1039  Zn1042  1.980   .     S
O1040  Zn1041  1.980   .     S
N1045  H1046   1.031   .     S
N1045  C1047   1.447   .     S
C1047  H1050   1.111   .     S
C1047  H1049   1.110   .     S
C1047  H184    1.111   1_556 S
N1051  H1052   1.031   .     S
N1051  C1053   1.447   .     S
C1053  H1056   1.110   .     S
C1053  H1055   1.111   .     S
H1054  C189    1.111   1_556 S
C1057  O1081   1.281   .     A
C1057  C1068   1.409   .     S
C1057  O1083   1.282   .     A
C1058  O1082   1.281   .     A
C1058  C1067   1.409   .     S
C1058  O1084   1.282   .     A
C1059  O1087   1.283   .     A
C1059  O1085   1.278   .     A
C1059  C1061   1.402   .     S
C1060  O1088   1.283   .     A
C1060  C1062   1.402   .     S
C1060  O1086   1.278   .     A
C1062  C1109   1.332   .     S
C1062  H1122   1.088   .     S
C1063  H1075   1.085   .     S
C1063  C1068   1.394   .     A
C1064  H1076   1.085   .     S
C1064  C1067   1.394   .     A
C1064  C1210   1.374   .     S
C1065  C1067   1.401   .     A
C1065  Cl1091  1.765   .     S
C1065  C1207   1.374   .     S
C1066  C1068   1.401   .     A
C1066  Cl1092  1.765   .     S
C1069  H1077   1.082   .     S
C1069  N1080   1.363   .     A
C1070  N1079   1.363   .     A
C1070  H1078   1.082   .     S
C1070  C208    1.422   1_556 S
C1071  N1079   1.371   .     A
C1071  N1093   1.418   .     S
C1071  C205    1.422   1_556 S
C1072  N1080   1.371   .     A
C1072  N1099   1.418   .     S
H1073  C1109   1.088   .     S
N1079  Zn1089  2.014   .     S
N1080  Zn1090  2.014   .     S
O1081  Zn1089  1.986   .     S
O1082  Zn1090  1.986   .     S
O1083  Zn1090  1.987   .     S
O1084  Zn1089  1.987   .     S
O1085  Zn1089  1.965   .     S
O1086  Zn1090  1.965   .     S
O1087  Zn1090  1.980   .     S
O1088  Zn1089  1.980   .     S
N1093  H1094   1.031   .     S
N1093  C1095   1.447   .     S
C1095  H1098   1.111   .     S
C1095  H1097   1.110   .     S
C1095  H232    1.111   1_556 S
N1099  H1100   1.031   .     S
N1099  C1101   1.447   .     S
C1101  H1104   1.110   .     S
C1101  H1103   1.111   .     S
H1102  C237    1.111   1_556 S
C1105  O1129   1.281   .     A
C1105  C1116   1.409   .     S
C1105  O1131   1.282   .     A
C1106  O1130   1.281   .     A
C1106  C1115   1.409   .     S
C1106  O1132   1.282   .     A
C1107  O1135   1.283   .     A
C1107  O1133   1.278   .     A
C1107  C1109   1.402   .     S
C1108  O1136   1.283   .     A
C1108  C1110   1.402   .     S
C1108  O1134   1.278   .     A
C1110  C1013   1.332   1_655 S
C1110  H1026   1.088   1_655 S
C1111  H1123   1.085   .     S
C1111  C1116   1.394   .     A
C1112  H1124   1.085   .     S
C1112  C1115   1.394   .     A
C1112  C1258   1.374   .     S
C1113  C1115   1.401   .     A
C1113  Cl1139  1.765   .     S
C1113  C1255   1.374   .     S
C1114  C1116   1.401   .     A
C1114  Cl1140  1.765   .     S
C1117  H1125   1.082   .     S
C1117  N1128   1.363   .     A
C1118  N1127   1.363   .     A
C1118  H1126   1.082   .     S
C1118  C256    1.422   1_556 S
C1119  N1127   1.371   .     A
C1119  N1141   1.418   .     S
C1119  C253    1.422   1_556 S
C1120  N1128   1.371   .     A
C1120  N1147   1.418   .     S
H1121  C1013   1.088   1_655 S
N1127  Zn1137  2.014   .     S
N1128  Zn1138  2.014   .     S
O1129  Zn1137  1.986   .     S
O1130  Zn1138  1.986   .     S
O1131  Zn1138  1.987   .     S
O1132  Zn1137  1.987   .     S
O1133  Zn1137  1.965   .     S
O1134  Zn1138  1.965   .     S
O1135  Zn1138  1.980   .     S
O1136  Zn1137  1.980   .     S
N1141  H1142   1.031   .     S
N1141  C1143   1.447   .     S
C1143  H1146   1.111   .     S
C1143  H1145   1.110   .     S
C1143  H280    1.111   1_556 S
N1147  H1148   1.031   .     S
N1147  C1149   1.447   .     S
C1149  H1152   1.110   .     S
C1149  H1151   1.111   .     S
H1150  C285    1.111   1_556 S
C1153  O1177   1.281   .     A
C1153  C1164   1.409   .     S
C1153  O1179   1.282   .     A
C1154  O1178   1.281   .     A
C1154  C1163   1.409   .     S
C1154  O1180   1.282   .     A
C1155  O1183   1.283   .     A
C1155  O1181   1.278   .     A
C1155  C1157   1.402   .     S
C1156  O1184   1.283   .     A
C1156  C1158   1.402   .     S
C1156  O1182   1.278   .     A
C1157  C1254   1.332   1_455 S
C1157  H1265   1.088   1_455 S
C1158  C1205   1.332   .     S
C1158  H1218   1.088   .     S
C1159  H1171   1.085   .     S
C1159  C1164   1.394   .     A
C1160  H1172   1.085   .     S
C1160  C1163   1.394   .     A
C1160  C874    1.374   1_565 S
C1161  C1163   1.401   .     A
C1161  Cl1187  1.765   .     S
C1161  C871    1.374   1_565 S
C1162  C1164   1.401   .     A
C1162  Cl1188  1.765   .     S
C1165  H1173   1.082   .     S
C1165  N1176   1.363   .     A
C1166  N1175   1.363   .     A
C1166  H1174   1.082   .     S
C1166  C304    1.422   1_556 S
C1167  N1175   1.371   .     A
C1167  N1189   1.418   .     S
C1167  C301    1.422   1_556 S
C1168  N1176   1.371   .     A
C1168  N1195   1.418   .     S
H1169  C1205   1.088   .     S
H1170  C1254   1.088   1_455 S
N1175  Zn1185  2.014   .     S
N1176  Zn1186  2.014   .     S
O1177  Zn1185  1.986   .     S
O1178  Zn1186  1.986   .     S
O1179  Zn1186  1.987   .     S
O1180  Zn1185  1.987   .     S
O1181  Zn1185  1.965   .     S
O1182  Zn1186  1.965   .     S
O1183  Zn1186  1.980   .     S
O1184  Zn1185  1.980   .     S
N1189  H1190   1.031   .     S
N1189  C1191   1.447   .     S
C1191  H1194   1.111   .     S
C1191  H1193   1.110   .     S
C1191  H328    1.111   1_556 S
N1195  H1196   1.031   .     S
N1195  C1197   1.447   .     S
C1197  H1200   1.110   .     S
C1197  H1199   1.111   .     S
H1198  C333    1.111   1_556 S
C1201  O1225   1.281   .     A
C1201  C1212   1.409   .     S
C1201  O1227   1.282   .     A
C1202  O1226   1.281   .     A
C1202  C1211   1.409   .     S
C1202  O1228   1.282   .     A
C1203  O1231   1.283   .     A
C1203  O1229   1.278   .     A
C1203  C1205   1.402   .     S
C1204  O1232   1.283   .     A
C1204  C1206   1.402   .     S
C1204  O1230   1.278   .     A
C1206  C1253   1.332   .     S
C1206  H1266   1.088   .     S
C1207  H1219   1.085   .     S
C1207  C1212   1.394   .     A
C1208  H1220   1.085   .     S
C1208  C1211   1.394   .     A
C1208  C922    1.374   1_565 S
C1209  C1211   1.401   .     A
C1209  Cl1235  1.765   .     S
C1209  C919    1.374   1_565 S
C1210  C1212   1.401   .     A
C1210  Cl1236  1.765   .     S
C1213  H1221   1.082   .     S
C1213  N1224   1.363   .     A
C1214  N1223   1.363   .     A
C1214  H1222   1.082   .     S
C1214  C352    1.422   1_556 S
C1215  N1223   1.371   .     A
C1215  N1237   1.418   .     S
C1215  C349    1.422   1_556 S
C1216  N1224   1.371   .     A
C1216  N1243   1.418   .     S
H1217  C1253   1.088   .     S
N1223  Zn1233  2.014   .     S
N1224  Zn1234  2.014   .     S
O1225  Zn1233  1.986   .     S
O1226  Zn1234  1.986   .     S
O1227  Zn1234  1.987   .     S
O1228  Zn1233  1.987   .     S
O1229  Zn1233  1.965   .     S
O1230  Zn1234  1.965   .     S
O1231  Zn1234  1.980   .     S
O1232  Zn1233  1.980   .     S
N1237  H1238   1.031   .     S
N1237  C1239   1.447   .     S
C1239  H1242   1.111   .     S
C1239  H1241   1.110   .     S
C1239  H376    1.111   1_556 S
N1243  H1244   1.031   .     S
N1243  C1245   1.447   .     S
C1245  H1248   1.110   .     S
C1245  H1247   1.111   .     S
H1246  C381    1.111   1_556 S
C1249  O1273   1.281   .     A
C1249  C1260   1.409   .     S
C1249  O1275   1.282   .     A
C1250  O1274   1.281   .     A
C1250  C1259   1.409   .     S
C1250  O1276   1.282   .     A
C1251  O1279   1.283   .     A
C1251  O1277   1.278   .     A
C1251  C1253   1.402   .     S
C1252  O1280   1.283   .     A
C1252  C1254   1.402   .     S
C1252  O1278   1.278   .     A
C1254  C1157   1.332   1_655 S
C1254  H1170   1.088   1_655 S
C1255  H1267   1.085   .     S
C1255  C1260   1.394   .     A
C1256  H1268   1.085   .     S
C1256  C1259   1.394   .     A
C1256  C970    1.374   1_565 S
C1257  C1259   1.401   .     A
C1257  Cl1283  1.765   .     S
C1257  C967    1.374   1_565 S
C1258  C1260   1.401   .     A
C1258  Cl1284  1.765   .     S
C1261  H1269   1.082   .     S
C1261  N1272   1.363   .     A
C1262  N1271   1.363   .     A
C1262  H1270   1.082   .     S
C1262  C400    1.422   1_556 S
C1263  N1271   1.371   .     A
C1263  N1285   1.418   .     S
C1263  C397    1.422   1_556 S
C1264  N1272   1.371   .     A
C1264  N1291   1.418   .     S
H1265  C1157   1.088   1_655 S
N1271  Zn1281  2.014   .     S
N1272  Zn1282  2.014   .     S
O1273  Zn1281  1.986   .     S
O1274  Zn1282  1.986   .     S
O1275  Zn1282  1.987   .     S
O1276  Zn1281  1.987   .     S
O1277  Zn1281  1.965   .     S
O1278  Zn1282  1.965   .     S
O1279  Zn1282  1.980   .     S
O1280  Zn1281  1.980   .     S
N1285  H1286   1.031   .     S
N1285  C1287   1.447   .     S
C1287  H1290   1.111   .     S
C1287  H1289   1.110   .     S
C1287  H424    1.111   1_556 S
N1291  H1292   1.031   .     S
N1291  C1293   1.447   .     S
C1293  H1296   1.110   .     S
C1293  H1295   1.111   .     S
H1294  C429    1.111   1_556 S
