data_str_m3_o1_o10_pcu_sym.142
_audit_creation_date              2020-01-03
_audit_creation_method            'Materials Studio'
_symmetry_space_group_name_H-M    'P1'
_symmetry_Int_Tables_number       1
_symmetry_cell_setting            triclinic
loop_
_symmetry_equiv_pos_as_xyz
  x,y,z
_cell_length_a                    25.7713
_cell_length_b                    31.9432
_cell_length_c                    29.5828
_cell_angle_alpha                 90.3463
_cell_angle_beta                  98.6091
_cell_angle_gamma                 89.9813
loop_
_atom_site_label
_atom_site_type_symbol
_atom_site_fract_x
_atom_site_fract_y
_atom_site_fract_z
_atom_site_U_iso_or_equiv
_atom_site_adp_type
_atom_site_occupancy
C1     C     0.16557   0.08677   0.16634   0.00000  Uiso   1.00
C2     C     0.16777   0.24657   0.16699   0.00000  Uiso   1.00
C3     C     0.06705   0.16664   0.15470   0.00000  Uiso   1.00
C4     C     0.26628   0.16669   0.17863   0.00000  Uiso   1.00
C5     C     0.01201   0.16662   0.14827   0.00000  Uiso   1.00
C6     C     0.32132   0.16671   0.18506   0.00000  Uiso   1.00
C7     C     0.12763   0.02042   0.13575   0.00000  Uiso   1.00
C8     C     0.20571   0.31291   0.19759   0.00000  Uiso   1.00
C9     C     0.12972   0.31065   0.13675   0.00000  Uiso   1.00
C10    C     0.20361   0.02269   0.19658   0.00000  Uiso   1.00
C11    C     0.16810   0.29071   0.16738   0.00000  Uiso   1.00
C12    C     0.16523   0.04262   0.16595   0.00000  Uiso   1.00
C13    C     0.20384   0.18843   0.02893   0.00000  Uiso   1.00
C14    C     0.12950   0.14490   0.30440   0.00000  Uiso   1.00
C15    C     0.20384   0.18839   0.31436   0.00000  Uiso   1.00
C16    C     0.12949   0.14494   0.01898   0.00000  Uiso   1.00
H17    H     0.32474   0.16652   0.11337   0.00000  Uiso   1.00
H18    H     0.00860   0.16681   0.21996   0.00000  Uiso   1.00
H19    H     0.10111   0.29239   0.11417   0.00000  Uiso   1.00
H20    H     0.23222   0.04094   0.21916   0.00000  Uiso   1.00
H21    H     0.23358   0.20587   0.05100   0.00000  Uiso   1.00
H22    H     0.09976   0.12746   0.28233   0.00000  Uiso   1.00
H23    H     0.23365   0.20572   0.30026   0.00000  Uiso   1.00
H24    H     0.09968   0.12761   0.03308   0.00000  Uiso   1.00
N25    N     0.16665   0.16666   0.28573   0.00000  Uiso   1.00
N26    N     0.16668   0.16668   0.04760   0.00000  Uiso   1.00
O27    O     0.16666   0.10558   0.20487   0.00000  Uiso   1.00
O28    O     0.16667   0.22775   0.12846   0.00000  Uiso   1.00
O29    O     0.16666   0.10559   0.12843   0.00000  Uiso   1.00
O30    O     0.16667   0.22774   0.20490   0.00000  Uiso   1.00
O31    O     0.09058   0.16666   0.19595   0.00000  Uiso   1.00
O32    O     0.24275   0.16667   0.13739   0.00000  Uiso   1.00
O33    O     0.09058   0.16667   0.11950   0.00000  Uiso   1.00
O34    O     0.24275   0.16666   0.21383   0.00000  Uiso   1.00
Zn35   Zn    0.16667   0.16666   0.21771   0.00000  Uiso   1.00
Zn36   Zn    0.16667   0.16667   0.11563   0.00000  Uiso   1.00
C37    C     0.08471   0.04184   0.10378   0.00000  Uiso   1.00
H38    H     0.06304   0.06394   0.12328   0.00000  Uiso   1.00
H39    H     0.10188   0.05915   0.07720   0.00000  Uiso   1.00
H40    H     0.05597   0.01900   0.08609   0.00000  Uiso   1.00
C41    C     0.24862   0.29149   0.22956   0.00000  Uiso   1.00
H42    H     0.27029   0.26940   0.21007   0.00000  Uiso   1.00
H43    H     0.27734   0.31433   0.24726   0.00000  Uiso   1.00
H44    H     0.23144   0.27418   0.25614   0.00000  Uiso   1.00
C45    C     0.49890   0.08677   0.16634   0.00000  Uiso   1.00
C46    C     0.50110   0.24657   0.16699   0.00000  Uiso   1.00
C47    C     0.40038   0.16664   0.15470   0.00000  Uiso   1.00
C48    C     0.59962   0.16669   0.17863   0.00000  Uiso   1.00
C49    C     0.34534   0.16662   0.14827   0.00000  Uiso   1.00
C50    C     0.65466   0.16671   0.18506   0.00000  Uiso   1.00
C51    C     0.46096   0.02042   0.13575   0.00000  Uiso   1.00
C52    C     0.53904   0.31291   0.19759   0.00000  Uiso   1.00
C53    C     0.46305   0.31065   0.13675   0.00000  Uiso   1.00
C54    C     0.53694   0.02269   0.19658   0.00000  Uiso   1.00
C55    C     0.50143   0.29071   0.16738   0.00000  Uiso   1.00
C56    C     0.49857   0.04262   0.16595   0.00000  Uiso   1.00
C57    C     0.53717   0.18843   0.02893   0.00000  Uiso   1.00
C58    C     0.46283   0.14490   0.30440   0.00000  Uiso   1.00
C59    C     0.53718   0.18839   0.31436   0.00000  Uiso   1.00
C60    C     0.46282   0.14494   0.01898   0.00000  Uiso   1.00
H61    H     0.65807   0.16652   0.11337   0.00000  Uiso   1.00
H62    H     0.34193   0.16681   0.21996   0.00000  Uiso   1.00
H63    H     0.43444   0.29239   0.11417   0.00000  Uiso   1.00
H64    H     0.56556   0.04094   0.21916   0.00000  Uiso   1.00
H65    H     0.56691   0.20587   0.05100   0.00000  Uiso   1.00
H66    H     0.43309   0.12746   0.28233   0.00000  Uiso   1.00
H67    H     0.56698   0.20572   0.30026   0.00000  Uiso   1.00
H68    H     0.43302   0.12761   0.03308   0.00000  Uiso   1.00
N69    N     0.49999   0.16666   0.28573   0.00000  Uiso   1.00
N70    N     0.50001   0.16668   0.04760   0.00000  Uiso   1.00
O71    O     0.50000   0.10558   0.20487   0.00000  Uiso   1.00
O72    O     0.50000   0.22775   0.12846   0.00000  Uiso   1.00
O73    O     0.50000   0.10559   0.12843   0.00000  Uiso   1.00
O74    O     0.50000   0.22774   0.20490   0.00000  Uiso   1.00
O75    O     0.42392   0.16666   0.19595   0.00000  Uiso   1.00
O76    O     0.57608   0.16667   0.13739   0.00000  Uiso   1.00
O77    O     0.42392   0.16667   0.11950   0.00000  Uiso   1.00
O78    O     0.57608   0.16666   0.21383   0.00000  Uiso   1.00
Zn79   Zn    0.50000   0.16666   0.21771   0.00000  Uiso   1.00
Zn80   Zn    0.50000   0.16667   0.11563   0.00000  Uiso   1.00
C81    C     0.41804   0.04184   0.10378   0.00000  Uiso   1.00
H82    H     0.39638   0.06394   0.12328   0.00000  Uiso   1.00
H83    H     0.43522   0.05915   0.07720   0.00000  Uiso   1.00
H84    H     0.38931   0.01900   0.08609   0.00000  Uiso   1.00
C85    C     0.58195   0.29149   0.22956   0.00000  Uiso   1.00
H86    H     0.60363   0.26940   0.21007   0.00000  Uiso   1.00
H87    H     0.61068   0.31433   0.24726   0.00000  Uiso   1.00
H88    H     0.56477   0.27418   0.25614   0.00000  Uiso   1.00
C89    C     0.83223   0.08677   0.16634   0.00000  Uiso   1.00
C90    C     0.83443   0.24657   0.16699   0.00000  Uiso   1.00
C91    C     0.73372   0.16664   0.15470   0.00000  Uiso   1.00
C92    C     0.93295   0.16669   0.17863   0.00000  Uiso   1.00
C93    C     0.67868   0.16662   0.14827   0.00000  Uiso   1.00
C94    C     0.98799   0.16671   0.18506   0.00000  Uiso   1.00
C95    C     0.79429   0.02042   0.13575   0.00000  Uiso   1.00
C96    C     0.87237   0.31291   0.19759   0.00000  Uiso   1.00
C97    C     0.79639   0.31065   0.13675   0.00000  Uiso   1.00
C98    C     0.87028   0.02269   0.19658   0.00000  Uiso   1.00
C99    C     0.83477   0.29071   0.16738   0.00000  Uiso   1.00
C100   C     0.83190   0.04262   0.16595   0.00000  Uiso   1.00
C101   C     0.87050   0.18843   0.02893   0.00000  Uiso   1.00
C102   C     0.79616   0.14490   0.30440   0.00000  Uiso   1.00
C103   C     0.87051   0.18839   0.31436   0.00000  Uiso   1.00
C104   C     0.79616   0.14494   0.01898   0.00000  Uiso   1.00
H105   H     0.99140   0.16652   0.11337   0.00000  Uiso   1.00
H106   H     0.67526   0.16681   0.21996   0.00000  Uiso   1.00
H107   H     0.76778   0.29239   0.11417   0.00000  Uiso   1.00
H108   H     0.89889   0.04094   0.21916   0.00000  Uiso   1.00
H109   H     0.90024   0.20587   0.05100   0.00000  Uiso   1.00
H110   H     0.76642   0.12746   0.28233   0.00000  Uiso   1.00
H111   H     0.90032   0.20572   0.30026   0.00000  Uiso   1.00
H112   H     0.76635   0.12761   0.03308   0.00000  Uiso   1.00
N113   N     0.83332   0.16666   0.28573   0.00000  Uiso   1.00
N114   N     0.83335   0.16668   0.04760   0.00000  Uiso   1.00
O115   O     0.83333   0.10558   0.20487   0.00000  Uiso   1.00
O116   O     0.83334   0.22775   0.12846   0.00000  Uiso   1.00
O117   O     0.83333   0.10559   0.12843   0.00000  Uiso   1.00
O118   O     0.83334   0.22774   0.20490   0.00000  Uiso   1.00
O119   O     0.75725   0.16666   0.19595   0.00000  Uiso   1.00
O120   O     0.90942   0.16667   0.13739   0.00000  Uiso   1.00
O121   O     0.75725   0.16667   0.11950   0.00000  Uiso   1.00
O122   O     0.90942   0.16666   0.21383   0.00000  Uiso   1.00
Zn123  Zn    0.83333   0.16666   0.21771   0.00000  Uiso   1.00
Zn124  Zn    0.83333   0.16667   0.11563   0.00000  Uiso   1.00
C125   C     0.75137   0.04184   0.10378   0.00000  Uiso   1.00
H126   H     0.72971   0.06394   0.12328   0.00000  Uiso   1.00
H127   H     0.76855   0.05915   0.07720   0.00000  Uiso   1.00
H128   H     0.72264   0.01900   0.08609   0.00000  Uiso   1.00
C129   C     0.91529   0.29149   0.22956   0.00000  Uiso   1.00
H130   H     0.93696   0.26940   0.21007   0.00000  Uiso   1.00
H131   H     0.94401   0.31433   0.24726   0.00000  Uiso   1.00
H132   H     0.89811   0.27418   0.25614   0.00000  Uiso   1.00
C133   C     0.16557   0.42010   0.16634   0.00000  Uiso   1.00
C134   C     0.16777   0.57990   0.16699   0.00000  Uiso   1.00
C135   C     0.06705   0.49998   0.15470   0.00000  Uiso   1.00
C136   C     0.26628   0.50002   0.17863   0.00000  Uiso   1.00
C137   C     0.01201   0.49995   0.14827   0.00000  Uiso   1.00
C138   C     0.32132   0.50005   0.18506   0.00000  Uiso   1.00
C139   C     0.12763   0.35375   0.13575   0.00000  Uiso   1.00
C140   C     0.20571   0.64625   0.19759   0.00000  Uiso   1.00
C141   C     0.12972   0.64398   0.13675   0.00000  Uiso   1.00
C142   C     0.20361   0.35602   0.19658   0.00000  Uiso   1.00
C143   C     0.16810   0.62405   0.16738   0.00000  Uiso   1.00
C144   C     0.16523   0.37595   0.16595   0.00000  Uiso   1.00
C145   C     0.20384   0.52176   0.02893   0.00000  Uiso   1.00
C146   C     0.12950   0.47824   0.30440   0.00000  Uiso   1.00
C147   C     0.20384   0.52173   0.31436   0.00000  Uiso   1.00
C148   C     0.12949   0.47827   0.01898   0.00000  Uiso   1.00
H149   H     0.32474   0.49986   0.11337   0.00000  Uiso   1.00
H150   H     0.00860   0.50014   0.21996   0.00000  Uiso   1.00
H151   H     0.10111   0.62573   0.11417   0.00000  Uiso   1.00
H152   H     0.23222   0.37427   0.21916   0.00000  Uiso   1.00
H153   H     0.23358   0.53921   0.05100   0.00000  Uiso   1.00
H154   H     0.09976   0.46079   0.28233   0.00000  Uiso   1.00
H155   H     0.23365   0.53906   0.30026   0.00000  Uiso   1.00
H156   H     0.09968   0.46094   0.03308   0.00000  Uiso   1.00
N157   N     0.16665   0.49999   0.28573   0.00000  Uiso   1.00
N158   N     0.16668   0.50001   0.04760   0.00000  Uiso   1.00
O159   O     0.16666   0.43892   0.20487   0.00000  Uiso   1.00
O160   O     0.16667   0.56108   0.12846   0.00000  Uiso   1.00
O161   O     0.16666   0.43893   0.12843   0.00000  Uiso   1.00
O162   O     0.16667   0.56107   0.20490   0.00000  Uiso   1.00
O163   O     0.09058   0.50000   0.19595   0.00000  Uiso   1.00
O164   O     0.24275   0.50000   0.13739   0.00000  Uiso   1.00
O165   O     0.09058   0.50000   0.11950   0.00000  Uiso   1.00
O166   O     0.24275   0.50000   0.21383   0.00000  Uiso   1.00
Zn167  Zn    0.16667   0.49999   0.21771   0.00000  Uiso   1.00
Zn168  Zn    0.16667   0.50001   0.11563   0.00000  Uiso   1.00
C169   C     0.08471   0.37517   0.10378   0.00000  Uiso   1.00
H170   H     0.06304   0.39727   0.12328   0.00000  Uiso   1.00
H171   H     0.10188   0.39249   0.07720   0.00000  Uiso   1.00
H172   H     0.05597   0.35234   0.08609   0.00000  Uiso   1.00
C173   C     0.24862   0.62483   0.22956   0.00000  Uiso   1.00
H174   H     0.27029   0.60274   0.21007   0.00000  Uiso   1.00
H175   H     0.27734   0.64766   0.24726   0.00000  Uiso   1.00
H176   H     0.23144   0.60751   0.25614   0.00000  Uiso   1.00
C177   C     0.49890   0.42010   0.16634   0.00000  Uiso   1.00
C178   C     0.50110   0.57990   0.16699   0.00000  Uiso   1.00
C179   C     0.40038   0.49998   0.15470   0.00000  Uiso   1.00
C180   C     0.59962   0.50002   0.17863   0.00000  Uiso   1.00
C181   C     0.34534   0.49995   0.14827   0.00000  Uiso   1.00
C182   C     0.65466   0.50005   0.18506   0.00000  Uiso   1.00
C183   C     0.46096   0.35375   0.13575   0.00000  Uiso   1.00
C184   C     0.53904   0.64625   0.19759   0.00000  Uiso   1.00
C185   C     0.46305   0.64398   0.13675   0.00000  Uiso   1.00
C186   C     0.53694   0.35602   0.19658   0.00000  Uiso   1.00
C187   C     0.50143   0.62405   0.16738   0.00000  Uiso   1.00
C188   C     0.49857   0.37595   0.16595   0.00000  Uiso   1.00
C189   C     0.53717   0.52176   0.02893   0.00000  Uiso   1.00
C190   C     0.46283   0.47824   0.30440   0.00000  Uiso   1.00
C191   C     0.53718   0.52173   0.31436   0.00000  Uiso   1.00
C192   C     0.46282   0.47827   0.01898   0.00000  Uiso   1.00
H193   H     0.65807   0.49986   0.11337   0.00000  Uiso   1.00
H194   H     0.34193   0.50014   0.21996   0.00000  Uiso   1.00
H195   H     0.43444   0.62573   0.11417   0.00000  Uiso   1.00
H196   H     0.56556   0.37427   0.21916   0.00000  Uiso   1.00
H197   H     0.56691   0.53921   0.05100   0.00000  Uiso   1.00
H198   H     0.43309   0.46079   0.28233   0.00000  Uiso   1.00
H199   H     0.56698   0.53906   0.30026   0.00000  Uiso   1.00
H200   H     0.43302   0.46094   0.03308   0.00000  Uiso   1.00
N201   N     0.49999   0.49999   0.28573   0.00000  Uiso   1.00
N202   N     0.50001   0.50001   0.04760   0.00000  Uiso   1.00
O203   O     0.50000   0.43892   0.20487   0.00000  Uiso   1.00
O204   O     0.50000   0.56108   0.12846   0.00000  Uiso   1.00
O205   O     0.50000   0.43893   0.12843   0.00000  Uiso   1.00
O206   O     0.50000   0.56107   0.20490   0.00000  Uiso   1.00
O207   O     0.42392   0.50000   0.19595   0.00000  Uiso   1.00
O208   O     0.57608   0.50000   0.13739   0.00000  Uiso   1.00
O209   O     0.42392   0.50000   0.11950   0.00000  Uiso   1.00
O210   O     0.57608   0.50000   0.21383   0.00000  Uiso   1.00
Zn211  Zn    0.50000   0.49999   0.21771   0.00000  Uiso   1.00
Zn212  Zn    0.50000   0.50001   0.11563   0.00000  Uiso   1.00
C213   C     0.41804   0.37517   0.10378   0.00000  Uiso   1.00
H214   H     0.39638   0.39727   0.12328   0.00000  Uiso   1.00
H215   H     0.43522   0.39249   0.07720   0.00000  Uiso   1.00
H216   H     0.38931   0.35234   0.08609   0.00000  Uiso   1.00
C217   C     0.58195   0.62483   0.22956   0.00000  Uiso   1.00
H218   H     0.60363   0.60274   0.21007   0.00000  Uiso   1.00
H219   H     0.61068   0.64766   0.24726   0.00000  Uiso   1.00
H220   H     0.56477   0.60751   0.25614   0.00000  Uiso   1.00
C221   C     0.83223   0.42010   0.16634   0.00000  Uiso   1.00
C222   C     0.83443   0.57990   0.16699   0.00000  Uiso   1.00
C223   C     0.73372   0.49998   0.15470   0.00000  Uiso   1.00
C224   C     0.93295   0.50002   0.17863   0.00000  Uiso   1.00
C225   C     0.67868   0.49995   0.14827   0.00000  Uiso   1.00
C226   C     0.98799   0.50005   0.18506   0.00000  Uiso   1.00
C227   C     0.79429   0.35375   0.13575   0.00000  Uiso   1.00
C228   C     0.87237   0.64625   0.19759   0.00000  Uiso   1.00
C229   C     0.79639   0.64398   0.13675   0.00000  Uiso   1.00
C230   C     0.87028   0.35602   0.19658   0.00000  Uiso   1.00
C231   C     0.83477   0.62405   0.16738   0.00000  Uiso   1.00
C232   C     0.83190   0.37595   0.16595   0.00000  Uiso   1.00
C233   C     0.87050   0.52176   0.02893   0.00000  Uiso   1.00
C234   C     0.79616   0.47824   0.30440   0.00000  Uiso   1.00
C235   C     0.87051   0.52173   0.31436   0.00000  Uiso   1.00
C236   C     0.79616   0.47827   0.01898   0.00000  Uiso   1.00
H237   H     0.99140   0.49986   0.11337   0.00000  Uiso   1.00
H238   H     0.67526   0.50014   0.21996   0.00000  Uiso   1.00
H239   H     0.76778   0.62573   0.11417   0.00000  Uiso   1.00
H240   H     0.89889   0.37427   0.21916   0.00000  Uiso   1.00
H241   H     0.90024   0.53921   0.05100   0.00000  Uiso   1.00
H242   H     0.76642   0.46079   0.28233   0.00000  Uiso   1.00
H243   H     0.90032   0.53906   0.30026   0.00000  Uiso   1.00
H244   H     0.76635   0.46094   0.03308   0.00000  Uiso   1.00
N245   N     0.83332   0.49999   0.28573   0.00000  Uiso   1.00
N246   N     0.83335   0.50001   0.04760   0.00000  Uiso   1.00
O247   O     0.83333   0.43892   0.20487   0.00000  Uiso   1.00
O248   O     0.83334   0.56108   0.12846   0.00000  Uiso   1.00
O249   O     0.83333   0.43893   0.12843   0.00000  Uiso   1.00
O250   O     0.83334   0.56107   0.20490   0.00000  Uiso   1.00
O251   O     0.75725   0.50000   0.19595   0.00000  Uiso   1.00
O252   O     0.90942   0.50000   0.13739   0.00000  Uiso   1.00
O253   O     0.75725   0.50000   0.11950   0.00000  Uiso   1.00
O254   O     0.90942   0.50000   0.21383   0.00000  Uiso   1.00
Zn255  Zn    0.83333   0.49999   0.21771   0.00000  Uiso   1.00
Zn256  Zn    0.83333   0.50001   0.11563   0.00000  Uiso   1.00
C257   C     0.75137   0.37517   0.10378   0.00000  Uiso   1.00
H258   H     0.72971   0.39727   0.12328   0.00000  Uiso   1.00
H259   H     0.76855   0.39249   0.07720   0.00000  Uiso   1.00
H260   H     0.72264   0.35234   0.08609   0.00000  Uiso   1.00
C261   C     0.91529   0.62483   0.22956   0.00000  Uiso   1.00
H262   H     0.93696   0.60274   0.21007   0.00000  Uiso   1.00
H263   H     0.94401   0.64766   0.24726   0.00000  Uiso   1.00
H264   H     0.89811   0.60751   0.25614   0.00000  Uiso   1.00
C265   C     0.16557   0.75343   0.16634   0.00000  Uiso   1.00
C266   C     0.16777   0.91323   0.16699   0.00000  Uiso   1.00
C267   C     0.06705   0.83331   0.15470   0.00000  Uiso   1.00
C268   C     0.26628   0.83335   0.17863   0.00000  Uiso   1.00
C269   C     0.01201   0.83328   0.14827   0.00000  Uiso   1.00
C270   C     0.32132   0.83338   0.18506   0.00000  Uiso   1.00
C271   C     0.12763   0.68709   0.13575   0.00000  Uiso   1.00
C272   C     0.20571   0.97958   0.19759   0.00000  Uiso   1.00
C273   C     0.12972   0.97731   0.13675   0.00000  Uiso   1.00
C274   C     0.20361   0.68935   0.19658   0.00000  Uiso   1.00
C275   C     0.16810   0.95738   0.16738   0.00000  Uiso   1.00
C276   C     0.16523   0.70929   0.16595   0.00000  Uiso   1.00
C277   C     0.20384   0.85510   0.02893   0.00000  Uiso   1.00
C278   C     0.12950   0.81157   0.30440   0.00000  Uiso   1.00
C279   C     0.20384   0.85506   0.31436   0.00000  Uiso   1.00
C280   C     0.12949   0.81161   0.01898   0.00000  Uiso   1.00
H281   H     0.32474   0.83319   0.11337   0.00000  Uiso   1.00
H282   H     0.00860   0.83348   0.21996   0.00000  Uiso   1.00
H283   H     0.10111   0.95906   0.11417   0.00000  Uiso   1.00
H284   H     0.23222   0.70761   0.21916   0.00000  Uiso   1.00
H285   H     0.23358   0.87254   0.05100   0.00000  Uiso   1.00
H286   H     0.09976   0.79413   0.28233   0.00000  Uiso   1.00
H287   H     0.23365   0.87239   0.30026   0.00000  Uiso   1.00
H288   H     0.09968   0.79428   0.03308   0.00000  Uiso   1.00
N289   N     0.16665   0.83332   0.28573   0.00000  Uiso   1.00
N290   N     0.16668   0.83334   0.04760   0.00000  Uiso   1.00
O291   O     0.16666   0.77225   0.20487   0.00000  Uiso   1.00
O292   O     0.16667   0.89442   0.12846   0.00000  Uiso   1.00
O293   O     0.16666   0.77226   0.12843   0.00000  Uiso   1.00
O294   O     0.16667   0.89441   0.20490   0.00000  Uiso   1.00
O295   O     0.09058   0.83333   0.19595   0.00000  Uiso   1.00
O296   O     0.24275   0.83334   0.13739   0.00000  Uiso   1.00
O297   O     0.09058   0.83334   0.11950   0.00000  Uiso   1.00
O298   O     0.24275   0.83333   0.21383   0.00000  Uiso   1.00
Zn299  Zn    0.16667   0.83333   0.21771   0.00000  Uiso   1.00
Zn300  Zn    0.16667   0.83334   0.11563   0.00000  Uiso   1.00
C301   C     0.08471   0.70851   0.10378   0.00000  Uiso   1.00
H302   H     0.06304   0.73060   0.12328   0.00000  Uiso   1.00
H303   H     0.10188   0.72582   0.07720   0.00000  Uiso   1.00
H304   H     0.05597   0.68567   0.08609   0.00000  Uiso   1.00
C305   C     0.24862   0.95816   0.22956   0.00000  Uiso   1.00
H306   H     0.27029   0.93607   0.21007   0.00000  Uiso   1.00
H307   H     0.27734   0.98100   0.24726   0.00000  Uiso   1.00
H308   H     0.23144   0.94085   0.25614   0.00000  Uiso   1.00
C309   C     0.49890   0.75343   0.16634   0.00000  Uiso   1.00
C310   C     0.50110   0.91323   0.16699   0.00000  Uiso   1.00
C311   C     0.40038   0.83331   0.15470   0.00000  Uiso   1.00
C312   C     0.59962   0.83335   0.17863   0.00000  Uiso   1.00
C313   C     0.34534   0.83328   0.14827   0.00000  Uiso   1.00
C314   C     0.65466   0.83338   0.18506   0.00000  Uiso   1.00
C315   C     0.46096   0.68709   0.13575   0.00000  Uiso   1.00
C316   C     0.53904   0.97958   0.19759   0.00000  Uiso   1.00
C317   C     0.46305   0.97731   0.13675   0.00000  Uiso   1.00
C318   C     0.53694   0.68935   0.19658   0.00000  Uiso   1.00
C319   C     0.50143   0.95738   0.16738   0.00000  Uiso   1.00
C320   C     0.49857   0.70929   0.16595   0.00000  Uiso   1.00
C321   C     0.53717   0.85510   0.02893   0.00000  Uiso   1.00
C322   C     0.46283   0.81157   0.30440   0.00000  Uiso   1.00
C323   C     0.53718   0.85506   0.31436   0.00000  Uiso   1.00
C324   C     0.46282   0.81161   0.01898   0.00000  Uiso   1.00
H325   H     0.65807   0.83319   0.11337   0.00000  Uiso   1.00
H326   H     0.34193   0.83348   0.21996   0.00000  Uiso   1.00
H327   H     0.43444   0.95906   0.11417   0.00000  Uiso   1.00
H328   H     0.56556   0.70761   0.21916   0.00000  Uiso   1.00
H329   H     0.56691   0.87254   0.05100   0.00000  Uiso   1.00
H330   H     0.43309   0.79413   0.28233   0.00000  Uiso   1.00
H331   H     0.56698   0.87239   0.30026   0.00000  Uiso   1.00
H332   H     0.43302   0.79428   0.03308   0.00000  Uiso   1.00
N333   N     0.49999   0.83332   0.28573   0.00000  Uiso   1.00
N334   N     0.50001   0.83334   0.04760   0.00000  Uiso   1.00
O335   O     0.50000   0.77225   0.20487   0.00000  Uiso   1.00
O336   O     0.50000   0.89442   0.12846   0.00000  Uiso   1.00
O337   O     0.50000   0.77226   0.12843   0.00000  Uiso   1.00
O338   O     0.50000   0.89441   0.20490   0.00000  Uiso   1.00
O339   O     0.42392   0.83333   0.19595   0.00000  Uiso   1.00
O340   O     0.57608   0.83334   0.13739   0.00000  Uiso   1.00
O341   O     0.42392   0.83334   0.11950   0.00000  Uiso   1.00
O342   O     0.57608   0.83333   0.21383   0.00000  Uiso   1.00
Zn343  Zn    0.50000   0.83333   0.21771   0.00000  Uiso   1.00
Zn344  Zn    0.50000   0.83334   0.11563   0.00000  Uiso   1.00
C345   C     0.41804   0.70851   0.10378   0.00000  Uiso   1.00
H346   H     0.39638   0.73060   0.12328   0.00000  Uiso   1.00
H347   H     0.43522   0.72582   0.07720   0.00000  Uiso   1.00
H348   H     0.38931   0.68567   0.08609   0.00000  Uiso   1.00
C349   C     0.58195   0.95816   0.22956   0.00000  Uiso   1.00
H350   H     0.60363   0.93607   0.21007   0.00000  Uiso   1.00
H351   H     0.61068   0.98100   0.24726   0.00000  Uiso   1.00
H352   H     0.56477   0.94085   0.25614   0.00000  Uiso   1.00
C353   C     0.83223   0.75343   0.16634   0.00000  Uiso   1.00
C354   C     0.83443   0.91323   0.16699   0.00000  Uiso   1.00
C355   C     0.73372   0.83331   0.15470   0.00000  Uiso   1.00
C356   C     0.93295   0.83335   0.17863   0.00000  Uiso   1.00
C357   C     0.67868   0.83328   0.14827   0.00000  Uiso   1.00
C358   C     0.98799   0.83338   0.18506   0.00000  Uiso   1.00
C359   C     0.79429   0.68709   0.13575   0.00000  Uiso   1.00
C360   C     0.87237   0.97958   0.19759   0.00000  Uiso   1.00
C361   C     0.79639   0.97731   0.13675   0.00000  Uiso   1.00
C362   C     0.87028   0.68935   0.19658   0.00000  Uiso   1.00
C363   C     0.83477   0.95738   0.16738   0.00000  Uiso   1.00
C364   C     0.83190   0.70929   0.16595   0.00000  Uiso   1.00
C365   C     0.87050   0.85510   0.02893   0.00000  Uiso   1.00
C366   C     0.79616   0.81157   0.30440   0.00000  Uiso   1.00
C367   C     0.87051   0.85506   0.31436   0.00000  Uiso   1.00
C368   C     0.79616   0.81161   0.01898   0.00000  Uiso   1.00
H369   H     0.99140   0.83319   0.11337   0.00000  Uiso   1.00
H370   H     0.67526   0.83348   0.21996   0.00000  Uiso   1.00
H371   H     0.76778   0.95906   0.11417   0.00000  Uiso   1.00
H372   H     0.89889   0.70761   0.21916   0.00000  Uiso   1.00
H373   H     0.90024   0.87254   0.05100   0.00000  Uiso   1.00
H374   H     0.76642   0.79413   0.28233   0.00000  Uiso   1.00
H375   H     0.90032   0.87239   0.30026   0.00000  Uiso   1.00
H376   H     0.76635   0.79428   0.03308   0.00000  Uiso   1.00
N377   N     0.83332   0.83332   0.28573   0.00000  Uiso   1.00
N378   N     0.83335   0.83334   0.04760   0.00000  Uiso   1.00
O379   O     0.83333   0.77225   0.20487   0.00000  Uiso   1.00
O380   O     0.83334   0.89442   0.12846   0.00000  Uiso   1.00
O381   O     0.83333   0.77226   0.12843   0.00000  Uiso   1.00
O382   O     0.83334   0.89441   0.20490   0.00000  Uiso   1.00
O383   O     0.75725   0.83333   0.19595   0.00000  Uiso   1.00
O384   O     0.90942   0.83334   0.13739   0.00000  Uiso   1.00
O385   O     0.75725   0.83334   0.11950   0.00000  Uiso   1.00
O386   O     0.90942   0.83333   0.21383   0.00000  Uiso   1.00
Zn387  Zn    0.83333   0.83333   0.21771   0.00000  Uiso   1.00
Zn388  Zn    0.83333   0.83334   0.11563   0.00000  Uiso   1.00
C389   C     0.75137   0.70851   0.10378   0.00000  Uiso   1.00
H390   H     0.72971   0.73060   0.12328   0.00000  Uiso   1.00
H391   H     0.76855   0.72582   0.07720   0.00000  Uiso   1.00
H392   H     0.72264   0.68567   0.08609   0.00000  Uiso   1.00
C393   C     0.91529   0.95816   0.22956   0.00000  Uiso   1.00
H394   H     0.93696   0.93607   0.21007   0.00000  Uiso   1.00
H395   H     0.94401   0.98100   0.24726   0.00000  Uiso   1.00
H396   H     0.89811   0.94085   0.25614   0.00000  Uiso   1.00
C397   C     0.16557   0.08677   0.49967   0.00000  Uiso   1.00
C398   C     0.16777   0.24657   0.50033   0.00000  Uiso   1.00
C399   C     0.06705   0.16664   0.48804   0.00000  Uiso   1.00
C400   C     0.26628   0.16669   0.51196   0.00000  Uiso   1.00
C401   C     0.01201   0.16662   0.48161   0.00000  Uiso   1.00
C402   C     0.32132   0.16671   0.51839   0.00000  Uiso   1.00
C403   C     0.12763   0.02042   0.46908   0.00000  Uiso   1.00
C404   C     0.20571   0.31291   0.53092   0.00000  Uiso   1.00
C405   C     0.12972   0.31065   0.47008   0.00000  Uiso   1.00
C406   C     0.20361   0.02269   0.52991   0.00000  Uiso   1.00
C407   C     0.16810   0.29071   0.50072   0.00000  Uiso   1.00
C408   C     0.16523   0.04262   0.49928   0.00000  Uiso   1.00
C409   C     0.20384   0.18843   0.36226   0.00000  Uiso   1.00
C410   C     0.12950   0.14490   0.63774   0.00000  Uiso   1.00
C411   C     0.20384   0.18839   0.64769   0.00000  Uiso   1.00
C412   C     0.12949   0.14494   0.35231   0.00000  Uiso   1.00
H413   H     0.32474   0.16652   0.44670   0.00000  Uiso   1.00
H414   H     0.00860   0.16681   0.55330   0.00000  Uiso   1.00
H415   H     0.10111   0.29239   0.44750   0.00000  Uiso   1.00
H416   H     0.23222   0.04094   0.55249   0.00000  Uiso   1.00
H417   H     0.23358   0.20587   0.38434   0.00000  Uiso   1.00
H418   H     0.09976   0.12746   0.61566   0.00000  Uiso   1.00
H419   H     0.23365   0.20572   0.63359   0.00000  Uiso   1.00
H420   H     0.09968   0.12761   0.36641   0.00000  Uiso   1.00
N421   N     0.16665   0.16666   0.61907   0.00000  Uiso   1.00
N422   N     0.16668   0.16668   0.38093   0.00000  Uiso   1.00
O423   O     0.16666   0.10558   0.53821   0.00000  Uiso   1.00
O424   O     0.16667   0.22775   0.46179   0.00000  Uiso   1.00
O425   O     0.16666   0.10559   0.46176   0.00000  Uiso   1.00
O426   O     0.16667   0.22774   0.53824   0.00000  Uiso   1.00
O427   O     0.09058   0.16666   0.52928   0.00000  Uiso   1.00
O428   O     0.24275   0.16667   0.47072   0.00000  Uiso   1.00
O429   O     0.09058   0.16667   0.45284   0.00000  Uiso   1.00
O430   O     0.24275   0.16666   0.54716   0.00000  Uiso   1.00
Zn431  Zn    0.16667   0.16666   0.55104   0.00000  Uiso   1.00
Zn432  Zn    0.16667   0.16667   0.44896   0.00000  Uiso   1.00
C433   C     0.08471   0.04184   0.43712   0.00000  Uiso   1.00
H434   H     0.06304   0.06394   0.45661   0.00000  Uiso   1.00
H435   H     0.10188   0.05915   0.41053   0.00000  Uiso   1.00
H436   H     0.05597   0.01900   0.41943   0.00000  Uiso   1.00
C437   C     0.24862   0.29149   0.56289   0.00000  Uiso   1.00
H438   H     0.27029   0.26940   0.54341   0.00000  Uiso   1.00
H439   H     0.27734   0.31433   0.58059   0.00000  Uiso   1.00
H440   H     0.23144   0.27418   0.58947   0.00000  Uiso   1.00
C441   C     0.49890   0.08677   0.49967   0.00000  Uiso   1.00
C442   C     0.50110   0.24657   0.50033   0.00000  Uiso   1.00
C443   C     0.40038   0.16664   0.48804   0.00000  Uiso   1.00
C444   C     0.59962   0.16669   0.51196   0.00000  Uiso   1.00
C445   C     0.34534   0.16662   0.48161   0.00000  Uiso   1.00
C446   C     0.65466   0.16671   0.51839   0.00000  Uiso   1.00
C447   C     0.46096   0.02042   0.46908   0.00000  Uiso   1.00
C448   C     0.53904   0.31291   0.53092   0.00000  Uiso   1.00
C449   C     0.46305   0.31065   0.47008   0.00000  Uiso   1.00
C450   C     0.53694   0.02269   0.52991   0.00000  Uiso   1.00
C451   C     0.50143   0.29071   0.50072   0.00000  Uiso   1.00
C452   C     0.49857   0.04262   0.49928   0.00000  Uiso   1.00
C453   C     0.53717   0.18843   0.36226   0.00000  Uiso   1.00
C454   C     0.46283   0.14490   0.63774   0.00000  Uiso   1.00
C455   C     0.53718   0.18839   0.64769   0.00000  Uiso   1.00
C456   C     0.46282   0.14494   0.35231   0.00000  Uiso   1.00
H457   H     0.65807   0.16652   0.44670   0.00000  Uiso   1.00
H458   H     0.34193   0.16681   0.55330   0.00000  Uiso   1.00
H459   H     0.43444   0.29239   0.44750   0.00000  Uiso   1.00
H460   H     0.56556   0.04094   0.55249   0.00000  Uiso   1.00
H461   H     0.56691   0.20587   0.38434   0.00000  Uiso   1.00
H462   H     0.43309   0.12746   0.61566   0.00000  Uiso   1.00
H463   H     0.56698   0.20572   0.63359   0.00000  Uiso   1.00
H464   H     0.43302   0.12761   0.36641   0.00000  Uiso   1.00
N465   N     0.49999   0.16666   0.61907   0.00000  Uiso   1.00
N466   N     0.50001   0.16668   0.38093   0.00000  Uiso   1.00
O467   O     0.50000   0.10558   0.53821   0.00000  Uiso   1.00
O468   O     0.50000   0.22775   0.46179   0.00000  Uiso   1.00
O469   O     0.50000   0.10559   0.46176   0.00000  Uiso   1.00
O470   O     0.50000   0.22774   0.53824   0.00000  Uiso   1.00
O471   O     0.42392   0.16666   0.52928   0.00000  Uiso   1.00
O472   O     0.57608   0.16667   0.47072   0.00000  Uiso   1.00
O473   O     0.42392   0.16667   0.45284   0.00000  Uiso   1.00
O474   O     0.57608   0.16666   0.54716   0.00000  Uiso   1.00
Zn475  Zn    0.50000   0.16666   0.55104   0.00000  Uiso   1.00
Zn476  Zn    0.50000   0.16667   0.44896   0.00000  Uiso   1.00
C477   C     0.41804   0.04184   0.43712   0.00000  Uiso   1.00
H478   H     0.39638   0.06394   0.45661   0.00000  Uiso   1.00
H479   H     0.43522   0.05915   0.41053   0.00000  Uiso   1.00
H480   H     0.38931   0.01900   0.41943   0.00000  Uiso   1.00
C481   C     0.58195   0.29149   0.56289   0.00000  Uiso   1.00
H482   H     0.60363   0.26940   0.54341   0.00000  Uiso   1.00
H483   H     0.61068   0.31433   0.58059   0.00000  Uiso   1.00
H484   H     0.56477   0.27418   0.58947   0.00000  Uiso   1.00
C485   C     0.83223   0.08677   0.49967   0.00000  Uiso   1.00
C486   C     0.83443   0.24657   0.50033   0.00000  Uiso   1.00
C487   C     0.73372   0.16664   0.48804   0.00000  Uiso   1.00
C488   C     0.93295   0.16669   0.51196   0.00000  Uiso   1.00
C489   C     0.67868   0.16662   0.48161   0.00000  Uiso   1.00
C490   C     0.98799   0.16671   0.51839   0.00000  Uiso   1.00
C491   C     0.79429   0.02042   0.46908   0.00000  Uiso   1.00
C492   C     0.87237   0.31291   0.53092   0.00000  Uiso   1.00
C493   C     0.79639   0.31065   0.47008   0.00000  Uiso   1.00
C494   C     0.87028   0.02269   0.52991   0.00000  Uiso   1.00
C495   C     0.83477   0.29071   0.50072   0.00000  Uiso   1.00
C496   C     0.83190   0.04262   0.49928   0.00000  Uiso   1.00
C497   C     0.87050   0.18843   0.36226   0.00000  Uiso   1.00
C498   C     0.79616   0.14490   0.63774   0.00000  Uiso   1.00
C499   C     0.87051   0.18839   0.64769   0.00000  Uiso   1.00
C500   C     0.79616   0.14494   0.35231   0.00000  Uiso   1.00
H501   H     0.99140   0.16652   0.44670   0.00000  Uiso   1.00
H502   H     0.67526   0.16681   0.55330   0.00000  Uiso   1.00
H503   H     0.76778   0.29239   0.44750   0.00000  Uiso   1.00
H504   H     0.89889   0.04094   0.55249   0.00000  Uiso   1.00
H505   H     0.90024   0.20587   0.38434   0.00000  Uiso   1.00
H506   H     0.76642   0.12746   0.61566   0.00000  Uiso   1.00
H507   H     0.90032   0.20572   0.63359   0.00000  Uiso   1.00
H508   H     0.76635   0.12761   0.36641   0.00000  Uiso   1.00
N509   N     0.83332   0.16666   0.61907   0.00000  Uiso   1.00
N510   N     0.83335   0.16668   0.38093   0.00000  Uiso   1.00
O511   O     0.83333   0.10558   0.53821   0.00000  Uiso   1.00
O512   O     0.83334   0.22775   0.46179   0.00000  Uiso   1.00
O513   O     0.83333   0.10559   0.46176   0.00000  Uiso   1.00
O514   O     0.83334   0.22774   0.53824   0.00000  Uiso   1.00
O515   O     0.75725   0.16666   0.52928   0.00000  Uiso   1.00
O516   O     0.90942   0.16667   0.47072   0.00000  Uiso   1.00
O517   O     0.75725   0.16667   0.45284   0.00000  Uiso   1.00
O518   O     0.90942   0.16666   0.54716   0.00000  Uiso   1.00
Zn519  Zn    0.83333   0.16666   0.55104   0.00000  Uiso   1.00
Zn520  Zn    0.83333   0.16667   0.44896   0.00000  Uiso   1.00
C521   C     0.75137   0.04184   0.43712   0.00000  Uiso   1.00
H522   H     0.72971   0.06394   0.45661   0.00000  Uiso   1.00
H523   H     0.76855   0.05915   0.41053   0.00000  Uiso   1.00
H524   H     0.72264   0.01900   0.41943   0.00000  Uiso   1.00
C525   C     0.91529   0.29149   0.56289   0.00000  Uiso   1.00
H526   H     0.93696   0.26940   0.54341   0.00000  Uiso   1.00
H527   H     0.94401   0.31433   0.58059   0.00000  Uiso   1.00
H528   H     0.89811   0.27418   0.58947   0.00000  Uiso   1.00
C529   C     0.16557   0.42010   0.49967   0.00000  Uiso   1.00
C530   C     0.16777   0.57990   0.50033   0.00000  Uiso   1.00
C531   C     0.06705   0.49998   0.48804   0.00000  Uiso   1.00
C532   C     0.26628   0.50002   0.51196   0.00000  Uiso   1.00
C533   C     0.01201   0.49995   0.48161   0.00000  Uiso   1.00
C534   C     0.32132   0.50005   0.51839   0.00000  Uiso   1.00
C535   C     0.12763   0.35375   0.46908   0.00000  Uiso   1.00
C536   C     0.20571   0.64625   0.53092   0.00000  Uiso   1.00
C537   C     0.12972   0.64398   0.47008   0.00000  Uiso   1.00
C538   C     0.20361   0.35602   0.52991   0.00000  Uiso   1.00
C539   C     0.16810   0.62405   0.50072   0.00000  Uiso   1.00
C540   C     0.16523   0.37595   0.49928   0.00000  Uiso   1.00
C541   C     0.20384   0.52176   0.36226   0.00000  Uiso   1.00
C542   C     0.12950   0.47824   0.63774   0.00000  Uiso   1.00
C543   C     0.20384   0.52173   0.64769   0.00000  Uiso   1.00
C544   C     0.12949   0.47827   0.35231   0.00000  Uiso   1.00
H545   H     0.32474   0.49986   0.44670   0.00000  Uiso   1.00
H546   H     0.00860   0.50014   0.55330   0.00000  Uiso   1.00
H547   H     0.10111   0.62573   0.44750   0.00000  Uiso   1.00
H548   H     0.23222   0.37427   0.55249   0.00000  Uiso   1.00
H549   H     0.23358   0.53921   0.38434   0.00000  Uiso   1.00
H550   H     0.09976   0.46079   0.61566   0.00000  Uiso   1.00
H551   H     0.23365   0.53906   0.63359   0.00000  Uiso   1.00
H552   H     0.09968   0.46094   0.36641   0.00000  Uiso   1.00
N553   N     0.16665   0.49999   0.61907   0.00000  Uiso   1.00
N554   N     0.16668   0.50001   0.38093   0.00000  Uiso   1.00
O555   O     0.16666   0.43892   0.53821   0.00000  Uiso   1.00
O556   O     0.16667   0.56108   0.46179   0.00000  Uiso   1.00
O557   O     0.16666   0.43893   0.46176   0.00000  Uiso   1.00
O558   O     0.16667   0.56107   0.53824   0.00000  Uiso   1.00
O559   O     0.09058   0.50000   0.52928   0.00000  Uiso   1.00
O560   O     0.24275   0.50000   0.47072   0.00000  Uiso   1.00
O561   O     0.09058   0.50000   0.45284   0.00000  Uiso   1.00
O562   O     0.24275   0.50000   0.54716   0.00000  Uiso   1.00
Zn563  Zn    0.16667   0.49999   0.55104   0.00000  Uiso   1.00
Zn564  Zn    0.16667   0.50001   0.44896   0.00000  Uiso   1.00
C565   C     0.08471   0.37517   0.43712   0.00000  Uiso   1.00
H566   H     0.06304   0.39727   0.45661   0.00000  Uiso   1.00
H567   H     0.10188   0.39249   0.41053   0.00000  Uiso   1.00
H568   H     0.05597   0.35234   0.41943   0.00000  Uiso   1.00
C569   C     0.24862   0.62483   0.56289   0.00000  Uiso   1.00
H570   H     0.27029   0.60274   0.54341   0.00000  Uiso   1.00
H571   H     0.27734   0.64766   0.58059   0.00000  Uiso   1.00
H572   H     0.23144   0.60751   0.58947   0.00000  Uiso   1.00
C573   C     0.49890   0.42010   0.49967   0.00000  Uiso   1.00
C574   C     0.50110   0.57990   0.50033   0.00000  Uiso   1.00
C575   C     0.40038   0.49998   0.48804   0.00000  Uiso   1.00
C576   C     0.59962   0.50002   0.51196   0.00000  Uiso   1.00
C577   C     0.34534   0.49995   0.48161   0.00000  Uiso   1.00
C578   C     0.65466   0.50005   0.51839   0.00000  Uiso   1.00
C579   C     0.46096   0.35375   0.46908   0.00000  Uiso   1.00
C580   C     0.53904   0.64625   0.53092   0.00000  Uiso   1.00
C581   C     0.46305   0.64398   0.47008   0.00000  Uiso   1.00
C582   C     0.53694   0.35602   0.52991   0.00000  Uiso   1.00
C583   C     0.50143   0.62405   0.50072   0.00000  Uiso   1.00
C584   C     0.49857   0.37595   0.49928   0.00000  Uiso   1.00
C585   C     0.53717   0.52176   0.36226   0.00000  Uiso   1.00
C586   C     0.46283   0.47824   0.63774   0.00000  Uiso   1.00
C587   C     0.53718   0.52173   0.64769   0.00000  Uiso   1.00
C588   C     0.46282   0.47827   0.35231   0.00000  Uiso   1.00
H589   H     0.65807   0.49986   0.44670   0.00000  Uiso   1.00
H590   H     0.34193   0.50014   0.55330   0.00000  Uiso   1.00
H591   H     0.43444   0.62573   0.44750   0.00000  Uiso   1.00
H592   H     0.56556   0.37427   0.55249   0.00000  Uiso   1.00
H593   H     0.56691   0.53921   0.38434   0.00000  Uiso   1.00
H594   H     0.43309   0.46079   0.61566   0.00000  Uiso   1.00
H595   H     0.56698   0.53906   0.63359   0.00000  Uiso   1.00
H596   H     0.43302   0.46094   0.36641   0.00000  Uiso   1.00
N597   N     0.49999   0.49999   0.61907   0.00000  Uiso   1.00
N598   N     0.50001   0.50001   0.38093   0.00000  Uiso   1.00
O599   O     0.50000   0.43892   0.53821   0.00000  Uiso   1.00
O600   O     0.50000   0.56108   0.46179   0.00000  Uiso   1.00
O601   O     0.50000   0.43893   0.46176   0.00000  Uiso   1.00
O602   O     0.50000   0.56107   0.53824   0.00000  Uiso   1.00
O603   O     0.42392   0.50000   0.52928   0.00000  Uiso   1.00
O604   O     0.57608   0.50000   0.47072   0.00000  Uiso   1.00
O605   O     0.42392   0.50000   0.45284   0.00000  Uiso   1.00
O606   O     0.57608   0.50000   0.54716   0.00000  Uiso   1.00
Zn607  Zn    0.50000   0.49999   0.55104   0.00000  Uiso   1.00
Zn608  Zn    0.50000   0.50001   0.44896   0.00000  Uiso   1.00
C609   C     0.41804   0.37517   0.43712   0.00000  Uiso   1.00
H610   H     0.39638   0.39727   0.45661   0.00000  Uiso   1.00
H611   H     0.43522   0.39249   0.41053   0.00000  Uiso   1.00
H612   H     0.38931   0.35234   0.41943   0.00000  Uiso   1.00
C613   C     0.58195   0.62483   0.56289   0.00000  Uiso   1.00
H614   H     0.60363   0.60274   0.54341   0.00000  Uiso   1.00
H615   H     0.61068   0.64766   0.58059   0.00000  Uiso   1.00
H616   H     0.56477   0.60751   0.58947   0.00000  Uiso   1.00
C617   C     0.83223   0.42010   0.49967   0.00000  Uiso   1.00
C618   C     0.83443   0.57990   0.50033   0.00000  Uiso   1.00
C619   C     0.73372   0.49998   0.48804   0.00000  Uiso   1.00
C620   C     0.93295   0.50002   0.51196   0.00000  Uiso   1.00
C621   C     0.67868   0.49995   0.48161   0.00000  Uiso   1.00
C622   C     0.98799   0.50005   0.51839   0.00000  Uiso   1.00
C623   C     0.79429   0.35375   0.46908   0.00000  Uiso   1.00
C624   C     0.87237   0.64625   0.53092   0.00000  Uiso   1.00
C625   C     0.79639   0.64398   0.47008   0.00000  Uiso   1.00
C626   C     0.87028   0.35602   0.52991   0.00000  Uiso   1.00
C627   C     0.83477   0.62405   0.50072   0.00000  Uiso   1.00
C628   C     0.83190   0.37595   0.49928   0.00000  Uiso   1.00
C629   C     0.87050   0.52176   0.36226   0.00000  Uiso   1.00
C630   C     0.79616   0.47824   0.63774   0.00000  Uiso   1.00
C631   C     0.87051   0.52173   0.64769   0.00000  Uiso   1.00
C632   C     0.79616   0.47827   0.35231   0.00000  Uiso   1.00
H633   H     0.99140   0.49986   0.44670   0.00000  Uiso   1.00
H634   H     0.67526   0.50014   0.55330   0.00000  Uiso   1.00
H635   H     0.76778   0.62573   0.44750   0.00000  Uiso   1.00
H636   H     0.89889   0.37427   0.55249   0.00000  Uiso   1.00
H637   H     0.90024   0.53921   0.38434   0.00000  Uiso   1.00
H638   H     0.76642   0.46079   0.61566   0.00000  Uiso   1.00
H639   H     0.90032   0.53906   0.63359   0.00000  Uiso   1.00
H640   H     0.76635   0.46094   0.36641   0.00000  Uiso   1.00
N641   N     0.83332   0.49999   0.61907   0.00000  Uiso   1.00
N642   N     0.83335   0.50001   0.38093   0.00000  Uiso   1.00
O643   O     0.83333   0.43892   0.53821   0.00000  Uiso   1.00
O644   O     0.83334   0.56108   0.46179   0.00000  Uiso   1.00
O645   O     0.83333   0.43893   0.46176   0.00000  Uiso   1.00
O646   O     0.83334   0.56107   0.53824   0.00000  Uiso   1.00
O647   O     0.75725   0.50000   0.52928   0.00000  Uiso   1.00
O648   O     0.90942   0.50000   0.47072   0.00000  Uiso   1.00
O649   O     0.75725   0.50000   0.45284   0.00000  Uiso   1.00
O650   O     0.90942   0.50000   0.54716   0.00000  Uiso   1.00
Zn651  Zn    0.83333   0.49999   0.55104   0.00000  Uiso   1.00
Zn652  Zn    0.83333   0.50001   0.44896   0.00000  Uiso   1.00
C653   C     0.75137   0.37517   0.43712   0.00000  Uiso   1.00
H654   H     0.72971   0.39727   0.45661   0.00000  Uiso   1.00
H655   H     0.76855   0.39249   0.41053   0.00000  Uiso   1.00
H656   H     0.72264   0.35234   0.41943   0.00000  Uiso   1.00
C657   C     0.91529   0.62483   0.56289   0.00000  Uiso   1.00
H658   H     0.93696   0.60274   0.54341   0.00000  Uiso   1.00
H659   H     0.94401   0.64766   0.58059   0.00000  Uiso   1.00
H660   H     0.89811   0.60751   0.58947   0.00000  Uiso   1.00
C661   C     0.16557   0.75343   0.49967   0.00000  Uiso   1.00
C662   C     0.16777   0.91323   0.50033   0.00000  Uiso   1.00
C663   C     0.06705   0.83331   0.48804   0.00000  Uiso   1.00
C664   C     0.26628   0.83335   0.51196   0.00000  Uiso   1.00
C665   C     0.01201   0.83328   0.48161   0.00000  Uiso   1.00
C666   C     0.32132   0.83338   0.51839   0.00000  Uiso   1.00
C667   C     0.12763   0.68709   0.46908   0.00000  Uiso   1.00
C668   C     0.20571   0.97958   0.53092   0.00000  Uiso   1.00
C669   C     0.12972   0.97731   0.47008   0.00000  Uiso   1.00
C670   C     0.20361   0.68935   0.52991   0.00000  Uiso   1.00
C671   C     0.16810   0.95738   0.50072   0.00000  Uiso   1.00
C672   C     0.16523   0.70929   0.49928   0.00000  Uiso   1.00
C673   C     0.20384   0.85510   0.36226   0.00000  Uiso   1.00
C674   C     0.12950   0.81157   0.63774   0.00000  Uiso   1.00
C675   C     0.20384   0.85506   0.64769   0.00000  Uiso   1.00
C676   C     0.12949   0.81161   0.35231   0.00000  Uiso   1.00
H677   H     0.32474   0.83319   0.44670   0.00000  Uiso   1.00
H678   H     0.00860   0.83348   0.55330   0.00000  Uiso   1.00
H679   H     0.10111   0.95906   0.44750   0.00000  Uiso   1.00
H680   H     0.23222   0.70761   0.55249   0.00000  Uiso   1.00
H681   H     0.23358   0.87254   0.38434   0.00000  Uiso   1.00
H682   H     0.09976   0.79413   0.61566   0.00000  Uiso   1.00
H683   H     0.23365   0.87239   0.63359   0.00000  Uiso   1.00
H684   H     0.09968   0.79428   0.36641   0.00000  Uiso   1.00
N685   N     0.16665   0.83332   0.61907   0.00000  Uiso   1.00
N686   N     0.16668   0.83334   0.38093   0.00000  Uiso   1.00
O687   O     0.16666   0.77225   0.53821   0.00000  Uiso   1.00
O688   O     0.16667   0.89442   0.46179   0.00000  Uiso   1.00
O689   O     0.16666   0.77226   0.46176   0.00000  Uiso   1.00
O690   O     0.16667   0.89441   0.53824   0.00000  Uiso   1.00
O691   O     0.09058   0.83333   0.52928   0.00000  Uiso   1.00
O692   O     0.24275   0.83334   0.47072   0.00000  Uiso   1.00
O693   O     0.09058   0.83334   0.45284   0.00000  Uiso   1.00
O694   O     0.24275   0.83333   0.54716   0.00000  Uiso   1.00
Zn695  Zn    0.16667   0.83333   0.55104   0.00000  Uiso   1.00
Zn696  Zn    0.16667   0.83334   0.44896   0.00000  Uiso   1.00
C697   C     0.08471   0.70851   0.43712   0.00000  Uiso   1.00
H698   H     0.06304   0.73060   0.45661   0.00000  Uiso   1.00
H699   H     0.10188   0.72582   0.41053   0.00000  Uiso   1.00
H700   H     0.05597   0.68567   0.41943   0.00000  Uiso   1.00
C701   C     0.24862   0.95816   0.56289   0.00000  Uiso   1.00
H702   H     0.27029   0.93607   0.54341   0.00000  Uiso   1.00
H703   H     0.27734   0.98100   0.58059   0.00000  Uiso   1.00
H704   H     0.23144   0.94085   0.58947   0.00000  Uiso   1.00
C705   C     0.49890   0.75343   0.49967   0.00000  Uiso   1.00
C706   C     0.50110   0.91323   0.50033   0.00000  Uiso   1.00
C707   C     0.40038   0.83331   0.48804   0.00000  Uiso   1.00
C708   C     0.59962   0.83335   0.51196   0.00000  Uiso   1.00
C709   C     0.34534   0.83328   0.48161   0.00000  Uiso   1.00
C710   C     0.65466   0.83338   0.51839   0.00000  Uiso   1.00
C711   C     0.46096   0.68709   0.46908   0.00000  Uiso   1.00
C712   C     0.53904   0.97958   0.53092   0.00000  Uiso   1.00
C713   C     0.46305   0.97731   0.47008   0.00000  Uiso   1.00
C714   C     0.53694   0.68935   0.52991   0.00000  Uiso   1.00
C715   C     0.50143   0.95738   0.50072   0.00000  Uiso   1.00
C716   C     0.49857   0.70929   0.49928   0.00000  Uiso   1.00
C717   C     0.53717   0.85510   0.36226   0.00000  Uiso   1.00
C718   C     0.46283   0.81157   0.63774   0.00000  Uiso   1.00
C719   C     0.53718   0.85506   0.64769   0.00000  Uiso   1.00
C720   C     0.46282   0.81161   0.35231   0.00000  Uiso   1.00
H721   H     0.65807   0.83319   0.44670   0.00000  Uiso   1.00
H722   H     0.34193   0.83348   0.55330   0.00000  Uiso   1.00
H723   H     0.43444   0.95906   0.44750   0.00000  Uiso   1.00
H724   H     0.56556   0.70761   0.55249   0.00000  Uiso   1.00
H725   H     0.56691   0.87254   0.38434   0.00000  Uiso   1.00
H726   H     0.43309   0.79413   0.61566   0.00000  Uiso   1.00
H727   H     0.56698   0.87239   0.63359   0.00000  Uiso   1.00
H728   H     0.43302   0.79428   0.36641   0.00000  Uiso   1.00
N729   N     0.49999   0.83332   0.61907   0.00000  Uiso   1.00
N730   N     0.50001   0.83334   0.38093   0.00000  Uiso   1.00
O731   O     0.50000   0.77225   0.53821   0.00000  Uiso   1.00
O732   O     0.50000   0.89442   0.46179   0.00000  Uiso   1.00
O733   O     0.50000   0.77226   0.46176   0.00000  Uiso   1.00
O734   O     0.50000   0.89441   0.53824   0.00000  Uiso   1.00
O735   O     0.42392   0.83333   0.52928   0.00000  Uiso   1.00
O736   O     0.57608   0.83334   0.47072   0.00000  Uiso   1.00
O737   O     0.42392   0.83334   0.45284   0.00000  Uiso   1.00
O738   O     0.57608   0.83333   0.54716   0.00000  Uiso   1.00
Zn739  Zn    0.50000   0.83333   0.55104   0.00000  Uiso   1.00
Zn740  Zn    0.50000   0.83334   0.44896   0.00000  Uiso   1.00
C741   C     0.41804   0.70851   0.43712   0.00000  Uiso   1.00
H742   H     0.39638   0.73060   0.45661   0.00000  Uiso   1.00
H743   H     0.43522   0.72582   0.41053   0.00000  Uiso   1.00
H744   H     0.38931   0.68567   0.41943   0.00000  Uiso   1.00
C745   C     0.58195   0.95816   0.56289   0.00000  Uiso   1.00
H746   H     0.60363   0.93607   0.54341   0.00000  Uiso   1.00
H747   H     0.61068   0.98100   0.58059   0.00000  Uiso   1.00
H748   H     0.56477   0.94085   0.58947   0.00000  Uiso   1.00
C749   C     0.83223   0.75343   0.49967   0.00000  Uiso   1.00
C750   C     0.83443   0.91323   0.50033   0.00000  Uiso   1.00
C751   C     0.73372   0.83331   0.48804   0.00000  Uiso   1.00
C752   C     0.93295   0.83335   0.51196   0.00000  Uiso   1.00
C753   C     0.67868   0.83328   0.48161   0.00000  Uiso   1.00
C754   C     0.98799   0.83338   0.51839   0.00000  Uiso   1.00
C755   C     0.79429   0.68709   0.46908   0.00000  Uiso   1.00
C756   C     0.87237   0.97958   0.53092   0.00000  Uiso   1.00
C757   C     0.79639   0.97731   0.47008   0.00000  Uiso   1.00
C758   C     0.87028   0.68935   0.52991   0.00000  Uiso   1.00
C759   C     0.83477   0.95738   0.50072   0.00000  Uiso   1.00
C760   C     0.83190   0.70929   0.49928   0.00000  Uiso   1.00
C761   C     0.87050   0.85510   0.36226   0.00000  Uiso   1.00
C762   C     0.79616   0.81157   0.63774   0.00000  Uiso   1.00
C763   C     0.87051   0.85506   0.64769   0.00000  Uiso   1.00
C764   C     0.79616   0.81161   0.35231   0.00000  Uiso   1.00
H765   H     0.99140   0.83319   0.44670   0.00000  Uiso   1.00
H766   H     0.67526   0.83348   0.55330   0.00000  Uiso   1.00
H767   H     0.76778   0.95906   0.44750   0.00000  Uiso   1.00
H768   H     0.89889   0.70761   0.55249   0.00000  Uiso   1.00
H769   H     0.90024   0.87254   0.38434   0.00000  Uiso   1.00
H770   H     0.76642   0.79413   0.61566   0.00000  Uiso   1.00
H771   H     0.90032   0.87239   0.63359   0.00000  Uiso   1.00
H772   H     0.76635   0.79428   0.36641   0.00000  Uiso   1.00
N773   N     0.83332   0.83332   0.61907   0.00000  Uiso   1.00
N774   N     0.83335   0.83334   0.38093   0.00000  Uiso   1.00
O775   O     0.83333   0.77225   0.53821   0.00000  Uiso   1.00
O776   O     0.83334   0.89442   0.46179   0.00000  Uiso   1.00
O777   O     0.83333   0.77226   0.46176   0.00000  Uiso   1.00
O778   O     0.83334   0.89441   0.53824   0.00000  Uiso   1.00
O779   O     0.75725   0.83333   0.52928   0.00000  Uiso   1.00
O780   O     0.90942   0.83334   0.47072   0.00000  Uiso   1.00
O781   O     0.75725   0.83334   0.45284   0.00000  Uiso   1.00
O782   O     0.90942   0.83333   0.54716   0.00000  Uiso   1.00
Zn783  Zn    0.83333   0.83333   0.55104   0.00000  Uiso   1.00
Zn784  Zn    0.83333   0.83334   0.44896   0.00000  Uiso   1.00
C785   C     0.75137   0.70851   0.43712   0.00000  Uiso   1.00
H786   H     0.72971   0.73060   0.45661   0.00000  Uiso   1.00
H787   H     0.76855   0.72582   0.41053   0.00000  Uiso   1.00
H788   H     0.72264   0.68567   0.41943   0.00000  Uiso   1.00
C789   C     0.91529   0.95816   0.56289   0.00000  Uiso   1.00
H790   H     0.93696   0.93607   0.54341   0.00000  Uiso   1.00
H791   H     0.94401   0.98100   0.58059   0.00000  Uiso   1.00
H792   H     0.89811   0.94085   0.58947   0.00000  Uiso   1.00
C793   C     0.16557   0.08677   0.83301   0.00000  Uiso   1.00
C794   C     0.16777   0.24657   0.83366   0.00000  Uiso   1.00
C795   C     0.06705   0.16664   0.82137   0.00000  Uiso   1.00
C796   C     0.26628   0.16669   0.84530   0.00000  Uiso   1.00
C797   C     0.01201   0.16662   0.81494   0.00000  Uiso   1.00
C798   C     0.32132   0.16671   0.85173   0.00000  Uiso   1.00
C799   C     0.12763   0.02042   0.80241   0.00000  Uiso   1.00
C800   C     0.20571   0.31291   0.86426   0.00000  Uiso   1.00
C801   C     0.12972   0.31065   0.80342   0.00000  Uiso   1.00
C802   C     0.20361   0.02269   0.86325   0.00000  Uiso   1.00
C803   C     0.16810   0.29071   0.83405   0.00000  Uiso   1.00
C804   C     0.16523   0.04262   0.83262   0.00000  Uiso   1.00
C805   C     0.20384   0.18843   0.69560   0.00000  Uiso   1.00
C806   C     0.12950   0.14490   0.97107   0.00000  Uiso   1.00
C807   C     0.20384   0.18839   0.98102   0.00000  Uiso   1.00
C808   C     0.12949   0.14494   0.68564   0.00000  Uiso   1.00
H809   H     0.32474   0.16652   0.78004   0.00000  Uiso   1.00
H810   H     0.00860   0.16681   0.88663   0.00000  Uiso   1.00
H811   H     0.10111   0.29239   0.78083   0.00000  Uiso   1.00
H812   H     0.23222   0.04094   0.88583   0.00000  Uiso   1.00
H813   H     0.23358   0.20587   0.71767   0.00000  Uiso   1.00
H814   H     0.09976   0.12746   0.94900   0.00000  Uiso   1.00
H815   H     0.23365   0.20572   0.96692   0.00000  Uiso   1.00
H816   H     0.09968   0.12761   0.69974   0.00000  Uiso   1.00
N817   N     0.16665   0.16666   0.95240   0.00000  Uiso   1.00
N818   N     0.16668   0.16668   0.71427   0.00000  Uiso   1.00
O819   O     0.16666   0.10558   0.87154   0.00000  Uiso   1.00
O820   O     0.16667   0.22775   0.79513   0.00000  Uiso   1.00
O821   O     0.16666   0.10559   0.79510   0.00000  Uiso   1.00
O822   O     0.16667   0.22774   0.87157   0.00000  Uiso   1.00
O823   O     0.09058   0.16666   0.86261   0.00000  Uiso   1.00
O824   O     0.24275   0.16667   0.80405   0.00000  Uiso   1.00
O825   O     0.09058   0.16667   0.78617   0.00000  Uiso   1.00
O826   O     0.24275   0.16666   0.88050   0.00000  Uiso   1.00
Zn827  Zn    0.16667   0.16666   0.88437   0.00000  Uiso   1.00
Zn828  Zn    0.16667   0.16667   0.78229   0.00000  Uiso   1.00
C829   C     0.08471   0.04184   0.77045   0.00000  Uiso   1.00
H830   H     0.06304   0.06394   0.78995   0.00000  Uiso   1.00
H831   H     0.10188   0.05915   0.74387   0.00000  Uiso   1.00
H832   H     0.05597   0.01900   0.75276   0.00000  Uiso   1.00
C833   C     0.24862   0.29149   0.89623   0.00000  Uiso   1.00
H834   H     0.27029   0.26940   0.87674   0.00000  Uiso   1.00
H835   H     0.27734   0.31433   0.91393   0.00000  Uiso   1.00
H836   H     0.23144   0.27418   0.92281   0.00000  Uiso   1.00
C837   C     0.49890   0.08677   0.83301   0.00000  Uiso   1.00
C838   C     0.50110   0.24657   0.83366   0.00000  Uiso   1.00
C839   C     0.40038   0.16664   0.82137   0.00000  Uiso   1.00
C840   C     0.59962   0.16669   0.84530   0.00000  Uiso   1.00
C841   C     0.34534   0.16662   0.81494   0.00000  Uiso   1.00
C842   C     0.65466   0.16671   0.85173   0.00000  Uiso   1.00
C843   C     0.46096   0.02042   0.80241   0.00000  Uiso   1.00
C844   C     0.53904   0.31291   0.86426   0.00000  Uiso   1.00
C845   C     0.46305   0.31065   0.80342   0.00000  Uiso   1.00
C846   C     0.53694   0.02269   0.86325   0.00000  Uiso   1.00
C847   C     0.50143   0.29071   0.83405   0.00000  Uiso   1.00
C848   C     0.49857   0.04262   0.83262   0.00000  Uiso   1.00
C849   C     0.53717   0.18843   0.69560   0.00000  Uiso   1.00
C850   C     0.46283   0.14490   0.97107   0.00000  Uiso   1.00
C851   C     0.53718   0.18839   0.98102   0.00000  Uiso   1.00
C852   C     0.46282   0.14494   0.68564   0.00000  Uiso   1.00
H853   H     0.65807   0.16652   0.78004   0.00000  Uiso   1.00
H854   H     0.34193   0.16681   0.88663   0.00000  Uiso   1.00
H855   H     0.43444   0.29239   0.78083   0.00000  Uiso   1.00
H856   H     0.56556   0.04094   0.88583   0.00000  Uiso   1.00
H857   H     0.56691   0.20587   0.71767   0.00000  Uiso   1.00
H858   H     0.43309   0.12746   0.94900   0.00000  Uiso   1.00
H859   H     0.56698   0.20572   0.96692   0.00000  Uiso   1.00
H860   H     0.43302   0.12761   0.69974   0.00000  Uiso   1.00
N861   N     0.49999   0.16666   0.95240   0.00000  Uiso   1.00
N862   N     0.50001   0.16668   0.71427   0.00000  Uiso   1.00
O863   O     0.50000   0.10558   0.87154   0.00000  Uiso   1.00
O864   O     0.50000   0.22775   0.79513   0.00000  Uiso   1.00
O865   O     0.50000   0.10559   0.79510   0.00000  Uiso   1.00
O866   O     0.50000   0.22774   0.87157   0.00000  Uiso   1.00
O867   O     0.42392   0.16666   0.86261   0.00000  Uiso   1.00
O868   O     0.57608   0.16667   0.80405   0.00000  Uiso   1.00
O869   O     0.42392   0.16667   0.78617   0.00000  Uiso   1.00
O870   O     0.57608   0.16666   0.88050   0.00000  Uiso   1.00
Zn871  Zn    0.50000   0.16666   0.88437   0.00000  Uiso   1.00
Zn872  Zn    0.50000   0.16667   0.78229   0.00000  Uiso   1.00
C873   C     0.41804   0.04184   0.77045   0.00000  Uiso   1.00
H874   H     0.39638   0.06394   0.78995   0.00000  Uiso   1.00
H875   H     0.43522   0.05915   0.74387   0.00000  Uiso   1.00
H876   H     0.38931   0.01900   0.75276   0.00000  Uiso   1.00
C877   C     0.58195   0.29149   0.89623   0.00000  Uiso   1.00
H878   H     0.60363   0.26940   0.87674   0.00000  Uiso   1.00
H879   H     0.61068   0.31433   0.91393   0.00000  Uiso   1.00
H880   H     0.56477   0.27418   0.92281   0.00000  Uiso   1.00
C881   C     0.83223   0.08677   0.83301   0.00000  Uiso   1.00
C882   C     0.83443   0.24657   0.83366   0.00000  Uiso   1.00
C883   C     0.73372   0.16664   0.82137   0.00000  Uiso   1.00
C884   C     0.93295   0.16669   0.84530   0.00000  Uiso   1.00
C885   C     0.67868   0.16662   0.81494   0.00000  Uiso   1.00
C886   C     0.98799   0.16671   0.85173   0.00000  Uiso   1.00
C887   C     0.79429   0.02042   0.80241   0.00000  Uiso   1.00
C888   C     0.87237   0.31291   0.86426   0.00000  Uiso   1.00
C889   C     0.79639   0.31065   0.80342   0.00000  Uiso   1.00
C890   C     0.87028   0.02269   0.86325   0.00000  Uiso   1.00
C891   C     0.83477   0.29071   0.83405   0.00000  Uiso   1.00
C892   C     0.83190   0.04262   0.83262   0.00000  Uiso   1.00
C893   C     0.87050   0.18843   0.69560   0.00000  Uiso   1.00
C894   C     0.79616   0.14490   0.97107   0.00000  Uiso   1.00
C895   C     0.87051   0.18839   0.98102   0.00000  Uiso   1.00
C896   C     0.79616   0.14494   0.68564   0.00000  Uiso   1.00
H897   H     0.99140   0.16652   0.78004   0.00000  Uiso   1.00
H898   H     0.67526   0.16681   0.88663   0.00000  Uiso   1.00
H899   H     0.76778   0.29239   0.78083   0.00000  Uiso   1.00
H900   H     0.89889   0.04094   0.88583   0.00000  Uiso   1.00
H901   H     0.90024   0.20587   0.71767   0.00000  Uiso   1.00
H902   H     0.76642   0.12746   0.94900   0.00000  Uiso   1.00
H903   H     0.90032   0.20572   0.96692   0.00000  Uiso   1.00
H904   H     0.76635   0.12761   0.69974   0.00000  Uiso   1.00
N905   N     0.83332   0.16666   0.95240   0.00000  Uiso   1.00
N906   N     0.83335   0.16668   0.71427   0.00000  Uiso   1.00
O907   O     0.83333   0.10558   0.87154   0.00000  Uiso   1.00
O908   O     0.83334   0.22775   0.79513   0.00000  Uiso   1.00
O909   O     0.83333   0.10559   0.79510   0.00000  Uiso   1.00
O910   O     0.83334   0.22774   0.87157   0.00000  Uiso   1.00
O911   O     0.75725   0.16666   0.86261   0.00000  Uiso   1.00
O912   O     0.90942   0.16667   0.80405   0.00000  Uiso   1.00
O913   O     0.75725   0.16667   0.78617   0.00000  Uiso   1.00
O914   O     0.90942   0.16666   0.88050   0.00000  Uiso   1.00
Zn915  Zn    0.83333   0.16666   0.88437   0.00000  Uiso   1.00
Zn916  Zn    0.83333   0.16667   0.78229   0.00000  Uiso   1.00
C917   C     0.75137   0.04184   0.77045   0.00000  Uiso   1.00
H918   H     0.72971   0.06394   0.78995   0.00000  Uiso   1.00
H919   H     0.76855   0.05915   0.74387   0.00000  Uiso   1.00
H920   H     0.72264   0.01900   0.75276   0.00000  Uiso   1.00
C921   C     0.91529   0.29149   0.89623   0.00000  Uiso   1.00
H922   H     0.93696   0.26940   0.87674   0.00000  Uiso   1.00
H923   H     0.94401   0.31433   0.91393   0.00000  Uiso   1.00
H924   H     0.89811   0.27418   0.92281   0.00000  Uiso   1.00
C925   C     0.16557   0.42010   0.83301   0.00000  Uiso   1.00
C926   C     0.16777   0.57990   0.83366   0.00000  Uiso   1.00
C927   C     0.06705   0.49998   0.82137   0.00000  Uiso   1.00
C928   C     0.26628   0.50002   0.84530   0.00000  Uiso   1.00
C929   C     0.01201   0.49995   0.81494   0.00000  Uiso   1.00
C930   C     0.32132   0.50005   0.85173   0.00000  Uiso   1.00
C931   C     0.12763   0.35375   0.80241   0.00000  Uiso   1.00
C932   C     0.20571   0.64625   0.86426   0.00000  Uiso   1.00
C933   C     0.12972   0.64398   0.80342   0.00000  Uiso   1.00
C934   C     0.20361   0.35602   0.86325   0.00000  Uiso   1.00
C935   C     0.16810   0.62405   0.83405   0.00000  Uiso   1.00
C936   C     0.16523   0.37595   0.83262   0.00000  Uiso   1.00
C937   C     0.20384   0.52176   0.69560   0.00000  Uiso   1.00
C938   C     0.12950   0.47824   0.97107   0.00000  Uiso   1.00
C939   C     0.20384   0.52173   0.98102   0.00000  Uiso   1.00
C940   C     0.12949   0.47827   0.68564   0.00000  Uiso   1.00
H941   H     0.32474   0.49986   0.78004   0.00000  Uiso   1.00
H942   H     0.00860   0.50014   0.88663   0.00000  Uiso   1.00
H943   H     0.10111   0.62573   0.78083   0.00000  Uiso   1.00
H944   H     0.23222   0.37427   0.88583   0.00000  Uiso   1.00
H945   H     0.23358   0.53921   0.71767   0.00000  Uiso   1.00
H946   H     0.09976   0.46079   0.94900   0.00000  Uiso   1.00
H947   H     0.23365   0.53906   0.96692   0.00000  Uiso   1.00
H948   H     0.09968   0.46094   0.69974   0.00000  Uiso   1.00
N949   N     0.16665   0.49999   0.95240   0.00000  Uiso   1.00
N950   N     0.16668   0.50001   0.71427   0.00000  Uiso   1.00
O951   O     0.16666   0.43892   0.87154   0.00000  Uiso   1.00
O952   O     0.16667   0.56108   0.79513   0.00000  Uiso   1.00
O953   O     0.16666   0.43893   0.79510   0.00000  Uiso   1.00
O954   O     0.16667   0.56107   0.87157   0.00000  Uiso   1.00
O955   O     0.09058   0.50000   0.86261   0.00000  Uiso   1.00
O956   O     0.24275   0.50000   0.80405   0.00000  Uiso   1.00
O957   O     0.09058   0.50000   0.78617   0.00000  Uiso   1.00
O958   O     0.24275   0.50000   0.88050   0.00000  Uiso   1.00
Zn959  Zn    0.16667   0.49999   0.88437   0.00000  Uiso   1.00
Zn960  Zn    0.16667   0.50001   0.78229   0.00000  Uiso   1.00
C961   C     0.08471   0.37517   0.77045   0.00000  Uiso   1.00
H962   H     0.06304   0.39727   0.78995   0.00000  Uiso   1.00
H963   H     0.10188   0.39249   0.74387   0.00000  Uiso   1.00
H964   H     0.05597   0.35234   0.75276   0.00000  Uiso   1.00
C965   C     0.24862   0.62483   0.89623   0.00000  Uiso   1.00
H966   H     0.27029   0.60274   0.87674   0.00000  Uiso   1.00
H967   H     0.27734   0.64766   0.91393   0.00000  Uiso   1.00
H968   H     0.23144   0.60751   0.92281   0.00000  Uiso   1.00
C969   C     0.49890   0.42010   0.83301   0.00000  Uiso   1.00
C970   C     0.50110   0.57990   0.83366   0.00000  Uiso   1.00
C971   C     0.40038   0.49998   0.82137   0.00000  Uiso   1.00
C972   C     0.59962   0.50002   0.84530   0.00000  Uiso   1.00
C973   C     0.34534   0.49995   0.81494   0.00000  Uiso   1.00
C974   C     0.65466   0.50005   0.85173   0.00000  Uiso   1.00
C975   C     0.46096   0.35375   0.80241   0.00000  Uiso   1.00
C976   C     0.53904   0.64625   0.86426   0.00000  Uiso   1.00
C977   C     0.46305   0.64398   0.80342   0.00000  Uiso   1.00
C978   C     0.53694   0.35602   0.86325   0.00000  Uiso   1.00
C979   C     0.50143   0.62405   0.83405   0.00000  Uiso   1.00
C980   C     0.49857   0.37595   0.83262   0.00000  Uiso   1.00
C981   C     0.53717   0.52176   0.69560   0.00000  Uiso   1.00
C982   C     0.46283   0.47824   0.97107   0.00000  Uiso   1.00
C983   C     0.53718   0.52173   0.98102   0.00000  Uiso   1.00
C984   C     0.46282   0.47827   0.68564   0.00000  Uiso   1.00
H985   H     0.65807   0.49986   0.78004   0.00000  Uiso   1.00
H986   H     0.34193   0.50014   0.88663   0.00000  Uiso   1.00
H987   H     0.43444   0.62573   0.78083   0.00000  Uiso   1.00
H988   H     0.56556   0.37427   0.88583   0.00000  Uiso   1.00
H989   H     0.56691   0.53921   0.71767   0.00000  Uiso   1.00
H990   H     0.43309   0.46079   0.94900   0.00000  Uiso   1.00
H991   H     0.56698   0.53906   0.96692   0.00000  Uiso   1.00
H992   H     0.43302   0.46094   0.69974   0.00000  Uiso   1.00
N993   N     0.49999   0.49999   0.95240   0.00000  Uiso   1.00
N994   N     0.50001   0.50001   0.71427   0.00000  Uiso   1.00
O995   O     0.50000   0.43892   0.87154   0.00000  Uiso   1.00
O996   O     0.50000   0.56108   0.79513   0.00000  Uiso   1.00
O997   O     0.50000   0.43893   0.79510   0.00000  Uiso   1.00
O998   O     0.50000   0.56107   0.87157   0.00000  Uiso   1.00
O999   O     0.42392   0.50000   0.86261   0.00000  Uiso   1.00
O1000  O     0.57608   0.50000   0.80405   0.00000  Uiso   1.00
O1001  O     0.42392   0.50000   0.78617   0.00000  Uiso   1.00
O1002  O     0.57608   0.50000   0.88050   0.00000  Uiso   1.00
Zn1003 Zn    0.50000   0.49999   0.88437   0.00000  Uiso   1.00
Zn1004 Zn    0.50000   0.50001   0.78229   0.00000  Uiso   1.00
C1005  C     0.41804   0.37517   0.77045   0.00000  Uiso   1.00
H1006  H     0.39638   0.39727   0.78995   0.00000  Uiso   1.00
H1007  H     0.43522   0.39249   0.74387   0.00000  Uiso   1.00
H1008  H     0.38931   0.35234   0.75276   0.00000  Uiso   1.00
C1009  C     0.58195   0.62483   0.89623   0.00000  Uiso   1.00
H1010  H     0.60363   0.60274   0.87674   0.00000  Uiso   1.00
H1011  H     0.61068   0.64766   0.91393   0.00000  Uiso   1.00
H1012  H     0.56477   0.60751   0.92281   0.00000  Uiso   1.00
C1013  C     0.83223   0.42010   0.83301   0.00000  Uiso   1.00
C1014  C     0.83443   0.57990   0.83366   0.00000  Uiso   1.00
C1015  C     0.73372   0.49998   0.82137   0.00000  Uiso   1.00
C1016  C     0.93295   0.50002   0.84530   0.00000  Uiso   1.00
C1017  C     0.67868   0.49995   0.81494   0.00000  Uiso   1.00
C1018  C     0.98799   0.50005   0.85173   0.00000  Uiso   1.00
C1019  C     0.79429   0.35375   0.80241   0.00000  Uiso   1.00
C1020  C     0.87237   0.64625   0.86426   0.00000  Uiso   1.00
C1021  C     0.79639   0.64398   0.80342   0.00000  Uiso   1.00
C1022  C     0.87028   0.35602   0.86325   0.00000  Uiso   1.00
C1023  C     0.83477   0.62405   0.83405   0.00000  Uiso   1.00
C1024  C     0.83190   0.37595   0.83262   0.00000  Uiso   1.00
C1025  C     0.87050   0.52176   0.69560   0.00000  Uiso   1.00
C1026  C     0.79616   0.47824   0.97107   0.00000  Uiso   1.00
C1027  C     0.87051   0.52173   0.98102   0.00000  Uiso   1.00
C1028  C     0.79616   0.47827   0.68564   0.00000  Uiso   1.00
H1029  H     0.99140   0.49986   0.78004   0.00000  Uiso   1.00
H1030  H     0.67526   0.50014   0.88663   0.00000  Uiso   1.00
H1031  H     0.76778   0.62573   0.78083   0.00000  Uiso   1.00
H1032  H     0.89889   0.37427   0.88583   0.00000  Uiso   1.00
H1033  H     0.90024   0.53921   0.71767   0.00000  Uiso   1.00
H1034  H     0.76642   0.46079   0.94900   0.00000  Uiso   1.00
H1035  H     0.90032   0.53906   0.96692   0.00000  Uiso   1.00
H1036  H     0.76635   0.46094   0.69974   0.00000  Uiso   1.00
N1037  N     0.83332   0.49999   0.95240   0.00000  Uiso   1.00
N1038  N     0.83335   0.50001   0.71427   0.00000  Uiso   1.00
O1039  O     0.83333   0.43892   0.87154   0.00000  Uiso   1.00
O1040  O     0.83334   0.56108   0.79513   0.00000  Uiso   1.00
O1041  O     0.83333   0.43893   0.79510   0.00000  Uiso   1.00
O1042  O     0.83334   0.56107   0.87157   0.00000  Uiso   1.00
O1043  O     0.75725   0.50000   0.86261   0.00000  Uiso   1.00
O1044  O     0.90942   0.50000   0.80405   0.00000  Uiso   1.00
O1045  O     0.75725   0.50000   0.78617   0.00000  Uiso   1.00
O1046  O     0.90942   0.50000   0.88050   0.00000  Uiso   1.00
Zn1047 Zn    0.83333   0.49999   0.88437   0.00000  Uiso   1.00
Zn1048 Zn    0.83333   0.50001   0.78229   0.00000  Uiso   1.00
C1049  C     0.75137   0.37517   0.77045   0.00000  Uiso   1.00
H1050  H     0.72971   0.39727   0.78995   0.00000  Uiso   1.00
H1051  H     0.76855   0.39249   0.74387   0.00000  Uiso   1.00
H1052  H     0.72264   0.35234   0.75276   0.00000  Uiso   1.00
C1053  C     0.91529   0.62483   0.89623   0.00000  Uiso   1.00
H1054  H     0.93696   0.60274   0.87674   0.00000  Uiso   1.00
H1055  H     0.94401   0.64766   0.91393   0.00000  Uiso   1.00
H1056  H     0.89811   0.60751   0.92281   0.00000  Uiso   1.00
C1057  C     0.16557   0.75343   0.83301   0.00000  Uiso   1.00
C1058  C     0.16777   0.91323   0.83366   0.00000  Uiso   1.00
C1059  C     0.06705   0.83331   0.82137   0.00000  Uiso   1.00
C1060  C     0.26628   0.83335   0.84530   0.00000  Uiso   1.00
C1061  C     0.01201   0.83328   0.81494   0.00000  Uiso   1.00
C1062  C     0.32132   0.83338   0.85173   0.00000  Uiso   1.00
C1063  C     0.12763   0.68709   0.80241   0.00000  Uiso   1.00
C1064  C     0.20571   0.97958   0.86426   0.00000  Uiso   1.00
C1065  C     0.12972   0.97731   0.80342   0.00000  Uiso   1.00
C1066  C     0.20361   0.68935   0.86325   0.00000  Uiso   1.00
C1067  C     0.16810   0.95738   0.83405   0.00000  Uiso   1.00
C1068  C     0.16523   0.70929   0.83262   0.00000  Uiso   1.00
C1069  C     0.20384   0.85510   0.69560   0.00000  Uiso   1.00
C1070  C     0.12950   0.81157   0.97107   0.00000  Uiso   1.00
C1071  C     0.20384   0.85506   0.98102   0.00000  Uiso   1.00
C1072  C     0.12949   0.81161   0.68564   0.00000  Uiso   1.00
H1073  H     0.32474   0.83319   0.78004   0.00000  Uiso   1.00
H1074  H     0.00860   0.83348   0.88663   0.00000  Uiso   1.00
H1075  H     0.10111   0.95906   0.78083   0.00000  Uiso   1.00
H1076  H     0.23222   0.70761   0.88583   0.00000  Uiso   1.00
H1077  H     0.23358   0.87254   0.71767   0.00000  Uiso   1.00
H1078  H     0.09976   0.79413   0.94900   0.00000  Uiso   1.00
H1079  H     0.23365   0.87239   0.96692   0.00000  Uiso   1.00
H1080  H     0.09968   0.79428   0.69974   0.00000  Uiso   1.00
N1081  N     0.16665   0.83332   0.95240   0.00000  Uiso   1.00
N1082  N     0.16668   0.83334   0.71427   0.00000  Uiso   1.00
O1083  O     0.16666   0.77225   0.87154   0.00000  Uiso   1.00
O1084  O     0.16667   0.89442   0.79513   0.00000  Uiso   1.00
O1085  O     0.16666   0.77226   0.79510   0.00000  Uiso   1.00
O1086  O     0.16667   0.89441   0.87157   0.00000  Uiso   1.00
O1087  O     0.09058   0.83333   0.86261   0.00000  Uiso   1.00
O1088  O     0.24275   0.83334   0.80405   0.00000  Uiso   1.00
O1089  O     0.09058   0.83334   0.78617   0.00000  Uiso   1.00
O1090  O     0.24275   0.83333   0.88050   0.00000  Uiso   1.00
Zn1091 Zn    0.16667   0.83333   0.88437   0.00000  Uiso   1.00
Zn1092 Zn    0.16667   0.83334   0.78229   0.00000  Uiso   1.00
C1093  C     0.08471   0.70851   0.77045   0.00000  Uiso   1.00
H1094  H     0.06304   0.73060   0.78995   0.00000  Uiso   1.00
H1095  H     0.10188   0.72582   0.74387   0.00000  Uiso   1.00
H1096  H     0.05597   0.68567   0.75276   0.00000  Uiso   1.00
C1097  C     0.24862   0.95816   0.89623   0.00000  Uiso   1.00
H1098  H     0.27029   0.93607   0.87674   0.00000  Uiso   1.00
H1099  H     0.27734   0.98100   0.91393   0.00000  Uiso   1.00
H1100  H     0.23144   0.94085   0.92281   0.00000  Uiso   1.00
C1101  C     0.49890   0.75343   0.83301   0.00000  Uiso   1.00
C1102  C     0.50110   0.91323   0.83366   0.00000  Uiso   1.00
C1103  C     0.40038   0.83331   0.82137   0.00000  Uiso   1.00
C1104  C     0.59962   0.83335   0.84530   0.00000  Uiso   1.00
C1105  C     0.34534   0.83328   0.81494   0.00000  Uiso   1.00
C1106  C     0.65466   0.83338   0.85173   0.00000  Uiso   1.00
C1107  C     0.46096   0.68709   0.80241   0.00000  Uiso   1.00
C1108  C     0.53904   0.97958   0.86426   0.00000  Uiso   1.00
C1109  C     0.46305   0.97731   0.80342   0.00000  Uiso   1.00
C1110  C     0.53694   0.68935   0.86325   0.00000  Uiso   1.00
C1111  C     0.50143   0.95738   0.83405   0.00000  Uiso   1.00
C1112  C     0.49857   0.70929   0.83262   0.00000  Uiso   1.00
C1113  C     0.53717   0.85510   0.69560   0.00000  Uiso   1.00
C1114  C     0.46283   0.81157   0.97107   0.00000  Uiso   1.00
C1115  C     0.53718   0.85506   0.98102   0.00000  Uiso   1.00
C1116  C     0.46282   0.81161   0.68564   0.00000  Uiso   1.00
H1117  H     0.65807   0.83319   0.78004   0.00000  Uiso   1.00
H1118  H     0.34193   0.83348   0.88663   0.00000  Uiso   1.00
H1119  H     0.43444   0.95906   0.78083   0.00000  Uiso   1.00
H1120  H     0.56556   0.70761   0.88583   0.00000  Uiso   1.00
H1121  H     0.56691   0.87254   0.71767   0.00000  Uiso   1.00
H1122  H     0.43309   0.79413   0.94900   0.00000  Uiso   1.00
H1123  H     0.56698   0.87239   0.96692   0.00000  Uiso   1.00
H1124  H     0.43302   0.79428   0.69974   0.00000  Uiso   1.00
N1125  N     0.49999   0.83332   0.95240   0.00000  Uiso   1.00
N1126  N     0.50001   0.83334   0.71427   0.00000  Uiso   1.00
O1127  O     0.50000   0.77225   0.87154   0.00000  Uiso   1.00
O1128  O     0.50000   0.89442   0.79513   0.00000  Uiso   1.00
O1129  O     0.50000   0.77226   0.79510   0.00000  Uiso   1.00
O1130  O     0.50000   0.89441   0.87157   0.00000  Uiso   1.00
O1131  O     0.42392   0.83333   0.86261   0.00000  Uiso   1.00
O1132  O     0.57608   0.83334   0.80405   0.00000  Uiso   1.00
O1133  O     0.42392   0.83334   0.78617   0.00000  Uiso   1.00
O1134  O     0.57608   0.83333   0.88050   0.00000  Uiso   1.00
Zn1135 Zn    0.50000   0.83333   0.88437   0.00000  Uiso   1.00
Zn1136 Zn    0.50000   0.83334   0.78229   0.00000  Uiso   1.00
C1137  C     0.41804   0.70851   0.77045   0.00000  Uiso   1.00
H1138  H     0.39638   0.73060   0.78995   0.00000  Uiso   1.00
H1139  H     0.43522   0.72582   0.74387   0.00000  Uiso   1.00
H1140  H     0.38931   0.68567   0.75276   0.00000  Uiso   1.00
C1141  C     0.58195   0.95816   0.89623   0.00000  Uiso   1.00
H1142  H     0.60363   0.93607   0.87674   0.00000  Uiso   1.00
H1143  H     0.61068   0.98100   0.91393   0.00000  Uiso   1.00
H1144  H     0.56477   0.94085   0.92281   0.00000  Uiso   1.00
C1145  C     0.83223   0.75343   0.83301   0.00000  Uiso   1.00
C1146  C     0.83443   0.91323   0.83366   0.00000  Uiso   1.00
C1147  C     0.73372   0.83331   0.82137   0.00000  Uiso   1.00
C1148  C     0.93295   0.83335   0.84530   0.00000  Uiso   1.00
C1149  C     0.67868   0.83328   0.81494   0.00000  Uiso   1.00
C1150  C     0.98799   0.83338   0.85173   0.00000  Uiso   1.00
C1151  C     0.79429   0.68709   0.80241   0.00000  Uiso   1.00
C1152  C     0.87237   0.97958   0.86426   0.00000  Uiso   1.00
C1153  C     0.79639   0.97731   0.80342   0.00000  Uiso   1.00
C1154  C     0.87028   0.68935   0.86325   0.00000  Uiso   1.00
C1155  C     0.83477   0.95738   0.83405   0.00000  Uiso   1.00
C1156  C     0.83190   0.70929   0.83262   0.00000  Uiso   1.00
C1157  C     0.87050   0.85510   0.69560   0.00000  Uiso   1.00
C1158  C     0.79616   0.81157   0.97107   0.00000  Uiso   1.00
C1159  C     0.87051   0.85506   0.98102   0.00000  Uiso   1.00
C1160  C     0.79616   0.81161   0.68564   0.00000  Uiso   1.00
H1161  H     0.99140   0.83319   0.78004   0.00000  Uiso   1.00
H1162  H     0.67526   0.83348   0.88663   0.00000  Uiso   1.00
H1163  H     0.76778   0.95906   0.78083   0.00000  Uiso   1.00
H1164  H     0.89889   0.70761   0.88583   0.00000  Uiso   1.00
H1165  H     0.90024   0.87254   0.71767   0.00000  Uiso   1.00
H1166  H     0.76642   0.79413   0.94900   0.00000  Uiso   1.00
H1167  H     0.90032   0.87239   0.96692   0.00000  Uiso   1.00
H1168  H     0.76635   0.79428   0.69974   0.00000  Uiso   1.00
N1169  N     0.83332   0.83332   0.95240   0.00000  Uiso   1.00
N1170  N     0.83335   0.83334   0.71427   0.00000  Uiso   1.00
O1171  O     0.83333   0.77225   0.87154   0.00000  Uiso   1.00
O1172  O     0.83334   0.89442   0.79513   0.00000  Uiso   1.00
O1173  O     0.83333   0.77226   0.79510   0.00000  Uiso   1.00
O1174  O     0.83334   0.89441   0.87157   0.00000  Uiso   1.00
O1175  O     0.75725   0.83333   0.86261   0.00000  Uiso   1.00
O1176  O     0.90942   0.83334   0.80405   0.00000  Uiso   1.00
O1177  O     0.75725   0.83334   0.78617   0.00000  Uiso   1.00
O1178  O     0.90942   0.83333   0.88050   0.00000  Uiso   1.00
Zn1179 Zn    0.83333   0.83333   0.88437   0.00000  Uiso   1.00
Zn1180 Zn    0.83333   0.83334   0.78229   0.00000  Uiso   1.00
C1181  C     0.75137   0.70851   0.77045   0.00000  Uiso   1.00
H1182  H     0.72971   0.73060   0.78995   0.00000  Uiso   1.00
H1183  H     0.76855   0.72582   0.74387   0.00000  Uiso   1.00
H1184  H     0.72264   0.68567   0.75276   0.00000  Uiso   1.00
C1185  C     0.91529   0.95816   0.89623   0.00000  Uiso   1.00
H1186  H     0.93696   0.93607   0.87674   0.00000  Uiso   1.00
H1187  H     0.94401   0.98100   0.91393   0.00000  Uiso   1.00
H1188  H     0.89811   0.94085   0.92281   0.00000  Uiso   1.00
loop_
_geom_bond_atom_site_label_1
_geom_bond_atom_site_label_2
_geom_bond_distance
_geom_bond_site_symmetry_2
_ccdc_geom_bond_type
C1     O29     1.280   .     A
C1     C12     1.410   .     S
C1     O27     1.282   .     A
C2     O30     1.280   .     A
C2     C11     1.410   .     S
C2     O28     1.282   .     A
C3     O31     1.279   .     A
C3     O33     1.281   .     A
C3     C5      1.403   .     S
C4     O34     1.281   .     A
C4     O32     1.279   .     A
C4     C6      1.403   .     S
C5     C94     1.330   1_455 S
C5     H105    1.088   1_455 S
C6     C49     1.330   .     S
C6     H62     1.088   .     S
C7     C37     1.510   .     S
C7     C12     1.405   .     A
C7     C273    1.378   1_545 S
C8     C11     1.405   .     A
C8     C41     1.510   .     S
C8     C142    1.378   .     S
C9     C11     1.394   .     A
C9     H19     1.085   .     S
C9     C139    1.378   .     S
C10    C12     1.394   .     A
C10    H20     1.085   .     S
C10    C272    1.378   1_545 S
C13    H21     1.082   .     S
C13    N26     1.367   .     A
C13    C807    1.417   1_554 S
C14    H22     1.082   .     S
C14    N25     1.367   .     A
C14    C412    1.417   .     S
C15    H23     1.081   .     S
C15    N25     1.367   .     A
C15    C409    1.417   .     S
C16    N26     1.367   .     A
C16    H24     1.081   .     S
C16    C806    1.417   1_554 S
H17    C49     1.088   .     S
H18    C94     1.088   1_455 S
N25    Zn35    2.012   .     S
N26    Zn36    2.012   .     S
O27    Zn35    1.985   .     S
O28    Zn36    1.985   .     S
O29    Zn36    1.990   .     S
O30    Zn35    1.990   .     S
O31    Zn35    1.970   .     S
O32    Zn36    1.970   .     S
O33    Zn36    1.981   .     S
O34    Zn35    1.981   .     S
C37    H38     1.111   .     S
C37    H39     1.109   .     S
C37    H40     1.111   .     S
C41    H42     1.111   .     S
C41    H43     1.111   .     S
C41    H44     1.109   .     S
C45    O73     1.280   .     A
C45    C56     1.410   .     S
C45    O71     1.282   .     A
C46    O74     1.280   .     A
C46    C55     1.410   .     S
C46    O72     1.282   .     A
C47    O75     1.279   .     A
C47    O77     1.281   .     A
C47    C49     1.403   .     S
C48    O78     1.281   .     A
C48    O76     1.279   .     A
C48    C50     1.403   .     S
C50    C93     1.330   .     S
C50    H106    1.088   .     S
C51    C81     1.510   .     S
C51    C56     1.405   .     A
C51    C317    1.378   1_545 S
C52    C55     1.405   .     A
C52    C85     1.510   .     S
C52    C186    1.378   .     S
C53    C55     1.394   .     A
C53    H63     1.085   .     S
C53    C183    1.378   .     S
C54    C56     1.394   .     A
C54    H64     1.085   .     S
C54    C316    1.378   1_545 S
C57    H65     1.082   .     S
C57    N70     1.367   .     A
C57    C851    1.417   1_554 S
C58    H66     1.082   .     S
C58    N69     1.367   .     A
C58    C456    1.417   .     S
C59    H67     1.081   .     S
C59    N69     1.367   .     A
C59    C453    1.417   .     S
C60    N70     1.367   .     A
C60    H68     1.081   .     S
C60    C850    1.417   1_554 S
H61    C93     1.088   .     S
N69    Zn79    2.012   .     S
N70    Zn80    2.012   .     S
O71    Zn79    1.985   .     S
O72    Zn80    1.985   .     S
O73    Zn80    1.990   .     S
O74    Zn79    1.990   .     S
O75    Zn79    1.970   .     S
O76    Zn80    1.970   .     S
O77    Zn80    1.981   .     S
O78    Zn79    1.981   .     S
C81    H82     1.111   .     S
C81    H83     1.109   .     S
C81    H84     1.111   .     S
C85    H86     1.111   .     S
C85    H87     1.111   .     S
C85    H88     1.109   .     S
C89    O117    1.280   .     A
C89    C100    1.410   .     S
C89    O115    1.282   .     A
C90    O118    1.280   .     A
C90    C99     1.410   .     S
C90    O116    1.282   .     A
C91    O119    1.279   .     A
C91    O121    1.281   .     A
C91    C93     1.403   .     S
C92    O122    1.281   .     A
C92    O120    1.279   .     A
C92    C94     1.403   .     S
C94    C5      1.330   1_655 S
C94    H18     1.088   1_655 S
C95    C125    1.510   .     S
C95    C100    1.405   .     A
C95    C361    1.378   1_545 S
C96    C99     1.405   .     A
C96    C129    1.510   .     S
C96    C230    1.378   .     S
C97    C99     1.394   .     A
C97    H107    1.085   .     S
C97    C227    1.378   .     S
C98    C100    1.394   .     A
C98    H108    1.085   .     S
C98    C360    1.378   1_545 S
C101   H109    1.082   .     S
C101   N114    1.367   .     A
C101   C895    1.417   1_554 S
C102   H110    1.082   .     S
C102   N113    1.367   .     A
C102   C500    1.417   .     S
C103   H111    1.081   .     S
C103   N113    1.367   .     A
C103   C497    1.417   .     S
C104   N114    1.367   .     A
C104   H112    1.081   .     S
C104   C894    1.417   1_554 S
H105   C5      1.088   1_655 S
N113   Zn123   2.012   .     S
N114   Zn124   2.012   .     S
O115   Zn123   1.985   .     S
O116   Zn124   1.985   .     S
O117   Zn124   1.990   .     S
O118   Zn123   1.990   .     S
O119   Zn123   1.970   .     S
O120   Zn124   1.970   .     S
O121   Zn124   1.981   .     S
O122   Zn123   1.981   .     S
C125   H126    1.111   .     S
C125   H127    1.109   .     S
C125   H128    1.111   .     S
C129   H130    1.111   .     S
C129   H131    1.111   .     S
C129   H132    1.109   .     S
C133   O161    1.280   .     A
C133   C144    1.410   .     S
C133   O159    1.282   .     A
C134   O162    1.280   .     A
C134   C143    1.410   .     S
C134   O160    1.282   .     A
C135   O163    1.279   .     A
C135   O165    1.281   .     A
C135   C137    1.403   .     S
C136   O166    1.281   .     A
C136   O164    1.279   .     A
C136   C138    1.403   .     S
C137   C226    1.330   1_455 S
C137   H237    1.088   1_455 S
C138   C181    1.330   .     S
C138   H194    1.088   .     S
C139   C169    1.510   .     S
C139   C144    1.405   .     A
C140   C143    1.405   .     A
C140   C173    1.510   .     S
C140   C274    1.378   .     S
C141   C143    1.394   .     A
C141   H151    1.085   .     S
C141   C271    1.378   .     S
C142   C144    1.394   .     A
C142   H152    1.085   .     S
C145   H153    1.082   .     S
C145   N158    1.367   .     A
C145   C939    1.417   1_554 S
C146   H154    1.082   .     S
C146   N157    1.367   .     A
C146   C544    1.417   .     S
C147   H155    1.081   .     S
C147   N157    1.367   .     A
C147   C541    1.417   .     S
C148   N158    1.367   .     A
C148   H156    1.081   .     S
C148   C938    1.417   1_554 S
H149   C181    1.088   .     S
H150   C226    1.088   1_455 S
N157   Zn167   2.012   .     S
N158   Zn168   2.012   .     S
O159   Zn167   1.985   .     S
O160   Zn168   1.985   .     S
O161   Zn168   1.990   .     S
O162   Zn167   1.990   .     S
O163   Zn167   1.970   .     S
O164   Zn168   1.970   .     S
O165   Zn168   1.981   .     S
O166   Zn167   1.981   .     S
C169   H170    1.111   .     S
C169   H171    1.109   .     S
C169   H172    1.111   .     S
C173   H174    1.111   .     S
C173   H175    1.111   .     S
C173   H176    1.109   .     S
C177   O205    1.280   .     A
C177   C188    1.410   .     S
C177   O203    1.282   .     A
C178   O206    1.280   .     A
C178   C187    1.410   .     S
C178   O204    1.282   .     A
C179   O207    1.279   .     A
C179   O209    1.281   .     A
C179   C181    1.403   .     S
C180   O210    1.281   .     A
C180   O208    1.279   .     A
C180   C182    1.403   .     S
C182   C225    1.330   .     S
C182   H238    1.088   .     S
C183   C213    1.510   .     S
C183   C188    1.405   .     A
C184   C187    1.405   .     A
C184   C217    1.510   .     S
C184   C318    1.378   .     S
C185   C187    1.394   .     A
C185   H195    1.085   .     S
C185   C315    1.378   .     S
C186   C188    1.394   .     A
C186   H196    1.085   .     S
C189   H197    1.082   .     S
C189   N202    1.367   .     A
C189   C983    1.417   1_554 S
C190   H198    1.082   .     S
C190   N201    1.367   .     A
C190   C588    1.417   .     S
C191   H199    1.081   .     S
C191   N201    1.367   .     A
C191   C585    1.417   .     S
C192   N202    1.367   .     A
C192   H200    1.081   .     S
C192   C982    1.417   1_554 S
H193   C225    1.088   .     S
N201   Zn211   2.012   .     S
N202   Zn212   2.012   .     S
O203   Zn211   1.985   .     S
O204   Zn212   1.985   .     S
O205   Zn212   1.990   .     S
O206   Zn211   1.990   .     S
O207   Zn211   1.970   .     S
O208   Zn212   1.970   .     S
O209   Zn212   1.981   .     S
O210   Zn211   1.981   .     S
C213   H214    1.111   .     S
C213   H215    1.109   .     S
C213   H216    1.111   .     S
C217   H218    1.111   .     S
C217   H219    1.111   .     S
C217   H220    1.109   .     S
C221   O249    1.280   .     A
C221   C232    1.410   .     S
C221   O247    1.282   .     A
C222   O250    1.280   .     A
C222   C231    1.410   .     S
C222   O248    1.282   .     A
C223   O251    1.279   .     A
C223   O253    1.281   .     A
C223   C225    1.403   .     S
C224   O254    1.281   .     A
C224   O252    1.279   .     A
C224   C226    1.403   .     S
C226   C137    1.330   1_655 S
C226   H150    1.088   1_655 S
C227   C257    1.510   .     S
C227   C232    1.405   .     A
C228   C231    1.405   .     A
C228   C261    1.510   .     S
C228   C362    1.378   .     S
C229   C231    1.394   .     A
C229   H239    1.085   .     S
C229   C359    1.378   .     S
C230   C232    1.394   .     A
C230   H240    1.085   .     S
C233   H241    1.082   .     S
C233   N246    1.367   .     A
C233   C1027   1.417   1_554 S
C234   H242    1.082   .     S
C234   N245    1.367   .     A
C234   C632    1.417   .     S
C235   H243    1.081   .     S
C235   N245    1.367   .     A
C235   C629    1.417   .     S
C236   N246    1.367   .     A
C236   H244    1.081   .     S
C236   C1026   1.417   1_554 S
H237   C137    1.088   1_655 S
N245   Zn255   2.012   .     S
N246   Zn256   2.012   .     S
O247   Zn255   1.985   .     S
O248   Zn256   1.985   .     S
O249   Zn256   1.990   .     S
O250   Zn255   1.990   .     S
O251   Zn255   1.970   .     S
O252   Zn256   1.970   .     S
O253   Zn256   1.981   .     S
O254   Zn255   1.981   .     S
C257   H258    1.111   .     S
C257   H259    1.109   .     S
C257   H260    1.111   .     S
C261   H262    1.111   .     S
C261   H263    1.111   .     S
C261   H264    1.109   .     S
C265   O293    1.280   .     A
C265   C276    1.410   .     S
C265   O291    1.282   .     A
C266   O294    1.280   .     A
C266   C275    1.410   .     S
C266   O292    1.282   .     A
C267   O295    1.279   .     A
C267   O297    1.281   .     A
C267   C269    1.403   .     S
C268   O298    1.281   .     A
C268   O296    1.279   .     A
C268   C270    1.403   .     S
C269   C358    1.330   1_455 S
C269   H369    1.088   1_455 S
C270   C313    1.330   .     S
C270   H326    1.088   .     S
C271   C301    1.510   .     S
C271   C276    1.405   .     A
C272   C275    1.405   .     A
C272   C305    1.510   .     S
C272   C10     1.378   1_565 S
C273   C275    1.394   .     A
C273   H283    1.085   .     S
C273   C7      1.378   1_565 S
C274   C276    1.394   .     A
C274   H284    1.085   .     S
C277   H285    1.082   .     S
C277   N290    1.367   .     A
C277   C1071   1.417   1_554 S
C278   H286    1.082   .     S
C278   N289    1.367   .     A
C278   C676    1.417   .     S
C279   H287    1.081   .     S
C279   N289    1.367   .     A
C279   C673    1.417   .     S
C280   N290    1.367   .     A
C280   H288    1.081   .     S
C280   C1070   1.417   1_554 S
H281   C313    1.088   .     S
H282   C358    1.088   1_455 S
N289   Zn299   2.012   .     S
N290   Zn300   2.012   .     S
O291   Zn299   1.985   .     S
O292   Zn300   1.985   .     S
O293   Zn300   1.990   .     S
O294   Zn299   1.990   .     S
O295   Zn299   1.970   .     S
O296   Zn300   1.970   .     S
O297   Zn300   1.981   .     S
O298   Zn299   1.981   .     S
C301   H302    1.111   .     S
C301   H303    1.109   .     S
C301   H304    1.111   .     S
C305   H306    1.111   .     S
C305   H307    1.111   .     S
C305   H308    1.109   .     S
C309   O337    1.280   .     A
C309   C320    1.410   .     S
C309   O335    1.282   .     A
C310   O338    1.280   .     A
C310   C319    1.410   .     S
C310   O336    1.282   .     A
C311   O339    1.279   .     A
C311   O341    1.281   .     A
C311   C313    1.403   .     S
C312   O342    1.281   .     A
C312   O340    1.279   .     A
C312   C314    1.403   .     S
C314   C357    1.330   .     S
C314   H370    1.088   .     S
C315   C345    1.510   .     S
C315   C320    1.405   .     A
C316   C319    1.405   .     A
C316   C349    1.510   .     S
C316   C54     1.378   1_565 S
C317   C319    1.394   .     A
C317   H327    1.085   .     S
C317   C51     1.378   1_565 S
C318   C320    1.394   .     A
C318   H328    1.085   .     S
C321   H329    1.082   .     S
C321   N334    1.367   .     A
C321   C1115   1.417   1_554 S
C322   H330    1.082   .     S
C322   N333    1.367   .     A
C322   C720    1.417   .     S
C323   H331    1.081   .     S
C323   N333    1.367   .     A
C323   C717    1.417   .     S
C324   N334    1.367   .     A
C324   H332    1.081   .     S
C324   C1114   1.417   1_554 S
H325   C357    1.088   .     S
N333   Zn343   2.012   .     S
N334   Zn344   2.012   .     S
O335   Zn343   1.985   .     S
O336   Zn344   1.985   .     S
O337   Zn344   1.990   .     S
O338   Zn343   1.990   .     S
O339   Zn343   1.970   .     S
O340   Zn344   1.970   .     S
O341   Zn344   1.981   .     S
O342   Zn343   1.981   .     S
C345   H346    1.111   .     S
C345   H347    1.109   .     S
C345   H348    1.111   .     S
C349   H350    1.111   .     S
C349   H351    1.111   .     S
C349   H352    1.109   .     S
C353   O381    1.280   .     A
C353   C364    1.410   .     S
C353   O379    1.282   .     A
C354   O382    1.280   .     A
C354   C363    1.410   .     S
C354   O380    1.282   .     A
C355   O383    1.279   .     A
C355   O385    1.281   .     A
C355   C357    1.403   .     S
C356   O386    1.281   .     A
C356   O384    1.279   .     A
C356   C358    1.403   .     S
C358   C269    1.330   1_655 S
C358   H282    1.088   1_655 S
C359   C389    1.510   .     S
C359   C364    1.405   .     A
C360   C363    1.405   .     A
C360   C393    1.510   .     S
C360   C98     1.378   1_565 S
C361   C363    1.394   .     A
C361   H371    1.085   .     S
C361   C95     1.378   1_565 S
C362   C364    1.394   .     A
C362   H372    1.085   .     S
C365   H373    1.082   .     S
C365   N378    1.367   .     A
C365   C1159   1.417   1_554 S
C366   H374    1.082   .     S
C366   N377    1.367   .     A
C366   C764    1.417   .     S
C367   H375    1.081   .     S
C367   N377    1.367   .     A
C367   C761    1.417   .     S
C368   N378    1.367   .     A
C368   H376    1.081   .     S
C368   C1158   1.417   1_554 S
H369   C269    1.088   1_655 S
N377   Zn387   2.012   .     S
N378   Zn388   2.012   .     S
O379   Zn387   1.985   .     S
O380   Zn388   1.985   .     S
O381   Zn388   1.990   .     S
O382   Zn387   1.990   .     S
O383   Zn387   1.970   .     S
O384   Zn388   1.970   .     S
O385   Zn388   1.981   .     S
O386   Zn387   1.981   .     S
C389   H390    1.111   .     S
C389   H391    1.109   .     S
C389   H392    1.111   .     S
C393   H394    1.111   .     S
C393   H395    1.111   .     S
C393   H396    1.109   .     S
C397   O425    1.280   .     A
C397   C408    1.410   .     S
C397   O423    1.282   .     A
C398   O426    1.280   .     A
C398   C407    1.410   .     S
C398   O424    1.282   .     A
C399   O427    1.279   .     A
C399   O429    1.281   .     A
C399   C401    1.403   .     S
C400   O430    1.281   .     A
C400   O428    1.279   .     A
C400   C402    1.403   .     S
C401   C490    1.330   1_455 S
C401   H501    1.088   1_455 S
C402   C445    1.330   .     S
C402   H458    1.088   .     S
C403   C433    1.510   .     S
C403   C408    1.405   .     A
C403   C669    1.378   1_545 S
C404   C407    1.405   .     A
C404   C437    1.510   .     S
C404   C538    1.378   .     S
C405   C407    1.394   .     A
C405   H415    1.085   .     S
C405   C535    1.378   .     S
C406   C408    1.394   .     A
C406   H416    1.085   .     S
C406   C668    1.378   1_545 S
C409   H417    1.082   .     S
C409   N422    1.367   .     A
C410   H418    1.082   .     S
C410   N421    1.367   .     A
C410   C808    1.417   .     S
C411   H419    1.081   .     S
C411   N421    1.367   .     A
C411   C805    1.417   .     S
C412   N422    1.367   .     A
C412   H420    1.081   .     S
H413   C445    1.088   .     S
H414   C490    1.088   1_455 S
N421   Zn431   2.012   .     S
N422   Zn432   2.012   .     S
O423   Zn431   1.985   .     S
O424   Zn432   1.985   .     S
O425   Zn432   1.990   .     S
O426   Zn431   1.990   .     S
O427   Zn431   1.970   .     S
O428   Zn432   1.970   .     S
O429   Zn432   1.981   .     S
O430   Zn431   1.981   .     S
C433   H434    1.111   .     S
C433   H435    1.109   .     S
C433   H436    1.111   .     S
C437   H438    1.111   .     S
C437   H439    1.111   .     S
C437   H440    1.109   .     S
C441   O469    1.280   .     A
C441   C452    1.410   .     S
C441   O467    1.282   .     A
C442   O470    1.280   .     A
C442   C451    1.410   .     S
C442   O468    1.282   .     A
C443   O471    1.279   .     A
C443   O473    1.281   .     A
C443   C445    1.403   .     S
C444   O474    1.281   .     A
C444   O472    1.279   .     A
C444   C446    1.403   .     S
C446   C489    1.330   .     S
C446   H502    1.088   .     S
C447   C477    1.510   .     S
C447   C452    1.405   .     A
C447   C713    1.378   1_545 S
C448   C451    1.405   .     A
C448   C481    1.510   .     S
C448   C582    1.378   .     S
C449   C451    1.394   .     A
C449   H459    1.085   .     S
C449   C579    1.378   .     S
C450   C452    1.394   .     A
C450   H460    1.085   .     S
C450   C712    1.378   1_545 S
C453   H461    1.082   .     S
C453   N466    1.367   .     A
C454   H462    1.082   .     S
C454   N465    1.367   .     A
C454   C852    1.417   .     S
C455   H463    1.081   .     S
C455   N465    1.367   .     A
C455   C849    1.417   .     S
C456   N466    1.367   .     A
C456   H464    1.081   .     S
H457   C489    1.088   .     S
N465   Zn475   2.012   .     S
N466   Zn476   2.012   .     S
O467   Zn475   1.985   .     S
O468   Zn476   1.985   .     S
O469   Zn476   1.990   .     S
O470   Zn475   1.990   .     S
O471   Zn475   1.970   .     S
O472   Zn476   1.970   .     S
O473   Zn476   1.981   .     S
O474   Zn475   1.981   .     S
C477   H478    1.111   .     S
C477   H479    1.109   .     S
C477   H480    1.111   .     S
C481   H482    1.111   .     S
C481   H483    1.111   .     S
C481   H484    1.109   .     S
C485   O513    1.280   .     A
C485   C496    1.410   .     S
C485   O511    1.282   .     A
C486   O514    1.280   .     A
C486   C495    1.410   .     S
C486   O512    1.282   .     A
C487   O515    1.279   .     A
C487   O517    1.281   .     A
C487   C489    1.403   .     S
C488   O518    1.281   .     A
C488   O516    1.279   .     A
C488   C490    1.403   .     S
C490   C401    1.330   1_655 S
C490   H414    1.088   1_655 S
C491   C521    1.510   .     S
C491   C496    1.405   .     A
C491   C757    1.378   1_545 S
C492   C495    1.405   .     A
C492   C525    1.510   .     S
C492   C626    1.378   .     S
C493   C495    1.394   .     A
C493   H503    1.085   .     S
C493   C623    1.378   .     S
C494   C496    1.394   .     A
C494   H504    1.085   .     S
C494   C756    1.378   1_545 S
C497   H505    1.082   .     S
C497   N510    1.367   .     A
C498   H506    1.082   .     S
C498   N509    1.367   .     A
C498   C896    1.417   .     S
C499   H507    1.081   .     S
C499   N509    1.367   .     A
C499   C893    1.417   .     S
C500   N510    1.367   .     A
C500   H508    1.081   .     S
H501   C401    1.088   1_655 S
N509   Zn519   2.012   .     S
N510   Zn520   2.012   .     S
O511   Zn519   1.985   .     S
O512   Zn520   1.985   .     S
O513   Zn520   1.990   .     S
O514   Zn519   1.990   .     S
O515   Zn519   1.970   .     S
O516   Zn520   1.970   .     S
O517   Zn520   1.981   .     S
O518   Zn519   1.981   .     S
C521   H522    1.111   .     S
C521   H523    1.109   .     S
C521   H524    1.111   .     S
C525   H526    1.111   .     S
C525   H527    1.111   .     S
C525   H528    1.109   .     S
C529   O557    1.280   .     A
C529   C540    1.410   .     S
C529   O555    1.282   .     A
C530   O558    1.280   .     A
C530   C539    1.410   .     S
C530   O556    1.282   .     A
C531   O559    1.279   .     A
C531   O561    1.281   .     A
C531   C533    1.403   .     S
C532   O562    1.281   .     A
C532   O560    1.279   .     A
C532   C534    1.403   .     S
C533   C622    1.330   1_455 S
C533   H633    1.088   1_455 S
C534   C577    1.330   .     S
C534   H590    1.088   .     S
C535   C565    1.510   .     S
C535   C540    1.405   .     A
C536   C539    1.405   .     A
C536   C569    1.510   .     S
C536   C670    1.378   .     S
C537   C539    1.394   .     A
C537   H547    1.085   .     S
C537   C667    1.378   .     S
C538   C540    1.394   .     A
C538   H548    1.085   .     S
C541   H549    1.082   .     S
C541   N554    1.367   .     A
C542   H550    1.082   .     S
C542   N553    1.367   .     A
C542   C940    1.417   .     S
C543   H551    1.081   .     S
C543   N553    1.367   .     A
C543   C937    1.417   .     S
C544   N554    1.367   .     A
C544   H552    1.081   .     S
H545   C577    1.088   .     S
H546   C622    1.088   1_455 S
N553   Zn563   2.012   .     S
N554   Zn564   2.012   .     S
O555   Zn563   1.985   .     S
O556   Zn564   1.985   .     S
O557   Zn564   1.990   .     S
O558   Zn563   1.990   .     S
O559   Zn563   1.970   .     S
O560   Zn564   1.970   .     S
O561   Zn564   1.981   .     S
O562   Zn563   1.981   .     S
C565   H566    1.111   .     S
C565   H567    1.109   .     S
C565   H568    1.111   .     S
C569   H570    1.111   .     S
C569   H571    1.111   .     S
C569   H572    1.109   .     S
C573   O601    1.280   .     A
C573   C584    1.410   .     S
C573   O599    1.282   .     A
C574   O602    1.280   .     A
C574   C583    1.410   .     S
C574   O600    1.282   .     A
C575   O603    1.279   .     A
C575   O605    1.281   .     A
C575   C577    1.403   .     S
C576   O606    1.281   .     A
C576   O604    1.279   .     A
C576   C578    1.403   .     S
C578   C621    1.330   .     S
C578   H634    1.088   .     S
C579   C609    1.510   .     S
C579   C584    1.405   .     A
C580   C583    1.405   .     A
C580   C613    1.510   .     S
C580   C714    1.378   .     S
C581   C583    1.394   .     A
C581   H591    1.085   .     S
C581   C711    1.378   .     S
C582   C584    1.394   .     A
C582   H592    1.085   .     S
C585   H593    1.082   .     S
C585   N598    1.367   .     A
C586   H594    1.082   .     S
C586   N597    1.367   .     A
C586   C984    1.417   .     S
C587   H595    1.081   .     S
C587   N597    1.367   .     A
C587   C981    1.417   .     S
C588   N598    1.367   .     A
C588   H596    1.081   .     S
H589   C621    1.088   .     S
N597   Zn607   2.012   .     S
N598   Zn608   2.012   .     S
O599   Zn607   1.985   .     S
O600   Zn608   1.985   .     S
O601   Zn608   1.990   .     S
O602   Zn607   1.990   .     S
O603   Zn607   1.970   .     S
O604   Zn608   1.970   .     S
O605   Zn608   1.981   .     S
O606   Zn607   1.981   .     S
C609   H610    1.111   .     S
C609   H611    1.109   .     S
C609   H612    1.111   .     S
C613   H614    1.111   .     S
C613   H615    1.111   .     S
C613   H616    1.109   .     S
C617   O645    1.280   .     A
C617   C628    1.410   .     S
C617   O643    1.282   .     A
C618   O646    1.280   .     A
C618   C627    1.410   .     S
C618   O644    1.282   .     A
C619   O647    1.279   .     A
C619   O649    1.281   .     A
C619   C621    1.403   .     S
C620   O650    1.281   .     A
C620   O648    1.279   .     A
C620   C622    1.403   .     S
C622   C533    1.330   1_655 S
C622   H546    1.088   1_655 S
C623   C653    1.510   .     S
C623   C628    1.405   .     A
C624   C627    1.405   .     A
C624   C657    1.510   .     S
C624   C758    1.378   .     S
C625   C627    1.394   .     A
C625   H635    1.085   .     S
C625   C755    1.378   .     S
C626   C628    1.394   .     A
C626   H636    1.085   .     S
C629   H637    1.082   .     S
C629   N642    1.367   .     A
C630   H638    1.082   .     S
C630   N641    1.367   .     A
C630   C1028   1.417   .     S
C631   H639    1.081   .     S
C631   N641    1.367   .     A
C631   C1025   1.417   .     S
C632   N642    1.367   .     A
C632   H640    1.081   .     S
H633   C533    1.088   1_655 S
N641   Zn651   2.012   .     S
N642   Zn652   2.012   .     S
O643   Zn651   1.985   .     S
O644   Zn652   1.985   .     S
O645   Zn652   1.990   .     S
O646   Zn651   1.990   .     S
O647   Zn651   1.970   .     S
O648   Zn652   1.970   .     S
O649   Zn652   1.981   .     S
O650   Zn651   1.981   .     S
C653   H654    1.111   .     S
C653   H655    1.109   .     S
C653   H656    1.111   .     S
C657   H658    1.111   .     S
C657   H659    1.111   .     S
C657   H660    1.109   .     S
C661   O689    1.280   .     A
C661   C672    1.410   .     S
C661   O687    1.282   .     A
C662   O690    1.280   .     A
C662   C671    1.410   .     S
C662   O688    1.282   .     A
C663   O691    1.279   .     A
C663   O693    1.281   .     A
C663   C665    1.403   .     S
C664   O694    1.281   .     A
C664   O692    1.279   .     A
C664   C666    1.403   .     S
C665   C754    1.330   1_455 S
C665   H765    1.088   1_455 S
C666   C709    1.330   .     S
C666   H722    1.088   .     S
C667   C697    1.510   .     S
C667   C672    1.405   .     A
C668   C671    1.405   .     A
C668   C701    1.510   .     S
C668   C406    1.378   1_565 S
C669   C671    1.394   .     A
C669   H679    1.085   .     S
C669   C403    1.378   1_565 S
C670   C672    1.394   .     A
C670   H680    1.085   .     S
C673   H681    1.082   .     S
C673   N686    1.367   .     A
C674   H682    1.082   .     S
C674   N685    1.367   .     A
C674   C1072   1.417   .     S
C675   H683    1.081   .     S
C675   N685    1.367   .     A
C675   C1069   1.417   .     S
C676   N686    1.367   .     A
C676   H684    1.081   .     S
H677   C709    1.088   .     S
H678   C754    1.088   1_455 S
N685   Zn695   2.012   .     S
N686   Zn696   2.012   .     S
O687   Zn695   1.985   .     S
O688   Zn696   1.985   .     S
O689   Zn696   1.990   .     S
O690   Zn695   1.990   .     S
O691   Zn695   1.970   .     S
O692   Zn696   1.970   .     S
O693   Zn696   1.981   .     S
O694   Zn695   1.981   .     S
C697   H698    1.111   .     S
C697   H699    1.109   .     S
C697   H700    1.111   .     S
C701   H702    1.111   .     S
C701   H703    1.111   .     S
C701   H704    1.109   .     S
C705   O733    1.280   .     A
C705   C716    1.410   .     S
C705   O731    1.282   .     A
C706   O734    1.280   .     A
C706   C715    1.410   .     S
C706   O732    1.282   .     A
C707   O735    1.279   .     A
C707   O737    1.281   .     A
C707   C709    1.403   .     S
C708   O738    1.281   .     A
C708   O736    1.279   .     A
C708   C710    1.403   .     S
C710   C753    1.330   .     S
C710   H766    1.088   .     S
C711   C741    1.510   .     S
C711   C716    1.405   .     A
C712   C715    1.405   .     A
C712   C745    1.510   .     S
C712   C450    1.378   1_565 S
C713   C715    1.394   .     A
C713   H723    1.085   .     S
C713   C447    1.378   1_565 S
C714   C716    1.394   .     A
C714   H724    1.085   .     S
C717   H725    1.082   .     S
C717   N730    1.367   .     A
C718   H726    1.082   .     S
C718   N729    1.367   .     A
C718   C1116   1.417   .     S
C719   H727    1.081   .     S
C719   N729    1.367   .     A
C719   C1113   1.417   .     S
C720   N730    1.367   .     A
C720   H728    1.081   .     S
H721   C753    1.088   .     S
N729   Zn739   2.012   .     S
N730   Zn740   2.012   .     S
O731   Zn739   1.985   .     S
O732   Zn740   1.985   .     S
O733   Zn740   1.990   .     S
O734   Zn739   1.990   .     S
O735   Zn739   1.970   .     S
O736   Zn740   1.970   .     S
O737   Zn740   1.981   .     S
O738   Zn739   1.981   .     S
C741   H742    1.111   .     S
C741   H743    1.109   .     S
C741   H744    1.111   .     S
C745   H746    1.111   .     S
C745   H747    1.111   .     S
C745   H748    1.109   .     S
C749   O777    1.280   .     A
C749   C760    1.410   .     S
C749   O775    1.282   .     A
C750   O778    1.280   .     A
C750   C759    1.410   .     S
C750   O776    1.282   .     A
C751   O779    1.279   .     A
C751   O781    1.281   .     A
C751   C753    1.403   .     S
C752   O782    1.281   .     A
C752   O780    1.279   .     A
C752   C754    1.403   .     S
C754   C665    1.330   1_655 S
C754   H678    1.088   1_655 S
C755   C785    1.510   .     S
C755   C760    1.405   .     A
C756   C759    1.405   .     A
C756   C789    1.510   .     S
C756   C494    1.378   1_565 S
C757   C759    1.394   .     A
C757   H767    1.085   .     S
C757   C491    1.378   1_565 S
C758   C760    1.394   .     A
C758   H768    1.085   .     S
C761   H769    1.082   .     S
C761   N774    1.367   .     A
C762   H770    1.082   .     S
C762   N773    1.367   .     A
C762   C1160   1.417   .     S
C763   H771    1.081   .     S
C763   N773    1.367   .     A
C763   C1157   1.417   .     S
C764   N774    1.367   .     A
C764   H772    1.081   .     S
H765   C665    1.088   1_655 S
N773   Zn783   2.012   .     S
N774   Zn784   2.012   .     S
O775   Zn783   1.985   .     S
O776   Zn784   1.985   .     S
O777   Zn784   1.990   .     S
O778   Zn783   1.990   .     S
O779   Zn783   1.970   .     S
O780   Zn784   1.970   .     S
O781   Zn784   1.981   .     S
O782   Zn783   1.981   .     S
C785   H786    1.111   .     S
C785   H787    1.109   .     S
C785   H788    1.111   .     S
C789   H790    1.111   .     S
C789   H791    1.111   .     S
C789   H792    1.109   .     S
C793   O821    1.280   .     A
C793   C804    1.410   .     S
C793   O819    1.282   .     A
C794   O822    1.280   .     A
C794   C803    1.410   .     S
C794   O820    1.282   .     A
C795   O823    1.279   .     A
C795   O825    1.281   .     A
C795   C797    1.403   .     S
C796   O826    1.281   .     A
C796   O824    1.279   .     A
C796   C798    1.403   .     S
C797   C886    1.330   1_455 S
C797   H897    1.088   1_455 S
C798   C841    1.330   .     S
C798   H854    1.088   .     S
C799   C829    1.510   .     S
C799   C804    1.405   .     A
C799   C1065   1.378   1_545 S
C800   C803    1.405   .     A
C800   C833    1.510   .     S
C800   C934    1.378   .     S
C801   C803    1.394   .     A
C801   H811    1.085   .     S
C801   C931    1.378   .     S
C802   C804    1.394   .     A
C802   H812    1.085   .     S
C802   C1064   1.378   1_545 S
C805   H813    1.082   .     S
C805   N818    1.367   .     A
C806   H814    1.082   .     S
C806   N817    1.367   .     A
C806   C16     1.417   1_556 S
C807   H815    1.081   .     S
C807   N817    1.367   .     A
C807   C13     1.417   1_556 S
C808   N818    1.367   .     A
C808   H816    1.081   .     S
H809   C841    1.088   .     S
H810   C886    1.088   1_455 S
N817   Zn827   2.012   .     S
N818   Zn828   2.012   .     S
O819   Zn827   1.985   .     S
O820   Zn828   1.985   .     S
O821   Zn828   1.990   .     S
O822   Zn827   1.990   .     S
O823   Zn827   1.970   .     S
O824   Zn828   1.970   .     S
O825   Zn828   1.981   .     S
O826   Zn827   1.981   .     S
C829   H830    1.111   .     S
C829   H831    1.109   .     S
C829   H832    1.111   .     S
C833   H834    1.111   .     S
C833   H835    1.111   .     S
C833   H836    1.109   .     S
C837   O865    1.280   .     A
C837   C848    1.410   .     S
C837   O863    1.282   .     A
C838   O866    1.280   .     A
C838   C847    1.410   .     S
C838   O864    1.282   .     A
C839   O867    1.279   .     A
C839   O869    1.281   .     A
C839   C841    1.403   .     S
C840   O870    1.281   .     A
C840   O868    1.279   .     A
C840   C842    1.403   .     S
C842   C885    1.330   .     S
C842   H898    1.088   .     S
C843   C873    1.510   .     S
C843   C848    1.405   .     A
C843   C1109   1.378   1_545 S
C844   C847    1.405   .     A
C844   C877    1.510   .     S
C844   C978    1.378   .     S
C845   C847    1.394   .     A
C845   H855    1.085   .     S
C845   C975    1.378   .     S
C846   C848    1.394   .     A
C846   H856    1.085   .     S
C846   C1108   1.378   1_545 S
C849   H857    1.082   .     S
C849   N862    1.367   .     A
C850   H858    1.082   .     S
C850   N861    1.367   .     A
C850   C60     1.417   1_556 S
C851   H859    1.081   .     S
C851   N861    1.367   .     A
C851   C57     1.417   1_556 S
C852   N862    1.367   .     A
C852   H860    1.081   .     S
H853   C885    1.088   .     S
N861   Zn871   2.012   .     S
N862   Zn872   2.012   .     S
O863   Zn871   1.985   .     S
O864   Zn872   1.985   .     S
O865   Zn872   1.990   .     S
O866   Zn871   1.990   .     S
O867   Zn871   1.970   .     S
O868   Zn872   1.970   .     S
O869   Zn872   1.981   .     S
O870   Zn871   1.981   .     S
C873   H874    1.111   .     S
C873   H875    1.109   .     S
C873   H876    1.111   .     S
C877   H878    1.111   .     S
C877   H879    1.111   .     S
C877   H880    1.109   .     S
C881   O909    1.280   .     A
C881   C892    1.410   .     S
C881   O907    1.282   .     A
C882   O910    1.280   .     A
C882   C891    1.410   .     S
C882   O908    1.282   .     A
C883   O911    1.279   .     A
C883   O913    1.281   .     A
C883   C885    1.403   .     S
C884   O914    1.281   .     A
C884   O912    1.279   .     A
C884   C886    1.403   .     S
C886   C797    1.330   1_655 S
C886   H810    1.088   1_655 S
C887   C917    1.510   .     S
C887   C892    1.405   .     A
C887   C1153   1.378   1_545 S
C888   C891    1.405   .     A
C888   C921    1.510   .     S
C888   C1022   1.378   .     S
C889   C891    1.394   .     A
C889   H899    1.085   .     S
C889   C1019   1.378   .     S
C890   C892    1.394   .     A
C890   H900    1.085   .     S
C890   C1152   1.378   1_545 S
C893   H901    1.082   .     S
C893   N906    1.367   .     A
C894   H902    1.082   .     S
C894   N905    1.367   .     A
C894   C104    1.417   1_556 S
C895   H903    1.081   .     S
C895   N905    1.367   .     A
C895   C101    1.417   1_556 S
C896   N906    1.367   .     A
C896   H904    1.081   .     S
H897   C797    1.088   1_655 S
N905   Zn915   2.012   .     S
N906   Zn916   2.012   .     S
O907   Zn915   1.985   .     S
O908   Zn916   1.985   .     S
O909   Zn916   1.990   .     S
O910   Zn915   1.990   .     S
O911   Zn915   1.970   .     S
O912   Zn916   1.970   .     S
O913   Zn916   1.981   .     S
O914   Zn915   1.981   .     S
C917   H918    1.111   .     S
C917   H919    1.109   .     S
C917   H920    1.111   .     S
C921   H922    1.111   .     S
C921   H923    1.111   .     S
C921   H924    1.109   .     S
C925   O953    1.280   .     A
C925   C936    1.410   .     S
C925   O951    1.282   .     A
C926   O954    1.280   .     A
C926   C935    1.410   .     S
C926   O952    1.282   .     A
C927   O955    1.279   .     A
C927   O957    1.281   .     A
C927   C929    1.403   .     S
C928   O958    1.281   .     A
C928   O956    1.279   .     A
C928   C930    1.403   .     S
C929   C1018   1.330   1_455 S
C929   H1029   1.088   1_455 S
C930   C973    1.330   .     S
C930   H986    1.088   .     S
C931   C961    1.510   .     S
C931   C936    1.405   .     A
C932   C935    1.405   .     A
C932   C965    1.510   .     S
C932   C1066   1.378   .     S
C933   C935    1.394   .     A
C933   H943    1.085   .     S
C933   C1063   1.378   .     S
C934   C936    1.394   .     A
C934   H944    1.085   .     S
C937   H945    1.082   .     S
C937   N950    1.367   .     A
C938   H946    1.082   .     S
C938   N949    1.367   .     A
C938   C148    1.417   1_556 S
C939   H947    1.081   .     S
C939   N949    1.367   .     A
C939   C145    1.417   1_556 S
C940   N950    1.367   .     A
C940   H948    1.081   .     S
H941   C973    1.088   .     S
H942   C1018   1.088   1_455 S
N949   Zn959   2.012   .     S
N950   Zn960   2.012   .     S
O951   Zn959   1.985   .     S
O952   Zn960   1.985   .     S
O953   Zn960   1.990   .     S
O954   Zn959   1.990   .     S
O955   Zn959   1.970   .     S
O956   Zn960   1.970   .     S
O957   Zn960   1.981   .     S
O958   Zn959   1.981   .     S
C961   H962    1.111   .     S
C961   H963    1.109   .     S
C961   H964    1.111   .     S
C965   H966    1.111   .     S
C965   H967    1.111   .     S
C965   H968    1.109   .     S
C969   O997    1.280   .     A
C969   C980    1.410   .     S
C969   O995    1.282   .     A
C970   O998    1.280   .     A
C970   C979    1.410   .     S
C970   O996    1.282   .     A
C971   O999    1.279   .     A
C971   O1001   1.281   .     A
C971   C973    1.403   .     S
C972   O1002   1.281   .     A
C972   O1000   1.279   .     A
C972   C974    1.403   .     S
C974   C1017   1.330   .     S
C974   H1030   1.088   .     S
C975   C1005   1.510   .     S
C975   C980    1.405   .     A
C976   C979    1.405   .     A
C976   C1009   1.510   .     S
C976   C1110   1.378   .     S
C977   C979    1.394   .     A
C977   H987    1.085   .     S
C977   C1107   1.378   .     S
C978   C980    1.394   .     A
C978   H988    1.085   .     S
C981   H989    1.082   .     S
C981   N994    1.367   .     A
C982   H990    1.082   .     S
C982   N993    1.367   .     A
C982   C192    1.417   1_556 S
C983   H991    1.081   .     S
C983   N993    1.367   .     A
C983   C189    1.417   1_556 S
C984   N994    1.367   .     A
C984   H992    1.081   .     S
H985   C1017   1.088   .     S
N993   Zn1003  2.012   .     S
N994   Zn1004  2.012   .     S
O995   Zn1003  1.985   .     S
O996   Zn1004  1.985   .     S
O997   Zn1004  1.990   .     S
O998   Zn1003  1.990   .     S
O999   Zn1003  1.970   .     S
O1000  Zn1004  1.970   .     S
O1001  Zn1004  1.981   .     S
O1002  Zn1003  1.981   .     S
C1005  H1006   1.111   .     S
C1005  H1007   1.109   .     S
C1005  H1008   1.111   .     S
C1009  H1010   1.111   .     S
C1009  H1011   1.111   .     S
C1009  H1012   1.109   .     S
C1013  O1041   1.280   .     A
C1013  C1024   1.410   .     S
C1013  O1039   1.282   .     A
C1014  O1042   1.280   .     A
C1014  C1023   1.410   .     S
C1014  O1040   1.282   .     A
C1015  O1043   1.279   .     A
C1015  O1045   1.281   .     A
C1015  C1017   1.403   .     S
C1016  O1046   1.281   .     A
C1016  O1044   1.279   .     A
C1016  C1018   1.403   .     S
C1018  C929    1.330   1_655 S
C1018  H942    1.088   1_655 S
C1019  C1049   1.510   .     S
C1019  C1024   1.405   .     A
C1020  C1023   1.405   .     A
C1020  C1053   1.510   .     S
C1020  C1154   1.378   .     S
C1021  C1023   1.394   .     A
C1021  H1031   1.085   .     S
C1021  C1151   1.378   .     S
C1022  C1024   1.394   .     A
C1022  H1032   1.085   .     S
C1025  H1033   1.082   .     S
C1025  N1038   1.367   .     A
C1026  H1034   1.082   .     S
C1026  N1037   1.367   .     A
C1026  C236    1.417   1_556 S
C1027  H1035   1.081   .     S
C1027  N1037   1.367   .     A
C1027  C233    1.417   1_556 S
C1028  N1038   1.367   .     A
C1028  H1036   1.081   .     S
H1029  C929    1.088   1_655 S
N1037  Zn1047  2.012   .     S
N1038  Zn1048  2.012   .     S
O1039  Zn1047  1.985   .     S
O1040  Zn1048  1.985   .     S
O1041  Zn1048  1.990   .     S
O1042  Zn1047  1.990   .     S
O1043  Zn1047  1.970   .     S
O1044  Zn1048  1.970   .     S
O1045  Zn1048  1.981   .     S
O1046  Zn1047  1.981   .     S
C1049  H1050   1.111   .     S
C1049  H1051   1.109   .     S
C1049  H1052   1.111   .     S
C1053  H1054   1.111   .     S
C1053  H1055   1.111   .     S
C1053  H1056   1.109   .     S
C1057  O1085   1.280   .     A
C1057  C1068   1.410   .     S
C1057  O1083   1.282   .     A
C1058  O1086   1.280   .     A
C1058  C1067   1.410   .     S
C1058  O1084   1.282   .     A
C1059  O1087   1.279   .     A
C1059  O1089   1.281   .     A
C1059  C1061   1.403   .     S
C1060  O1090   1.281   .     A
C1060  O1088   1.279   .     A
C1060  C1062   1.403   .     S
C1061  C1150   1.330   1_455 S
C1061  H1161   1.088   1_455 S
C1062  C1105   1.330   .     S
C1062  H1118   1.088   .     S
C1063  C1093   1.510   .     S
C1063  C1068   1.405   .     A
C1064  C1067   1.405   .     A
C1064  C1097   1.510   .     S
C1064  C802    1.378   1_565 S
C1065  C1067   1.394   .     A
C1065  H1075   1.085   .     S
C1065  C799    1.378   1_565 S
C1066  C1068   1.394   .     A
C1066  H1076   1.085   .     S
C1069  H1077   1.082   .     S
C1069  N1082   1.367   .     A
C1070  H1078   1.082   .     S
C1070  N1081   1.367   .     A
C1070  C280    1.417   1_556 S
C1071  H1079   1.081   .     S
C1071  N1081   1.367   .     A
C1071  C277    1.417   1_556 S
C1072  N1082   1.367   .     A
C1072  H1080   1.081   .     S
H1073  C1105   1.088   .     S
H1074  C1150   1.088   1_455 S
N1081  Zn1091  2.012   .     S
N1082  Zn1092  2.012   .     S
O1083  Zn1091  1.985   .     S
O1084  Zn1092  1.985   .     S
O1085  Zn1092  1.990   .     S
O1086  Zn1091  1.990   .     S
O1087  Zn1091  1.970   .     S
O1088  Zn1092  1.970   .     S
O1089  Zn1092  1.981   .     S
O1090  Zn1091  1.981   .     S
C1093  H1094   1.111   .     S
C1093  H1095   1.109   .     S
C1093  H1096   1.111   .     S
C1097  H1098   1.111   .     S
C1097  H1099   1.111   .     S
C1097  H1100   1.109   .     S
C1101  O1129   1.280   .     A
C1101  C1112   1.410   .     S
C1101  O1127   1.282   .     A
C1102  O1130   1.280   .     A
C1102  C1111   1.410   .     S
C1102  O1128   1.282   .     A
C1103  O1131   1.279   .     A
C1103  O1133   1.281   .     A
C1103  C1105   1.403   .     S
C1104  O1134   1.281   .     A
C1104  O1132   1.279   .     A
C1104  C1106   1.403   .     S
C1106  C1149   1.330   .     S
C1106  H1162   1.088   .     S
C1107  C1137   1.510   .     S
C1107  C1112   1.405   .     A
C1108  C1111   1.405   .     A
C1108  C1141   1.510   .     S
C1108  C846    1.378   1_565 S
C1109  C1111   1.394   .     A
C1109  H1119   1.085   .     S
C1109  C843    1.378   1_565 S
C1110  C1112   1.394   .     A
C1110  H1120   1.085   .     S
C1113  H1121   1.082   .     S
C1113  N1126   1.367   .     A
C1114  H1122   1.082   .     S
C1114  N1125   1.367   .     A
C1114  C324    1.417   1_556 S
C1115  H1123   1.081   .     S
C1115  N1125   1.367   .     A
C1115  C321    1.417   1_556 S
C1116  N1126   1.367   .     A
C1116  H1124   1.081   .     S
H1117  C1149   1.088   .     S
N1125  Zn1135  2.012   .     S
N1126  Zn1136  2.012   .     S
O1127  Zn1135  1.985   .     S
O1128  Zn1136  1.985   .     S
O1129  Zn1136  1.990   .     S
O1130  Zn1135  1.990   .     S
O1131  Zn1135  1.970   .     S
O1132  Zn1136  1.970   .     S
O1133  Zn1136  1.981   .     S
O1134  Zn1135  1.981   .     S
C1137  H1138   1.111   .     S
C1137  H1139   1.109   .     S
C1137  H1140   1.111   .     S
C1141  H1142   1.111   .     S
C1141  H1143   1.111   .     S
C1141  H1144   1.109   .     S
C1145  O1173   1.280   .     A
C1145  C1156   1.410   .     S
C1145  O1171   1.282   .     A
C1146  O1174   1.280   .     A
C1146  C1155   1.410   .     S
C1146  O1172   1.282   .     A
C1147  O1175   1.279   .     A
C1147  O1177   1.281   .     A
C1147  C1149   1.403   .     S
C1148  O1178   1.281   .     A
C1148  O1176   1.279   .     A
C1148  C1150   1.403   .     S
C1150  C1061   1.330   1_655 S
C1150  H1074   1.088   1_655 S
C1151  C1181   1.510   .     S
C1151  C1156   1.405   .     A
C1152  C1155   1.405   .     A
C1152  C1185   1.510   .     S
C1152  C890    1.378   1_565 S
C1153  C1155   1.394   .     A
C1153  H1163   1.085   .     S
C1153  C887    1.378   1_565 S
C1154  C1156   1.394   .     A
C1154  H1164   1.085   .     S
C1157  H1165   1.082   .     S
C1157  N1170   1.367   .     A
C1158  H1166   1.082   .     S
C1158  N1169   1.367   .     A
C1158  C368    1.417   1_556 S
C1159  H1167   1.081   .     S
C1159  N1169   1.367   .     A
C1159  C365    1.417   1_556 S
C1160  N1170   1.367   .     A
C1160  H1168   1.081   .     S
H1161  C1061   1.088   1_655 S
N1169  Zn1179  2.012   .     S
N1170  Zn1180  2.012   .     S
O1171  Zn1179  1.985   .     S
O1172  Zn1180  1.985   .     S
O1173  Zn1180  1.990   .     S
O1174  Zn1179  1.990   .     S
O1175  Zn1179  1.970   .     S
O1176  Zn1180  1.970   .     S
O1177  Zn1180  1.981   .     S
O1178  Zn1179  1.981   .     S
C1181  H1182   1.111   .     S
C1181  H1183   1.109   .     S
C1181  H1184   1.111   .     S
C1185  H1186   1.111   .     S
C1185  H1187   1.111   .     S
C1185  H1188   1.109   .     S
