data_str_m3_o1_o2_pcu_sym.117
_audit_creation_date              2020-01-03
_audit_creation_method            'Materials Studio'
_symmetry_space_group_name_H-M    'P1'
_symmetry_Int_Tables_number       1
_symmetry_cell_setting            triclinic
loop_
_symmetry_equiv_pos_as_xyz
  x,y,z
_cell_length_a                    32.6381
_cell_length_b                    29.8243
_cell_length_c                    30.0304
_cell_angle_alpha                 90.1154
_cell_angle_beta                  91.7836
_cell_angle_gamma                 90.1048
loop_
_atom_site_label
_atom_site_type_symbol
_atom_site_fract_x
_atom_site_fract_y
_atom_site_fract_z
_atom_site_U_iso_or_equiv
_atom_site_adp_type
_atom_site_occupancy
C1     C     0.08667   0.16669   0.24925   0.00000  Uiso   1.00
C2     C     0.24664   0.16676   0.25086   0.00000  Uiso   1.00
C3     C     0.16628   0.16668   0.16409   0.00000  Uiso   1.00
C4     C     0.16682   0.16675   0.33596   0.00000  Uiso   1.00
C5     C     0.18554   0.02378   0.28392   0.00000  Uiso   1.00
C6     C     0.14725   0.30950   0.21633   0.00000  Uiso   1.00
C7     C     0.14787   0.02360   0.21602   0.00000  Uiso   1.00
C8     C     0.18617   0.30970   0.28361   0.00000  Uiso   1.00
C9     C     0.02057   0.12634   0.24628   0.00000  Uiso   1.00
C10    C     0.31220   0.20801   0.24757   0.00000  Uiso   1.00
C11    C     0.31256   0.12663   0.25543   0.00000  Uiso   1.00
C12    C     0.02120   0.20801   0.25159   0.00000  Uiso   1.00
C13    C     0.19021   0.19547   0.04700   0.00000  Uiso   1.00
C14    C     0.18941   0.13671   0.45479   0.00000  Uiso   1.00
C15    C     0.13596   0.19537   0.45121   0.00000  Uiso   1.00
C16    C     0.13393   0.13978   0.04687   0.00000  Uiso   1.00
C17    C     0.19165   0.19486   0.09356   0.00000  Uiso   1.00
C18    C     0.19175   0.13816   0.40840   0.00000  Uiso   1.00
C19    C     0.13825   0.19585   0.40482   0.00000  Uiso   1.00
C20    C     0.13535   0.14022   0.09345   0.00000  Uiso   1.00
C21    C     0.16466   0.16692   0.11606   0.00000  Uiso   1.00
C22    C     0.16571   0.16701   0.38402   0.00000  Uiso   1.00
C23    C     0.16170   0.16727   0.02400   0.00000  Uiso   1.00
C24    C     0.16173   0.16576   0.47585   0.00000  Uiso   1.00
C25    C     0.29088   0.16715   0.25160   0.00000  Uiso   1.00
C26    C     0.04241   0.16698   0.24863   0.00000  Uiso   1.00
N27    N     0.16667   0.28573   0.25000   0.00000  Uiso   1.00
N28    N     0.16667   0.04760   0.25000   0.00000  Uiso   1.00
O29    O     0.10559   0.20487   0.25000   0.00000  Uiso   1.00
O30    O     0.22774   0.12846   0.25001   0.00000  Uiso   1.00
O31    O     0.22774   0.20487   0.25001   0.00000  Uiso   1.00
O32    O     0.10559   0.12846   0.25000   0.00000  Uiso   1.00
O33    O     0.16666   0.20489   0.18453   0.00000  Uiso   1.00
O34    O     0.16667   0.12845   0.31547   0.00000  Uiso   1.00
O35    O     0.16667   0.20489   0.31547   0.00000  Uiso   1.00
O36    O     0.16666   0.12845   0.18453   0.00000  Uiso   1.00
Zn37   Zn    0.16667   0.21771   0.25000   0.00000  Uiso   1.00
Zn38   Zn    0.16667   0.11563   0.25000   0.00000  Uiso   1.00
O39    O     0.20564   0.04511   0.31864   0.00000  Uiso   1.00
H40    H     0.21590   0.07357   0.30681   0.00000  Uiso   1.00
O41    O     0.12565   0.28831   0.18236   0.00000  Uiso   1.00
H42    H     0.11569   0.25962   0.19404   0.00000  Uiso   1.00
O43    O     0.12777   0.04475   0.18131   0.00000  Uiso   1.00
H44    H     0.11738   0.07314   0.19322   0.00000  Uiso   1.00
O45    O     0.20783   0.28872   0.31752   0.00000  Uiso   1.00
H46    H     0.21754   0.25989   0.30591   0.00000  Uiso   1.00
O47    O     0.21735   0.22325   0.02548   0.00000  Uiso   1.00
H48    H     0.21116   0.22417   0.49310   0.00000  Uiso   1.00
O49    O     0.21501   0.10742   0.47815   0.00000  Uiso   1.00
H50    H     0.20749   0.10547   0.00970   0.00000  Uiso   1.00
O51    O     0.10873   0.22438   0.47097   0.00000  Uiso   1.00
H52    H     0.10792   0.21939   0.00342   0.00000  Uiso   1.00
O53    O     0.10537   0.11221   0.02525   0.00000  Uiso   1.00
H54    H     0.10648   0.11529   0.49258   0.00000  Uiso   1.00
O55    O     0.21935   0.22068   0.11832   0.00000  Uiso   1.00
H56    H     0.23625   0.23908   0.09856   0.00000  Uiso   1.00
O57    O     0.21985   0.11280   0.38574   0.00000  Uiso   1.00
H58    H     0.23663   0.09445   0.40674   0.00000  Uiso   1.00
O59    O     0.11368   0.22357   0.37855   0.00000  Uiso   1.00
H60    H     0.09600   0.24226   0.39723   0.00000  Uiso   1.00
O61    O     0.10784   0.11605   0.11810   0.00000  Uiso   1.00
H62    H     0.08857   0.09917   0.09825   0.00000  Uiso   1.00
O63    O     0.03960   0.08560   0.23918   0.00000  Uiso   1.00
C64    C     0.02793   0.06964   0.19613   0.00000  Uiso   1.00
H65    H     0.04828   0.08452   0.17118   0.00000  Uiso   1.00
H66    H     0.32899   0.07771   0.18575   0.00000  Uiso   1.00
C67    C     0.03184   0.01894   0.19504   0.00000  Uiso   1.00
H68    H     0.00926   0.00394   0.21730   0.00000  Uiso   1.00
H69    H     0.02602   0.00637   0.16059   0.00000  Uiso   1.00
H70    H     0.06268   0.00833   0.20688   0.00000  Uiso   1.00
O71    O     0.29206   0.24852   0.24222   0.00000  Uiso   1.00
C72    C     0.29063   0.25902   0.19634   0.00000  Uiso   1.00
H73    H     0.27892   0.23029   0.17584   0.00000  Uiso   1.00
H74    H     0.32169   0.26796   0.18501   0.00000  Uiso   1.00
C75    C     0.26202   0.29858   0.18814   0.00000  Uiso   1.00
H76    H     0.27003   0.32670   0.21109   0.00000  Uiso   1.00
H77    H     0.26434   0.31028   0.15323   0.00000  Uiso   1.00
H78    H     0.22998   0.28810   0.19356   0.00000  Uiso   1.00
O79    O     0.29340   0.08642   0.26462   0.00000  Uiso   1.00
C80    C     0.30448   0.07321   0.30867   0.00000  Uiso   1.00
H81    H     0.28284   0.08820   0.33224   0.00000  Uiso   1.00
H82    H     0.00278   0.08345   0.31975   0.00000  Uiso   1.00
C83    C     0.30258   0.02246   0.31181   0.00000  Uiso   1.00
H84    H     0.32675   0.00801   0.29131   0.00000  Uiso   1.00
H85    H     0.30755   0.01168   0.34692   0.00000  Uiso   1.00
H86    H     0.27272   0.00960   0.29887   0.00000  Uiso   1.00
O87    O     0.04146   0.24856   0.25689   0.00000  Uiso   1.00
C88    C     0.04230   0.25959   0.30271   0.00000  Uiso   1.00
H89    H     0.05280   0.23081   0.32370   0.00000  Uiso   1.00
H90    H     0.01124   0.26942   0.31324   0.00000  Uiso   1.00
C91    C     0.07180   0.29842   0.31139   0.00000  Uiso   1.00
H92    H     0.06484   0.32665   0.28841   0.00000  Uiso   1.00
H93    H     0.06928   0.31037   0.34623   0.00000  Uiso   1.00
H94    H     0.10365   0.28709   0.30649   0.00000  Uiso   1.00
C95    C     0.42000   0.16669   0.24925   0.00000  Uiso   1.00
C96    C     0.57998   0.16676   0.25086   0.00000  Uiso   1.00
C97    C     0.49961   0.16668   0.16409   0.00000  Uiso   1.00
C98    C     0.50015   0.16675   0.33596   0.00000  Uiso   1.00
C99    C     0.51888   0.02378   0.28392   0.00000  Uiso   1.00
C100   C     0.48058   0.30950   0.21633   0.00000  Uiso   1.00
C101   C     0.48121   0.02360   0.21602   0.00000  Uiso   1.00
C102   C     0.51950   0.30970   0.28361   0.00000  Uiso   1.00
C103   C     0.35390   0.12634   0.24628   0.00000  Uiso   1.00
C104   C     0.64553   0.20801   0.24757   0.00000  Uiso   1.00
C105   C     0.64589   0.12663   0.25543   0.00000  Uiso   1.00
C106   C     0.35454   0.20801   0.25159   0.00000  Uiso   1.00
C107   C     0.52354   0.19547   0.04700   0.00000  Uiso   1.00
C108   C     0.52275   0.13671   0.45479   0.00000  Uiso   1.00
C109   C     0.46930   0.19537   0.45121   0.00000  Uiso   1.00
C110   C     0.46726   0.13978   0.04687   0.00000  Uiso   1.00
C111   C     0.52499   0.19486   0.09356   0.00000  Uiso   1.00
C112   C     0.52509   0.13816   0.40840   0.00000  Uiso   1.00
C113   C     0.47158   0.19585   0.40482   0.00000  Uiso   1.00
C114   C     0.46868   0.14022   0.09345   0.00000  Uiso   1.00
C115   C     0.49799   0.16692   0.11606   0.00000  Uiso   1.00
C116   C     0.49905   0.16701   0.38402   0.00000  Uiso   1.00
C117   C     0.49504   0.16727   0.02400   0.00000  Uiso   1.00
C118   C     0.49506   0.16576   0.47585   0.00000  Uiso   1.00
C119   C     0.62421   0.16715   0.25160   0.00000  Uiso   1.00
C120   C     0.37574   0.16698   0.24863   0.00000  Uiso   1.00
N121   N     0.50000   0.28573   0.25000   0.00000  Uiso   1.00
N122   N     0.50000   0.04760   0.25000   0.00000  Uiso   1.00
O123   O     0.43892   0.20487   0.25000   0.00000  Uiso   1.00
O124   O     0.56108   0.12846   0.25001   0.00000  Uiso   1.00
O125   O     0.56108   0.20487   0.25001   0.00000  Uiso   1.00
O126   O     0.43892   0.12846   0.25000   0.00000  Uiso   1.00
O127   O     0.50000   0.20489   0.18453   0.00000  Uiso   1.00
O128   O     0.50000   0.12845   0.31547   0.00000  Uiso   1.00
O129   O     0.50000   0.20489   0.31547   0.00000  Uiso   1.00
O130   O     0.50000   0.12845   0.18453   0.00000  Uiso   1.00
Zn131  Zn    0.50000   0.21771   0.25000   0.00000  Uiso   1.00
Zn132  Zn    0.50000   0.11563   0.25000   0.00000  Uiso   1.00
O133   O     0.53897   0.04511   0.31864   0.00000  Uiso   1.00
H134   H     0.54924   0.07357   0.30681   0.00000  Uiso   1.00
O135   O     0.45898   0.28831   0.18236   0.00000  Uiso   1.00
H136   H     0.44903   0.25962   0.19404   0.00000  Uiso   1.00
O137   O     0.46110   0.04475   0.18131   0.00000  Uiso   1.00
H138   H     0.45071   0.07314   0.19322   0.00000  Uiso   1.00
O139   O     0.54116   0.28872   0.31752   0.00000  Uiso   1.00
H140   H     0.55087   0.25989   0.30591   0.00000  Uiso   1.00
O141   O     0.55068   0.22325   0.02548   0.00000  Uiso   1.00
H142   H     0.54449   0.22417   0.49310   0.00000  Uiso   1.00
O143   O     0.54834   0.10742   0.47815   0.00000  Uiso   1.00
H144   H     0.54082   0.10547   0.00970   0.00000  Uiso   1.00
O145   O     0.44207   0.22438   0.47097   0.00000  Uiso   1.00
H146   H     0.44125   0.21939   0.00342   0.00000  Uiso   1.00
O147   O     0.43871   0.11221   0.02525   0.00000  Uiso   1.00
H148   H     0.43981   0.11529   0.49258   0.00000  Uiso   1.00
O149   O     0.55268   0.22068   0.11832   0.00000  Uiso   1.00
H150   H     0.56959   0.23908   0.09856   0.00000  Uiso   1.00
O151   O     0.55318   0.11280   0.38574   0.00000  Uiso   1.00
H152   H     0.56997   0.09445   0.40674   0.00000  Uiso   1.00
O153   O     0.44701   0.22357   0.37855   0.00000  Uiso   1.00
H154   H     0.42933   0.24226   0.39723   0.00000  Uiso   1.00
O155   O     0.44117   0.11605   0.11810   0.00000  Uiso   1.00
H156   H     0.42190   0.09917   0.09825   0.00000  Uiso   1.00
O157   O     0.37293   0.08560   0.23918   0.00000  Uiso   1.00
C158   C     0.36127   0.06964   0.19613   0.00000  Uiso   1.00
H159   H     0.38161   0.08452   0.17118   0.00000  Uiso   1.00
H160   H     0.66232   0.07771   0.18575   0.00000  Uiso   1.00
C161   C     0.36517   0.01894   0.19504   0.00000  Uiso   1.00
H162   H     0.34260   0.00394   0.21730   0.00000  Uiso   1.00
H163   H     0.35935   0.00637   0.16059   0.00000  Uiso   1.00
H164   H     0.39601   0.00833   0.20688   0.00000  Uiso   1.00
O165   O     0.62539   0.24852   0.24222   0.00000  Uiso   1.00
C166   C     0.62396   0.25902   0.19634   0.00000  Uiso   1.00
H167   H     0.61225   0.23029   0.17584   0.00000  Uiso   1.00
H168   H     0.65502   0.26796   0.18501   0.00000  Uiso   1.00
C169   C     0.59535   0.29858   0.18814   0.00000  Uiso   1.00
H170   H     0.60337   0.32670   0.21109   0.00000  Uiso   1.00
H171   H     0.59767   0.31028   0.15323   0.00000  Uiso   1.00
H172   H     0.56332   0.28810   0.19356   0.00000  Uiso   1.00
O173   O     0.62673   0.08642   0.26462   0.00000  Uiso   1.00
C174   C     0.63782   0.07321   0.30867   0.00000  Uiso   1.00
H175   H     0.61618   0.08820   0.33224   0.00000  Uiso   1.00
H176   H     0.33612   0.08345   0.31975   0.00000  Uiso   1.00
C177   C     0.63591   0.02246   0.31181   0.00000  Uiso   1.00
H178   H     0.66008   0.00801   0.29131   0.00000  Uiso   1.00
H179   H     0.64088   0.01168   0.34692   0.00000  Uiso   1.00
H180   H     0.60605   0.00960   0.29887   0.00000  Uiso   1.00
O181   O     0.37480   0.24856   0.25689   0.00000  Uiso   1.00
C182   C     0.37563   0.25959   0.30271   0.00000  Uiso   1.00
H183   H     0.38613   0.23081   0.32370   0.00000  Uiso   1.00
H184   H     0.34457   0.26942   0.31324   0.00000  Uiso   1.00
C185   C     0.40513   0.29842   0.31139   0.00000  Uiso   1.00
H186   H     0.39818   0.32665   0.28841   0.00000  Uiso   1.00
H187   H     0.40261   0.31037   0.34623   0.00000  Uiso   1.00
H188   H     0.43698   0.28709   0.30649   0.00000  Uiso   1.00
C189   C     0.75334   0.16669   0.24925   0.00000  Uiso   1.00
C190   C     0.91331   0.16676   0.25086   0.00000  Uiso   1.00
C191   C     0.83294   0.16668   0.16409   0.00000  Uiso   1.00
C192   C     0.83349   0.16675   0.33596   0.00000  Uiso   1.00
C193   C     0.85221   0.02378   0.28392   0.00000  Uiso   1.00
C194   C     0.81392   0.30950   0.21633   0.00000  Uiso   1.00
C195   C     0.81454   0.02360   0.21602   0.00000  Uiso   1.00
C196   C     0.85283   0.30970   0.28361   0.00000  Uiso   1.00
C197   C     0.68723   0.12634   0.24628   0.00000  Uiso   1.00
C198   C     0.97887   0.20801   0.24757   0.00000  Uiso   1.00
C199   C     0.97922   0.12663   0.25543   0.00000  Uiso   1.00
C200   C     0.68787   0.20801   0.25159   0.00000  Uiso   1.00
C201   C     0.85687   0.19547   0.04700   0.00000  Uiso   1.00
C202   C     0.85608   0.13671   0.45479   0.00000  Uiso   1.00
C203   C     0.80263   0.19537   0.45121   0.00000  Uiso   1.00
C204   C     0.80060   0.13978   0.04687   0.00000  Uiso   1.00
C205   C     0.85832   0.19486   0.09356   0.00000  Uiso   1.00
C206   C     0.85842   0.13816   0.40840   0.00000  Uiso   1.00
C207   C     0.80491   0.19585   0.40482   0.00000  Uiso   1.00
C208   C     0.80201   0.14022   0.09345   0.00000  Uiso   1.00
C209   C     0.83133   0.16692   0.11606   0.00000  Uiso   1.00
C210   C     0.83238   0.16701   0.38402   0.00000  Uiso   1.00
C211   C     0.82837   0.16727   0.02400   0.00000  Uiso   1.00
C212   C     0.82840   0.16576   0.47585   0.00000  Uiso   1.00
C213   C     0.95755   0.16715   0.25160   0.00000  Uiso   1.00
C214   C     0.70907   0.16698   0.24863   0.00000  Uiso   1.00
N215   N     0.83333   0.28573   0.25000   0.00000  Uiso   1.00
N216   N     0.83333   0.04760   0.25000   0.00000  Uiso   1.00
O217   O     0.77226   0.20487   0.25000   0.00000  Uiso   1.00
O218   O     0.89441   0.12846   0.25001   0.00000  Uiso   1.00
O219   O     0.89441   0.20487   0.25001   0.00000  Uiso   1.00
O220   O     0.77226   0.12846   0.25000   0.00000  Uiso   1.00
O221   O     0.83333   0.20489   0.18453   0.00000  Uiso   1.00
O222   O     0.83334   0.12845   0.31547   0.00000  Uiso   1.00
O223   O     0.83334   0.20489   0.31547   0.00000  Uiso   1.00
O224   O     0.83333   0.12845   0.18453   0.00000  Uiso   1.00
Zn225  Zn    0.83333   0.21771   0.25000   0.00000  Uiso   1.00
Zn226  Zn    0.83333   0.11563   0.25000   0.00000  Uiso   1.00
O227   O     0.87230   0.04511   0.31864   0.00000  Uiso   1.00
H228   H     0.88257   0.07357   0.30681   0.00000  Uiso   1.00
O229   O     0.79232   0.28831   0.18236   0.00000  Uiso   1.00
H230   H     0.78236   0.25962   0.19404   0.00000  Uiso   1.00
O231   O     0.79444   0.04475   0.18131   0.00000  Uiso   1.00
H232   H     0.78404   0.07314   0.19322   0.00000  Uiso   1.00
O233   O     0.87450   0.28872   0.31752   0.00000  Uiso   1.00
H234   H     0.88420   0.25989   0.30591   0.00000  Uiso   1.00
O235   O     0.88401   0.22325   0.02548   0.00000  Uiso   1.00
H236   H     0.87783   0.22417   0.49310   0.00000  Uiso   1.00
O237   O     0.88168   0.10742   0.47815   0.00000  Uiso   1.00
H238   H     0.87416   0.10547   0.00970   0.00000  Uiso   1.00
O239   O     0.77540   0.22438   0.47097   0.00000  Uiso   1.00
H240   H     0.77458   0.21939   0.00342   0.00000  Uiso   1.00
O241   O     0.77204   0.11221   0.02525   0.00000  Uiso   1.00
H242   H     0.77314   0.11529   0.49258   0.00000  Uiso   1.00
O243   O     0.88601   0.22068   0.11832   0.00000  Uiso   1.00
H244   H     0.90292   0.23908   0.09856   0.00000  Uiso   1.00
O245   O     0.88652   0.11280   0.38574   0.00000  Uiso   1.00
H246   H     0.90330   0.09445   0.40674   0.00000  Uiso   1.00
O247   O     0.78035   0.22357   0.37855   0.00000  Uiso   1.00
H248   H     0.76266   0.24226   0.39723   0.00000  Uiso   1.00
O249   O     0.77451   0.11605   0.11810   0.00000  Uiso   1.00
H250   H     0.75524   0.09917   0.09825   0.00000  Uiso   1.00
O251   O     0.70626   0.08560   0.23918   0.00000  Uiso   1.00
C252   C     0.69460   0.06964   0.19613   0.00000  Uiso   1.00
H253   H     0.71495   0.08452   0.17118   0.00000  Uiso   1.00
H254   H     0.99565   0.07771   0.18575   0.00000  Uiso   1.00
C255   C     0.69850   0.01894   0.19504   0.00000  Uiso   1.00
H256   H     0.67593   0.00394   0.21730   0.00000  Uiso   1.00
H257   H     0.69268   0.00637   0.16059   0.00000  Uiso   1.00
H258   H     0.72935   0.00833   0.20688   0.00000  Uiso   1.00
O259   O     0.95872   0.24852   0.24222   0.00000  Uiso   1.00
C260   C     0.95729   0.25902   0.19634   0.00000  Uiso   1.00
H261   H     0.94558   0.23029   0.17584   0.00000  Uiso   1.00
H262   H     0.98836   0.26796   0.18501   0.00000  Uiso   1.00
C263   C     0.92869   0.29858   0.18814   0.00000  Uiso   1.00
H264   H     0.93670   0.32670   0.21109   0.00000  Uiso   1.00
H265   H     0.93100   0.31028   0.15323   0.00000  Uiso   1.00
H266   H     0.89665   0.28810   0.19356   0.00000  Uiso   1.00
O267   O     0.96007   0.08642   0.26462   0.00000  Uiso   1.00
C268   C     0.97115   0.07321   0.30867   0.00000  Uiso   1.00
H269   H     0.94951   0.08820   0.33224   0.00000  Uiso   1.00
H270   H     0.66945   0.08345   0.31975   0.00000  Uiso   1.00
C271   C     0.96924   0.02246   0.31181   0.00000  Uiso   1.00
H272   H     0.99341   0.00801   0.29131   0.00000  Uiso   1.00
H273   H     0.97422   0.01168   0.34692   0.00000  Uiso   1.00
H274   H     0.93939   0.00960   0.29887   0.00000  Uiso   1.00
O275   O     0.70813   0.24856   0.25689   0.00000  Uiso   1.00
C276   C     0.70897   0.25959   0.30271   0.00000  Uiso   1.00
H277   H     0.71946   0.23081   0.32370   0.00000  Uiso   1.00
H278   H     0.67790   0.26942   0.31324   0.00000  Uiso   1.00
C279   C     0.73847   0.29842   0.31139   0.00000  Uiso   1.00
H280   H     0.73151   0.32665   0.28841   0.00000  Uiso   1.00
H281   H     0.73594   0.31037   0.34623   0.00000  Uiso   1.00
H282   H     0.77032   0.28709   0.30649   0.00000  Uiso   1.00
C283   C     0.08667   0.50002   0.24925   0.00000  Uiso   1.00
C284   C     0.24664   0.50010   0.25086   0.00000  Uiso   1.00
C285   C     0.16628   0.50001   0.16409   0.00000  Uiso   1.00
C286   C     0.16682   0.50008   0.33596   0.00000  Uiso   1.00
C287   C     0.18554   0.35712   0.28392   0.00000  Uiso   1.00
C288   C     0.14725   0.64283   0.21633   0.00000  Uiso   1.00
C289   C     0.14787   0.35693   0.21602   0.00000  Uiso   1.00
C290   C     0.18617   0.64303   0.28361   0.00000  Uiso   1.00
C291   C     0.02057   0.45967   0.24628   0.00000  Uiso   1.00
C292   C     0.31220   0.54135   0.24757   0.00000  Uiso   1.00
C293   C     0.31256   0.45997   0.25543   0.00000  Uiso   1.00
C294   C     0.02120   0.54134   0.25159   0.00000  Uiso   1.00
C295   C     0.19021   0.52881   0.04700   0.00000  Uiso   1.00
C296   C     0.18941   0.47005   0.45479   0.00000  Uiso   1.00
C297   C     0.13596   0.52871   0.45121   0.00000  Uiso   1.00
C298   C     0.13393   0.47311   0.04687   0.00000  Uiso   1.00
C299   C     0.19165   0.52819   0.09356   0.00000  Uiso   1.00
C300   C     0.19175   0.47150   0.40840   0.00000  Uiso   1.00
C301   C     0.13825   0.52918   0.40482   0.00000  Uiso   1.00
C302   C     0.13535   0.47356   0.09345   0.00000  Uiso   1.00
C303   C     0.16466   0.50025   0.11606   0.00000  Uiso   1.00
C304   C     0.16571   0.50034   0.38402   0.00000  Uiso   1.00
C305   C     0.16170   0.50060   0.02400   0.00000  Uiso   1.00
C306   C     0.16173   0.49909   0.47585   0.00000  Uiso   1.00
C307   C     0.29088   0.50049   0.25160   0.00000  Uiso   1.00
C308   C     0.04241   0.50031   0.24863   0.00000  Uiso   1.00
N309   N     0.16667   0.61907   0.25000   0.00000  Uiso   1.00
N310   N     0.16667   0.38093   0.25000   0.00000  Uiso   1.00
O311   O     0.10559   0.53821   0.25000   0.00000  Uiso   1.00
O312   O     0.22774   0.46179   0.25001   0.00000  Uiso   1.00
O313   O     0.22774   0.53821   0.25001   0.00000  Uiso   1.00
O314   O     0.10559   0.46179   0.25000   0.00000  Uiso   1.00
O315   O     0.16666   0.53822   0.18453   0.00000  Uiso   1.00
O316   O     0.16667   0.46178   0.31547   0.00000  Uiso   1.00
O317   O     0.16667   0.53822   0.31547   0.00000  Uiso   1.00
O318   O     0.16666   0.46178   0.18453   0.00000  Uiso   1.00
Zn319  Zn    0.16667   0.55104   0.25000   0.00000  Uiso   1.00
Zn320  Zn    0.16667   0.44896   0.25000   0.00000  Uiso   1.00
O321   O     0.20564   0.37844   0.31864   0.00000  Uiso   1.00
H322   H     0.21590   0.40690   0.30681   0.00000  Uiso   1.00
O323   O     0.12565   0.62165   0.18236   0.00000  Uiso   1.00
H324   H     0.11569   0.59296   0.19404   0.00000  Uiso   1.00
O325   O     0.12777   0.37809   0.18131   0.00000  Uiso   1.00
H326   H     0.11738   0.40648   0.19322   0.00000  Uiso   1.00
O327   O     0.20783   0.62206   0.31752   0.00000  Uiso   1.00
H328   H     0.21754   0.59323   0.30591   0.00000  Uiso   1.00
O329   O     0.21735   0.55658   0.02548   0.00000  Uiso   1.00
H330   H     0.21116   0.55750   0.49310   0.00000  Uiso   1.00
O331   O     0.21501   0.44075   0.47815   0.00000  Uiso   1.00
H332   H     0.20749   0.43880   0.00970   0.00000  Uiso   1.00
O333   O     0.10873   0.55771   0.47097   0.00000  Uiso   1.00
H334   H     0.10792   0.55273   0.00342   0.00000  Uiso   1.00
O335   O     0.10537   0.44554   0.02525   0.00000  Uiso   1.00
H336   H     0.10648   0.44863   0.49258   0.00000  Uiso   1.00
O337   O     0.21935   0.55401   0.11832   0.00000  Uiso   1.00
H338   H     0.23625   0.57241   0.09856   0.00000  Uiso   1.00
O339   O     0.21985   0.44614   0.38574   0.00000  Uiso   1.00
H340   H     0.23663   0.42778   0.40674   0.00000  Uiso   1.00
O341   O     0.11368   0.55690   0.37855   0.00000  Uiso   1.00
H342   H     0.09600   0.57559   0.39723   0.00000  Uiso   1.00
O343   O     0.10784   0.44938   0.11810   0.00000  Uiso   1.00
H344   H     0.08857   0.43251   0.09825   0.00000  Uiso   1.00
O345   O     0.03960   0.41894   0.23918   0.00000  Uiso   1.00
C346   C     0.02793   0.40297   0.19613   0.00000  Uiso   1.00
H347   H     0.04828   0.41785   0.17118   0.00000  Uiso   1.00
H348   H     0.32899   0.41104   0.18575   0.00000  Uiso   1.00
C349   C     0.03184   0.35227   0.19504   0.00000  Uiso   1.00
H350   H     0.00926   0.33727   0.21730   0.00000  Uiso   1.00
H351   H     0.02602   0.33970   0.16059   0.00000  Uiso   1.00
H352   H     0.06268   0.34166   0.20688   0.00000  Uiso   1.00
O353   O     0.29206   0.58185   0.24222   0.00000  Uiso   1.00
C354   C     0.29063   0.59236   0.19634   0.00000  Uiso   1.00
H355   H     0.27892   0.56363   0.17584   0.00000  Uiso   1.00
H356   H     0.32169   0.60129   0.18501   0.00000  Uiso   1.00
C357   C     0.26202   0.63192   0.18814   0.00000  Uiso   1.00
H358   H     0.27003   0.66003   0.21109   0.00000  Uiso   1.00
H359   H     0.26434   0.64361   0.15323   0.00000  Uiso   1.00
H360   H     0.22998   0.62143   0.19356   0.00000  Uiso   1.00
O361   O     0.29340   0.41975   0.26462   0.00000  Uiso   1.00
C362   C     0.30448   0.40654   0.30867   0.00000  Uiso   1.00
H363   H     0.28284   0.42153   0.33224   0.00000  Uiso   1.00
H364   H     0.00278   0.41678   0.31975   0.00000  Uiso   1.00
C365   C     0.30258   0.35580   0.31181   0.00000  Uiso   1.00
H366   H     0.32675   0.34134   0.29131   0.00000  Uiso   1.00
H367   H     0.30755   0.34501   0.34692   0.00000  Uiso   1.00
H368   H     0.27272   0.34293   0.29887   0.00000  Uiso   1.00
O369   O     0.04146   0.58189   0.25689   0.00000  Uiso   1.00
C370   C     0.04230   0.59292   0.30271   0.00000  Uiso   1.00
H371   H     0.05280   0.56414   0.32370   0.00000  Uiso   1.00
H372   H     0.01124   0.60276   0.31324   0.00000  Uiso   1.00
C373   C     0.07180   0.63175   0.31139   0.00000  Uiso   1.00
H374   H     0.06484   0.65998   0.28841   0.00000  Uiso   1.00
H375   H     0.06928   0.64370   0.34623   0.00000  Uiso   1.00
H376   H     0.10365   0.62042   0.30649   0.00000  Uiso   1.00
C377   C     0.42000   0.50002   0.24925   0.00000  Uiso   1.00
C378   C     0.57998   0.50010   0.25086   0.00000  Uiso   1.00
C379   C     0.49961   0.50001   0.16409   0.00000  Uiso   1.00
C380   C     0.50015   0.50008   0.33596   0.00000  Uiso   1.00
C381   C     0.51888   0.35712   0.28392   0.00000  Uiso   1.00
C382   C     0.48058   0.64283   0.21633   0.00000  Uiso   1.00
C383   C     0.48121   0.35693   0.21602   0.00000  Uiso   1.00
C384   C     0.51950   0.64303   0.28361   0.00000  Uiso   1.00
C385   C     0.35390   0.45967   0.24628   0.00000  Uiso   1.00
C386   C     0.64553   0.54135   0.24757   0.00000  Uiso   1.00
C387   C     0.64589   0.45997   0.25543   0.00000  Uiso   1.00
C388   C     0.35454   0.54134   0.25159   0.00000  Uiso   1.00
C389   C     0.52354   0.52881   0.04700   0.00000  Uiso   1.00
C390   C     0.52275   0.47005   0.45479   0.00000  Uiso   1.00
C391   C     0.46930   0.52871   0.45121   0.00000  Uiso   1.00
C392   C     0.46726   0.47311   0.04687   0.00000  Uiso   1.00
C393   C     0.52499   0.52819   0.09356   0.00000  Uiso   1.00
C394   C     0.52509   0.47150   0.40840   0.00000  Uiso   1.00
C395   C     0.47158   0.52918   0.40482   0.00000  Uiso   1.00
C396   C     0.46868   0.47356   0.09345   0.00000  Uiso   1.00
C397   C     0.49799   0.50025   0.11606   0.00000  Uiso   1.00
C398   C     0.49905   0.50034   0.38402   0.00000  Uiso   1.00
C399   C     0.49504   0.50060   0.02400   0.00000  Uiso   1.00
C400   C     0.49506   0.49909   0.47585   0.00000  Uiso   1.00
C401   C     0.62421   0.50049   0.25160   0.00000  Uiso   1.00
C402   C     0.37574   0.50031   0.24863   0.00000  Uiso   1.00
N403   N     0.50000   0.61907   0.25000   0.00000  Uiso   1.00
N404   N     0.50000   0.38093   0.25000   0.00000  Uiso   1.00
O405   O     0.43892   0.53821   0.25000   0.00000  Uiso   1.00
O406   O     0.56108   0.46179   0.25001   0.00000  Uiso   1.00
O407   O     0.56108   0.53821   0.25001   0.00000  Uiso   1.00
O408   O     0.43892   0.46179   0.25000   0.00000  Uiso   1.00
O409   O     0.50000   0.53822   0.18453   0.00000  Uiso   1.00
O410   O     0.50000   0.46178   0.31547   0.00000  Uiso   1.00
O411   O     0.50000   0.53822   0.31547   0.00000  Uiso   1.00
O412   O     0.50000   0.46178   0.18453   0.00000  Uiso   1.00
Zn413  Zn    0.50000   0.55104   0.25000   0.00000  Uiso   1.00
Zn414  Zn    0.50000   0.44896   0.25000   0.00000  Uiso   1.00
O415   O     0.53897   0.37844   0.31864   0.00000  Uiso   1.00
H416   H     0.54924   0.40690   0.30681   0.00000  Uiso   1.00
O417   O     0.45898   0.62165   0.18236   0.00000  Uiso   1.00
H418   H     0.44903   0.59296   0.19404   0.00000  Uiso   1.00
O419   O     0.46110   0.37809   0.18131   0.00000  Uiso   1.00
H420   H     0.45071   0.40648   0.19322   0.00000  Uiso   1.00
O421   O     0.54116   0.62206   0.31752   0.00000  Uiso   1.00
H422   H     0.55087   0.59323   0.30591   0.00000  Uiso   1.00
O423   O     0.55068   0.55658   0.02548   0.00000  Uiso   1.00
H424   H     0.54449   0.55750   0.49310   0.00000  Uiso   1.00
O425   O     0.54834   0.44075   0.47815   0.00000  Uiso   1.00
H426   H     0.54082   0.43880   0.00970   0.00000  Uiso   1.00
O427   O     0.44207   0.55771   0.47097   0.00000  Uiso   1.00
H428   H     0.44125   0.55273   0.00342   0.00000  Uiso   1.00
O429   O     0.43871   0.44554   0.02525   0.00000  Uiso   1.00
H430   H     0.43981   0.44863   0.49258   0.00000  Uiso   1.00
O431   O     0.55268   0.55401   0.11832   0.00000  Uiso   1.00
H432   H     0.56959   0.57241   0.09856   0.00000  Uiso   1.00
O433   O     0.55318   0.44614   0.38574   0.00000  Uiso   1.00
H434   H     0.56997   0.42778   0.40674   0.00000  Uiso   1.00
O435   O     0.44701   0.55690   0.37855   0.00000  Uiso   1.00
H436   H     0.42933   0.57559   0.39723   0.00000  Uiso   1.00
O437   O     0.44117   0.44938   0.11810   0.00000  Uiso   1.00
H438   H     0.42190   0.43251   0.09825   0.00000  Uiso   1.00
O439   O     0.37293   0.41894   0.23918   0.00000  Uiso   1.00
C440   C     0.36127   0.40297   0.19613   0.00000  Uiso   1.00
H441   H     0.38161   0.41785   0.17118   0.00000  Uiso   1.00
H442   H     0.66232   0.41104   0.18575   0.00000  Uiso   1.00
C443   C     0.36517   0.35227   0.19504   0.00000  Uiso   1.00
H444   H     0.34260   0.33727   0.21730   0.00000  Uiso   1.00
H445   H     0.35935   0.33970   0.16059   0.00000  Uiso   1.00
H446   H     0.39601   0.34166   0.20688   0.00000  Uiso   1.00
O447   O     0.62539   0.58185   0.24222   0.00000  Uiso   1.00
C448   C     0.62396   0.59236   0.19634   0.00000  Uiso   1.00
H449   H     0.61225   0.56363   0.17584   0.00000  Uiso   1.00
H450   H     0.65502   0.60129   0.18501   0.00000  Uiso   1.00
C451   C     0.59535   0.63192   0.18814   0.00000  Uiso   1.00
H452   H     0.60337   0.66003   0.21109   0.00000  Uiso   1.00
H453   H     0.59767   0.64361   0.15323   0.00000  Uiso   1.00
H454   H     0.56332   0.62143   0.19356   0.00000  Uiso   1.00
O455   O     0.62673   0.41975   0.26462   0.00000  Uiso   1.00
C456   C     0.63782   0.40654   0.30867   0.00000  Uiso   1.00
H457   H     0.61618   0.42153   0.33224   0.00000  Uiso   1.00
H458   H     0.33612   0.41678   0.31975   0.00000  Uiso   1.00
C459   C     0.63591   0.35580   0.31181   0.00000  Uiso   1.00
H460   H     0.66008   0.34134   0.29131   0.00000  Uiso   1.00
H461   H     0.64088   0.34501   0.34692   0.00000  Uiso   1.00
H462   H     0.60605   0.34293   0.29887   0.00000  Uiso   1.00
O463   O     0.37480   0.58189   0.25689   0.00000  Uiso   1.00
C464   C     0.37563   0.59292   0.30271   0.00000  Uiso   1.00
H465   H     0.38613   0.56414   0.32370   0.00000  Uiso   1.00
H466   H     0.34457   0.60276   0.31324   0.00000  Uiso   1.00
C467   C     0.40513   0.63175   0.31139   0.00000  Uiso   1.00
H468   H     0.39818   0.65998   0.28841   0.00000  Uiso   1.00
H469   H     0.40261   0.64370   0.34623   0.00000  Uiso   1.00
H470   H     0.43698   0.62042   0.30649   0.00000  Uiso   1.00
C471   C     0.75334   0.50002   0.24925   0.00000  Uiso   1.00
C472   C     0.91331   0.50010   0.25086   0.00000  Uiso   1.00
C473   C     0.83294   0.50001   0.16409   0.00000  Uiso   1.00
C474   C     0.83349   0.50008   0.33596   0.00000  Uiso   1.00
C475   C     0.85221   0.35712   0.28392   0.00000  Uiso   1.00
C476   C     0.81392   0.64283   0.21633   0.00000  Uiso   1.00
C477   C     0.81454   0.35693   0.21602   0.00000  Uiso   1.00
C478   C     0.85283   0.64303   0.28361   0.00000  Uiso   1.00
C479   C     0.68723   0.45967   0.24628   0.00000  Uiso   1.00
C480   C     0.97887   0.54135   0.24757   0.00000  Uiso   1.00
C481   C     0.97922   0.45997   0.25543   0.00000  Uiso   1.00
C482   C     0.68787   0.54134   0.25159   0.00000  Uiso   1.00
C483   C     0.85687   0.52881   0.04700   0.00000  Uiso   1.00
C484   C     0.85608   0.47005   0.45479   0.00000  Uiso   1.00
C485   C     0.80263   0.52871   0.45121   0.00000  Uiso   1.00
C486   C     0.80060   0.47311   0.04687   0.00000  Uiso   1.00
C487   C     0.85832   0.52819   0.09356   0.00000  Uiso   1.00
C488   C     0.85842   0.47150   0.40840   0.00000  Uiso   1.00
C489   C     0.80491   0.52918   0.40482   0.00000  Uiso   1.00
C490   C     0.80201   0.47356   0.09345   0.00000  Uiso   1.00
C491   C     0.83133   0.50025   0.11606   0.00000  Uiso   1.00
C492   C     0.83238   0.50034   0.38402   0.00000  Uiso   1.00
C493   C     0.82837   0.50060   0.02400   0.00000  Uiso   1.00
C494   C     0.82840   0.49909   0.47585   0.00000  Uiso   1.00
C495   C     0.95755   0.50049   0.25160   0.00000  Uiso   1.00
C496   C     0.70907   0.50031   0.24863   0.00000  Uiso   1.00
N497   N     0.83333   0.61907   0.25000   0.00000  Uiso   1.00
N498   N     0.83333   0.38093   0.25000   0.00000  Uiso   1.00
O499   O     0.77226   0.53821   0.25000   0.00000  Uiso   1.00
O500   O     0.89441   0.46179   0.25001   0.00000  Uiso   1.00
O501   O     0.89441   0.53821   0.25001   0.00000  Uiso   1.00
O502   O     0.77226   0.46179   0.25000   0.00000  Uiso   1.00
O503   O     0.83333   0.53822   0.18453   0.00000  Uiso   1.00
O504   O     0.83334   0.46178   0.31547   0.00000  Uiso   1.00
O505   O     0.83334   0.53822   0.31547   0.00000  Uiso   1.00
O506   O     0.83333   0.46178   0.18453   0.00000  Uiso   1.00
Zn507  Zn    0.83333   0.55104   0.25000   0.00000  Uiso   1.00
Zn508  Zn    0.83333   0.44896   0.25000   0.00000  Uiso   1.00
O509   O     0.87230   0.37844   0.31864   0.00000  Uiso   1.00
H510   H     0.88257   0.40690   0.30681   0.00000  Uiso   1.00
O511   O     0.79232   0.62165   0.18236   0.00000  Uiso   1.00
H512   H     0.78236   0.59296   0.19404   0.00000  Uiso   1.00
O513   O     0.79444   0.37809   0.18131   0.00000  Uiso   1.00
H514   H     0.78404   0.40648   0.19322   0.00000  Uiso   1.00
O515   O     0.87450   0.62206   0.31752   0.00000  Uiso   1.00
H516   H     0.88420   0.59323   0.30591   0.00000  Uiso   1.00
O517   O     0.88401   0.55658   0.02548   0.00000  Uiso   1.00
H518   H     0.87783   0.55750   0.49310   0.00000  Uiso   1.00
O519   O     0.88168   0.44075   0.47815   0.00000  Uiso   1.00
H520   H     0.87416   0.43880   0.00970   0.00000  Uiso   1.00
O521   O     0.77540   0.55771   0.47097   0.00000  Uiso   1.00
H522   H     0.77458   0.55273   0.00342   0.00000  Uiso   1.00
O523   O     0.77204   0.44554   0.02525   0.00000  Uiso   1.00
H524   H     0.77314   0.44863   0.49258   0.00000  Uiso   1.00
O525   O     0.88601   0.55401   0.11832   0.00000  Uiso   1.00
H526   H     0.90292   0.57241   0.09856   0.00000  Uiso   1.00
O527   O     0.88652   0.44614   0.38574   0.00000  Uiso   1.00
H528   H     0.90330   0.42778   0.40674   0.00000  Uiso   1.00
O529   O     0.78035   0.55690   0.37855   0.00000  Uiso   1.00
H530   H     0.76266   0.57559   0.39723   0.00000  Uiso   1.00
O531   O     0.77451   0.44938   0.11810   0.00000  Uiso   1.00
H532   H     0.75524   0.43251   0.09825   0.00000  Uiso   1.00
O533   O     0.70626   0.41894   0.23918   0.00000  Uiso   1.00
C534   C     0.69460   0.40297   0.19613   0.00000  Uiso   1.00
H535   H     0.71495   0.41785   0.17118   0.00000  Uiso   1.00
H536   H     0.99565   0.41104   0.18575   0.00000  Uiso   1.00
C537   C     0.69850   0.35227   0.19504   0.00000  Uiso   1.00
H538   H     0.67593   0.33727   0.21730   0.00000  Uiso   1.00
H539   H     0.69268   0.33970   0.16059   0.00000  Uiso   1.00
H540   H     0.72935   0.34166   0.20688   0.00000  Uiso   1.00
O541   O     0.95872   0.58185   0.24222   0.00000  Uiso   1.00
C542   C     0.95729   0.59236   0.19634   0.00000  Uiso   1.00
H543   H     0.94558   0.56363   0.17584   0.00000  Uiso   1.00
H544   H     0.98836   0.60129   0.18501   0.00000  Uiso   1.00
C545   C     0.92869   0.63192   0.18814   0.00000  Uiso   1.00
H546   H     0.93670   0.66003   0.21109   0.00000  Uiso   1.00
H547   H     0.93100   0.64361   0.15323   0.00000  Uiso   1.00
H548   H     0.89665   0.62143   0.19356   0.00000  Uiso   1.00
O549   O     0.96007   0.41975   0.26462   0.00000  Uiso   1.00
C550   C     0.97115   0.40654   0.30867   0.00000  Uiso   1.00
H551   H     0.94951   0.42153   0.33224   0.00000  Uiso   1.00
H552   H     0.66945   0.41678   0.31975   0.00000  Uiso   1.00
C553   C     0.96924   0.35580   0.31181   0.00000  Uiso   1.00
H554   H     0.99341   0.34134   0.29131   0.00000  Uiso   1.00
H555   H     0.97422   0.34501   0.34692   0.00000  Uiso   1.00
H556   H     0.93939   0.34293   0.29887   0.00000  Uiso   1.00
O557   O     0.70813   0.58189   0.25689   0.00000  Uiso   1.00
C558   C     0.70897   0.59292   0.30271   0.00000  Uiso   1.00
H559   H     0.71946   0.56414   0.32370   0.00000  Uiso   1.00
H560   H     0.67790   0.60276   0.31324   0.00000  Uiso   1.00
C561   C     0.73847   0.63175   0.31139   0.00000  Uiso   1.00
H562   H     0.73151   0.65998   0.28841   0.00000  Uiso   1.00
H563   H     0.73594   0.64370   0.34623   0.00000  Uiso   1.00
H564   H     0.77032   0.62042   0.30649   0.00000  Uiso   1.00
C565   C     0.08667   0.83335   0.24925   0.00000  Uiso   1.00
C566   C     0.24664   0.83343   0.25086   0.00000  Uiso   1.00
C567   C     0.16628   0.83334   0.16409   0.00000  Uiso   1.00
C568   C     0.16682   0.83342   0.33596   0.00000  Uiso   1.00
C569   C     0.18554   0.69045   0.28392   0.00000  Uiso   1.00
C570   C     0.14725   0.97617   0.21633   0.00000  Uiso   1.00
C571   C     0.14787   0.69027   0.21602   0.00000  Uiso   1.00
C572   C     0.18617   0.97637   0.28361   0.00000  Uiso   1.00
C573   C     0.02057   0.79301   0.24628   0.00000  Uiso   1.00
C574   C     0.31220   0.87468   0.24757   0.00000  Uiso   1.00
C575   C     0.31256   0.79330   0.25543   0.00000  Uiso   1.00
C576   C     0.02120   0.87468   0.25159   0.00000  Uiso   1.00
C577   C     0.19021   0.86214   0.04700   0.00000  Uiso   1.00
C578   C     0.18941   0.80338   0.45479   0.00000  Uiso   1.00
C579   C     0.13596   0.86204   0.45121   0.00000  Uiso   1.00
C580   C     0.13393   0.80644   0.04687   0.00000  Uiso   1.00
C581   C     0.19165   0.86153   0.09356   0.00000  Uiso   1.00
C582   C     0.19175   0.80483   0.40840   0.00000  Uiso   1.00
C583   C     0.13825   0.86251   0.40482   0.00000  Uiso   1.00
C584   C     0.13535   0.80689   0.09345   0.00000  Uiso   1.00
C585   C     0.16466   0.83359   0.11606   0.00000  Uiso   1.00
C586   C     0.16571   0.83367   0.38402   0.00000  Uiso   1.00
C587   C     0.16170   0.83393   0.02400   0.00000  Uiso   1.00
C588   C     0.16173   0.83243   0.47585   0.00000  Uiso   1.00
C589   C     0.29088   0.83382   0.25160   0.00000  Uiso   1.00
C590   C     0.04241   0.83365   0.24863   0.00000  Uiso   1.00
N591   N     0.16667   0.95240   0.25000   0.00000  Uiso   1.00
N592   N     0.16667   0.71427   0.25000   0.00000  Uiso   1.00
O593   O     0.10559   0.87154   0.25000   0.00000  Uiso   1.00
O594   O     0.22774   0.79513   0.25001   0.00000  Uiso   1.00
O595   O     0.22774   0.87154   0.25001   0.00000  Uiso   1.00
O596   O     0.10559   0.79513   0.25000   0.00000  Uiso   1.00
O597   O     0.16666   0.87155   0.18453   0.00000  Uiso   1.00
O598   O     0.16667   0.79511   0.31547   0.00000  Uiso   1.00
O599   O     0.16667   0.87155   0.31547   0.00000  Uiso   1.00
O600   O     0.16666   0.79511   0.18453   0.00000  Uiso   1.00
Zn601  Zn    0.16667   0.88437   0.25000   0.00000  Uiso   1.00
Zn602  Zn    0.16667   0.78229   0.25000   0.00000  Uiso   1.00
O603   O     0.20564   0.71178   0.31864   0.00000  Uiso   1.00
H604   H     0.21590   0.74024   0.30681   0.00000  Uiso   1.00
O605   O     0.12565   0.95498   0.18236   0.00000  Uiso   1.00
H606   H     0.11569   0.92629   0.19404   0.00000  Uiso   1.00
O607   O     0.12777   0.71142   0.18131   0.00000  Uiso   1.00
H608   H     0.11738   0.73981   0.19322   0.00000  Uiso   1.00
O609   O     0.20783   0.95539   0.31752   0.00000  Uiso   1.00
H610   H     0.21754   0.92656   0.30591   0.00000  Uiso   1.00
O611   O     0.21735   0.88991   0.02548   0.00000  Uiso   1.00
H612   H     0.21116   0.89084   0.49310   0.00000  Uiso   1.00
O613   O     0.21501   0.77408   0.47815   0.00000  Uiso   1.00
H614   H     0.20749   0.77213   0.00970   0.00000  Uiso   1.00
O615   O     0.10873   0.89105   0.47097   0.00000  Uiso   1.00
H616   H     0.10792   0.88606   0.00342   0.00000  Uiso   1.00
O617   O     0.10537   0.77887   0.02525   0.00000  Uiso   1.00
H618   H     0.10648   0.78196   0.49258   0.00000  Uiso   1.00
O619   O     0.21935   0.88734   0.11832   0.00000  Uiso   1.00
H620   H     0.23625   0.90574   0.09856   0.00000  Uiso   1.00
O621   O     0.21985   0.77947   0.38574   0.00000  Uiso   1.00
H622   H     0.23663   0.76111   0.40674   0.00000  Uiso   1.00
O623   O     0.11368   0.89024   0.37855   0.00000  Uiso   1.00
H624   H     0.09600   0.90892   0.39723   0.00000  Uiso   1.00
O625   O     0.10784   0.78271   0.11810   0.00000  Uiso   1.00
H626   H     0.08857   0.76584   0.09825   0.00000  Uiso   1.00
O627   O     0.03960   0.75227   0.23918   0.00000  Uiso   1.00
C628   C     0.02793   0.73631   0.19613   0.00000  Uiso   1.00
H629   H     0.04828   0.75119   0.17118   0.00000  Uiso   1.00
H630   H     0.32899   0.74437   0.18575   0.00000  Uiso   1.00
C631   C     0.03184   0.68560   0.19504   0.00000  Uiso   1.00
H632   H     0.00926   0.67060   0.21730   0.00000  Uiso   1.00
H633   H     0.02602   0.67303   0.16059   0.00000  Uiso   1.00
H634   H     0.06268   0.67500   0.20688   0.00000  Uiso   1.00
O635   O     0.29206   0.91519   0.24222   0.00000  Uiso   1.00
C636   C     0.29063   0.92569   0.19634   0.00000  Uiso   1.00
H637   H     0.27892   0.89696   0.17584   0.00000  Uiso   1.00
H638   H     0.32169   0.93462   0.18501   0.00000  Uiso   1.00
C639   C     0.26202   0.96525   0.18814   0.00000  Uiso   1.00
H640   H     0.27003   0.99337   0.21109   0.00000  Uiso   1.00
H641   H     0.26434   0.97694   0.15323   0.00000  Uiso   1.00
H642   H     0.22998   0.95477   0.19356   0.00000  Uiso   1.00
O643   O     0.29340   0.75309   0.26462   0.00000  Uiso   1.00
C644   C     0.30448   0.73987   0.30867   0.00000  Uiso   1.00
H645   H     0.28284   0.75487   0.33224   0.00000  Uiso   1.00
H646   H     0.00278   0.75011   0.31975   0.00000  Uiso   1.00
C647   C     0.30258   0.68913   0.31181   0.00000  Uiso   1.00
H648   H     0.32675   0.67468   0.29131   0.00000  Uiso   1.00
H649   H     0.30755   0.67835   0.34692   0.00000  Uiso   1.00
H650   H     0.27272   0.67626   0.29887   0.00000  Uiso   1.00
O651   O     0.04146   0.91522   0.25689   0.00000  Uiso   1.00
C652   C     0.04230   0.92625   0.30271   0.00000  Uiso   1.00
H653   H     0.05280   0.89747   0.32370   0.00000  Uiso   1.00
H654   H     0.01124   0.93609   0.31324   0.00000  Uiso   1.00
C655   C     0.07180   0.96509   0.31139   0.00000  Uiso   1.00
H656   H     0.06484   0.99331   0.28841   0.00000  Uiso   1.00
H657   H     0.06928   0.97703   0.34623   0.00000  Uiso   1.00
H658   H     0.10365   0.95375   0.30649   0.00000  Uiso   1.00
C659   C     0.42000   0.83335   0.24925   0.00000  Uiso   1.00
C660   C     0.57998   0.83343   0.25086   0.00000  Uiso   1.00
C661   C     0.49961   0.83334   0.16409   0.00000  Uiso   1.00
C662   C     0.50015   0.83342   0.33596   0.00000  Uiso   1.00
C663   C     0.51888   0.69045   0.28392   0.00000  Uiso   1.00
C664   C     0.48058   0.97617   0.21633   0.00000  Uiso   1.00
C665   C     0.48121   0.69027   0.21602   0.00000  Uiso   1.00
C666   C     0.51950   0.97637   0.28361   0.00000  Uiso   1.00
C667   C     0.35390   0.79301   0.24628   0.00000  Uiso   1.00
C668   C     0.64553   0.87468   0.24757   0.00000  Uiso   1.00
C669   C     0.64589   0.79330   0.25543   0.00000  Uiso   1.00
C670   C     0.35454   0.87468   0.25159   0.00000  Uiso   1.00
C671   C     0.52354   0.86214   0.04700   0.00000  Uiso   1.00
C672   C     0.52275   0.80338   0.45479   0.00000  Uiso   1.00
C673   C     0.46930   0.86204   0.45121   0.00000  Uiso   1.00
C674   C     0.46726   0.80644   0.04687   0.00000  Uiso   1.00
C675   C     0.52499   0.86153   0.09356   0.00000  Uiso   1.00
C676   C     0.52509   0.80483   0.40840   0.00000  Uiso   1.00
C677   C     0.47158   0.86251   0.40482   0.00000  Uiso   1.00
C678   C     0.46868   0.80689   0.09345   0.00000  Uiso   1.00
C679   C     0.49799   0.83359   0.11606   0.00000  Uiso   1.00
C680   C     0.49905   0.83367   0.38402   0.00000  Uiso   1.00
C681   C     0.49504   0.83393   0.02400   0.00000  Uiso   1.00
C682   C     0.49506   0.83243   0.47585   0.00000  Uiso   1.00
C683   C     0.62421   0.83382   0.25160   0.00000  Uiso   1.00
C684   C     0.37574   0.83365   0.24863   0.00000  Uiso   1.00
N685   N     0.50000   0.95240   0.25000   0.00000  Uiso   1.00
N686   N     0.50000   0.71427   0.25000   0.00000  Uiso   1.00
O687   O     0.43892   0.87154   0.25000   0.00000  Uiso   1.00
O688   O     0.56108   0.79513   0.25001   0.00000  Uiso   1.00
O689   O     0.56108   0.87154   0.25001   0.00000  Uiso   1.00
O690   O     0.43892   0.79513   0.25000   0.00000  Uiso   1.00
O691   O     0.50000   0.87155   0.18453   0.00000  Uiso   1.00
O692   O     0.50000   0.79511   0.31547   0.00000  Uiso   1.00
O693   O     0.50000   0.87155   0.31547   0.00000  Uiso   1.00
O694   O     0.50000   0.79511   0.18453   0.00000  Uiso   1.00
Zn695  Zn    0.50000   0.88437   0.25000   0.00000  Uiso   1.00
Zn696  Zn    0.50000   0.78229   0.25000   0.00000  Uiso   1.00
O697   O     0.53897   0.71178   0.31864   0.00000  Uiso   1.00
H698   H     0.54924   0.74024   0.30681   0.00000  Uiso   1.00
O699   O     0.45898   0.95498   0.18236   0.00000  Uiso   1.00
H700   H     0.44903   0.92629   0.19404   0.00000  Uiso   1.00
O701   O     0.46110   0.71142   0.18131   0.00000  Uiso   1.00
H702   H     0.45071   0.73981   0.19322   0.00000  Uiso   1.00
O703   O     0.54116   0.95539   0.31752   0.00000  Uiso   1.00
H704   H     0.55087   0.92656   0.30591   0.00000  Uiso   1.00
O705   O     0.55068   0.88991   0.02548   0.00000  Uiso   1.00
H706   H     0.54449   0.89084   0.49310   0.00000  Uiso   1.00
O707   O     0.54834   0.77408   0.47815   0.00000  Uiso   1.00
H708   H     0.54082   0.77213   0.00970   0.00000  Uiso   1.00
O709   O     0.44207   0.89105   0.47097   0.00000  Uiso   1.00
H710   H     0.44125   0.88606   0.00342   0.00000  Uiso   1.00
O711   O     0.43871   0.77887   0.02525   0.00000  Uiso   1.00
H712   H     0.43981   0.78196   0.49258   0.00000  Uiso   1.00
O713   O     0.55268   0.88734   0.11832   0.00000  Uiso   1.00
H714   H     0.56959   0.90574   0.09856   0.00000  Uiso   1.00
O715   O     0.55318   0.77947   0.38574   0.00000  Uiso   1.00
H716   H     0.56997   0.76111   0.40674   0.00000  Uiso   1.00
O717   O     0.44701   0.89024   0.37855   0.00000  Uiso   1.00
H718   H     0.42933   0.90892   0.39723   0.00000  Uiso   1.00
O719   O     0.44117   0.78271   0.11810   0.00000  Uiso   1.00
H720   H     0.42190   0.76584   0.09825   0.00000  Uiso   1.00
O721   O     0.37293   0.75227   0.23918   0.00000  Uiso   1.00
C722   C     0.36127   0.73631   0.19613   0.00000  Uiso   1.00
H723   H     0.38161   0.75119   0.17118   0.00000  Uiso   1.00
H724   H     0.66232   0.74437   0.18575   0.00000  Uiso   1.00
C725   C     0.36517   0.68560   0.19504   0.00000  Uiso   1.00
H726   H     0.34260   0.67060   0.21730   0.00000  Uiso   1.00
H727   H     0.35935   0.67303   0.16059   0.00000  Uiso   1.00
H728   H     0.39601   0.67500   0.20688   0.00000  Uiso   1.00
O729   O     0.62539   0.91519   0.24222   0.00000  Uiso   1.00
C730   C     0.62396   0.92569   0.19634   0.00000  Uiso   1.00
H731   H     0.61225   0.89696   0.17584   0.00000  Uiso   1.00
H732   H     0.65502   0.93462   0.18501   0.00000  Uiso   1.00
C733   C     0.59535   0.96525   0.18814   0.00000  Uiso   1.00
H734   H     0.60337   0.99337   0.21109   0.00000  Uiso   1.00
H735   H     0.59767   0.97694   0.15323   0.00000  Uiso   1.00
H736   H     0.56332   0.95477   0.19356   0.00000  Uiso   1.00
O737   O     0.62673   0.75309   0.26462   0.00000  Uiso   1.00
C738   C     0.63782   0.73987   0.30867   0.00000  Uiso   1.00
H739   H     0.61618   0.75487   0.33224   0.00000  Uiso   1.00
H740   H     0.33612   0.75011   0.31975   0.00000  Uiso   1.00
C741   C     0.63591   0.68913   0.31181   0.00000  Uiso   1.00
H742   H     0.66008   0.67468   0.29131   0.00000  Uiso   1.00
H743   H     0.64088   0.67835   0.34692   0.00000  Uiso   1.00
H744   H     0.60605   0.67626   0.29887   0.00000  Uiso   1.00
O745   O     0.37480   0.91522   0.25689   0.00000  Uiso   1.00
C746   C     0.37563   0.92625   0.30271   0.00000  Uiso   1.00
H747   H     0.38613   0.89747   0.32370   0.00000  Uiso   1.00
H748   H     0.34457   0.93609   0.31324   0.00000  Uiso   1.00
C749   C     0.40513   0.96509   0.31139   0.00000  Uiso   1.00
H750   H     0.39818   0.99331   0.28841   0.00000  Uiso   1.00
H751   H     0.40261   0.97703   0.34623   0.00000  Uiso   1.00
H752   H     0.43698   0.95375   0.30649   0.00000  Uiso   1.00
C753   C     0.75334   0.83335   0.24925   0.00000  Uiso   1.00
C754   C     0.91331   0.83343   0.25086   0.00000  Uiso   1.00
C755   C     0.83294   0.83334   0.16409   0.00000  Uiso   1.00
C756   C     0.83349   0.83342   0.33596   0.00000  Uiso   1.00
C757   C     0.85221   0.69045   0.28392   0.00000  Uiso   1.00
C758   C     0.81392   0.97617   0.21633   0.00000  Uiso   1.00
C759   C     0.81454   0.69027   0.21602   0.00000  Uiso   1.00
C760   C     0.85283   0.97637   0.28361   0.00000  Uiso   1.00
C761   C     0.68723   0.79301   0.24628   0.00000  Uiso   1.00
C762   C     0.97887   0.87468   0.24757   0.00000  Uiso   1.00
C763   C     0.97922   0.79330   0.25543   0.00000  Uiso   1.00
C764   C     0.68787   0.87468   0.25159   0.00000  Uiso   1.00
C765   C     0.85687   0.86214   0.04700   0.00000  Uiso   1.00
C766   C     0.85608   0.80338   0.45479   0.00000  Uiso   1.00
C767   C     0.80263   0.86204   0.45121   0.00000  Uiso   1.00
C768   C     0.80060   0.80644   0.04687   0.00000  Uiso   1.00
C769   C     0.85832   0.86153   0.09356   0.00000  Uiso   1.00
C770   C     0.85842   0.80483   0.40840   0.00000  Uiso   1.00
C771   C     0.80491   0.86251   0.40482   0.00000  Uiso   1.00
C772   C     0.80201   0.80689   0.09345   0.00000  Uiso   1.00
C773   C     0.83133   0.83359   0.11606   0.00000  Uiso   1.00
C774   C     0.83238   0.83367   0.38402   0.00000  Uiso   1.00
C775   C     0.82837   0.83393   0.02400   0.00000  Uiso   1.00
C776   C     0.82840   0.83243   0.47585   0.00000  Uiso   1.00
C777   C     0.95755   0.83382   0.25160   0.00000  Uiso   1.00
C778   C     0.70907   0.83365   0.24863   0.00000  Uiso   1.00
N779   N     0.83333   0.95240   0.25000   0.00000  Uiso   1.00
N780   N     0.83333   0.71427   0.25000   0.00000  Uiso   1.00
O781   O     0.77226   0.87154   0.25000   0.00000  Uiso   1.00
O782   O     0.89441   0.79513   0.25001   0.00000  Uiso   1.00
O783   O     0.89441   0.87154   0.25001   0.00000  Uiso   1.00
O784   O     0.77226   0.79513   0.25000   0.00000  Uiso   1.00
O785   O     0.83333   0.87155   0.18453   0.00000  Uiso   1.00
O786   O     0.83334   0.79511   0.31547   0.00000  Uiso   1.00
O787   O     0.83334   0.87155   0.31547   0.00000  Uiso   1.00
O788   O     0.83333   0.79511   0.18453   0.00000  Uiso   1.00
Zn789  Zn    0.83333   0.88437   0.25000   0.00000  Uiso   1.00
Zn790  Zn    0.83333   0.78229   0.25000   0.00000  Uiso   1.00
O791   O     0.87230   0.71178   0.31864   0.00000  Uiso   1.00
H792   H     0.88257   0.74024   0.30681   0.00000  Uiso   1.00
O793   O     0.79232   0.95498   0.18236   0.00000  Uiso   1.00
H794   H     0.78236   0.92629   0.19404   0.00000  Uiso   1.00
O795   O     0.79444   0.71142   0.18131   0.00000  Uiso   1.00
H796   H     0.78404   0.73981   0.19322   0.00000  Uiso   1.00
O797   O     0.87450   0.95539   0.31752   0.00000  Uiso   1.00
H798   H     0.88420   0.92656   0.30591   0.00000  Uiso   1.00
O799   O     0.88401   0.88991   0.02548   0.00000  Uiso   1.00
H800   H     0.87783   0.89084   0.49310   0.00000  Uiso   1.00
O801   O     0.88168   0.77408   0.47815   0.00000  Uiso   1.00
H802   H     0.87416   0.77213   0.00970   0.00000  Uiso   1.00
O803   O     0.77540   0.89105   0.47097   0.00000  Uiso   1.00
H804   H     0.77458   0.88606   0.00342   0.00000  Uiso   1.00
O805   O     0.77204   0.77887   0.02525   0.00000  Uiso   1.00
H806   H     0.77314   0.78196   0.49258   0.00000  Uiso   1.00
O807   O     0.88601   0.88734   0.11832   0.00000  Uiso   1.00
H808   H     0.90292   0.90574   0.09856   0.00000  Uiso   1.00
O809   O     0.88652   0.77947   0.38574   0.00000  Uiso   1.00
H810   H     0.90330   0.76111   0.40674   0.00000  Uiso   1.00
O811   O     0.78035   0.89024   0.37855   0.00000  Uiso   1.00
H812   H     0.76266   0.90892   0.39723   0.00000  Uiso   1.00
O813   O     0.77451   0.78271   0.11810   0.00000  Uiso   1.00
H814   H     0.75524   0.76584   0.09825   0.00000  Uiso   1.00
O815   O     0.70626   0.75227   0.23918   0.00000  Uiso   1.00
C816   C     0.69460   0.73631   0.19613   0.00000  Uiso   1.00
H817   H     0.71495   0.75119   0.17118   0.00000  Uiso   1.00
H818   H     0.99565   0.74437   0.18575   0.00000  Uiso   1.00
C819   C     0.69850   0.68560   0.19504   0.00000  Uiso   1.00
H820   H     0.67593   0.67060   0.21730   0.00000  Uiso   1.00
H821   H     0.69268   0.67303   0.16059   0.00000  Uiso   1.00
H822   H     0.72935   0.67500   0.20688   0.00000  Uiso   1.00
O823   O     0.95872   0.91519   0.24222   0.00000  Uiso   1.00
C824   C     0.95729   0.92569   0.19634   0.00000  Uiso   1.00
H825   H     0.94558   0.89696   0.17584   0.00000  Uiso   1.00
H826   H     0.98836   0.93462   0.18501   0.00000  Uiso   1.00
C827   C     0.92869   0.96525   0.18814   0.00000  Uiso   1.00
H828   H     0.93670   0.99337   0.21109   0.00000  Uiso   1.00
H829   H     0.93100   0.97694   0.15323   0.00000  Uiso   1.00
H830   H     0.89665   0.95477   0.19356   0.00000  Uiso   1.00
O831   O     0.96007   0.75309   0.26462   0.00000  Uiso   1.00
C832   C     0.97115   0.73987   0.30867   0.00000  Uiso   1.00
H833   H     0.94951   0.75487   0.33224   0.00000  Uiso   1.00
H834   H     0.66945   0.75011   0.31975   0.00000  Uiso   1.00
C835   C     0.96924   0.68913   0.31181   0.00000  Uiso   1.00
H836   H     0.99341   0.67468   0.29131   0.00000  Uiso   1.00
H837   H     0.97422   0.67835   0.34692   0.00000  Uiso   1.00
H838   H     0.93939   0.67626   0.29887   0.00000  Uiso   1.00
O839   O     0.70813   0.91522   0.25689   0.00000  Uiso   1.00
C840   C     0.70897   0.92625   0.30271   0.00000  Uiso   1.00
H841   H     0.71946   0.89747   0.32370   0.00000  Uiso   1.00
H842   H     0.67790   0.93609   0.31324   0.00000  Uiso   1.00
C843   C     0.73847   0.96509   0.31139   0.00000  Uiso   1.00
H844   H     0.73151   0.99331   0.28841   0.00000  Uiso   1.00
H845   H     0.73594   0.97703   0.34623   0.00000  Uiso   1.00
H846   H     0.77032   0.95375   0.30649   0.00000  Uiso   1.00
C847   C     0.08667   0.16669   0.74925   0.00000  Uiso   1.00
C848   C     0.24664   0.16676   0.75086   0.00000  Uiso   1.00
C849   C     0.16628   0.16668   0.66409   0.00000  Uiso   1.00
C850   C     0.16682   0.16675   0.83596   0.00000  Uiso   1.00
C851   C     0.18554   0.02378   0.78392   0.00000  Uiso   1.00
C852   C     0.14725   0.30950   0.71633   0.00000  Uiso   1.00
C853   C     0.14787   0.02360   0.71602   0.00000  Uiso   1.00
C854   C     0.18617   0.30970   0.78361   0.00000  Uiso   1.00
C855   C     0.02057   0.12634   0.74628   0.00000  Uiso   1.00
C856   C     0.31220   0.20801   0.74757   0.00000  Uiso   1.00
C857   C     0.31256   0.12663   0.75543   0.00000  Uiso   1.00
C858   C     0.02120   0.20801   0.75159   0.00000  Uiso   1.00
C859   C     0.19021   0.19547   0.54700   0.00000  Uiso   1.00
C860   C     0.18941   0.13671   0.95479   0.00000  Uiso   1.00
C861   C     0.13596   0.19537   0.95121   0.00000  Uiso   1.00
C862   C     0.13393   0.13978   0.54687   0.00000  Uiso   1.00
C863   C     0.19165   0.19486   0.59356   0.00000  Uiso   1.00
C864   C     0.19175   0.13816   0.90840   0.00000  Uiso   1.00
C865   C     0.13825   0.19585   0.90482   0.00000  Uiso   1.00
C866   C     0.13535   0.14022   0.59345   0.00000  Uiso   1.00
C867   C     0.16466   0.16692   0.61606   0.00000  Uiso   1.00
C868   C     0.16571   0.16701   0.88402   0.00000  Uiso   1.00
C869   C     0.16170   0.16727   0.52400   0.00000  Uiso   1.00
C870   C     0.16173   0.16576   0.97585   0.00000  Uiso   1.00
C871   C     0.29088   0.16715   0.75160   0.00000  Uiso   1.00
C872   C     0.04241   0.16698   0.74863   0.00000  Uiso   1.00
N873   N     0.16667   0.28573   0.75000   0.00000  Uiso   1.00
N874   N     0.16667   0.04760   0.75000   0.00000  Uiso   1.00
O875   O     0.10559   0.20487   0.75000   0.00000  Uiso   1.00
O876   O     0.22774   0.12846   0.75001   0.00000  Uiso   1.00
O877   O     0.22774   0.20487   0.75001   0.00000  Uiso   1.00
O878   O     0.10559   0.12846   0.75000   0.00000  Uiso   1.00
O879   O     0.16666   0.20489   0.68453   0.00000  Uiso   1.00
O880   O     0.16667   0.12845   0.81547   0.00000  Uiso   1.00
O881   O     0.16667   0.20489   0.81547   0.00000  Uiso   1.00
O882   O     0.16666   0.12845   0.68453   0.00000  Uiso   1.00
Zn883  Zn    0.16667   0.21771   0.75000   0.00000  Uiso   1.00
Zn884  Zn    0.16667   0.11563   0.75000   0.00000  Uiso   1.00
O885   O     0.20564   0.04511   0.81864   0.00000  Uiso   1.00
H886   H     0.21590   0.07357   0.80681   0.00000  Uiso   1.00
O887   O     0.12565   0.28831   0.68236   0.00000  Uiso   1.00
H888   H     0.11569   0.25962   0.69404   0.00000  Uiso   1.00
O889   O     0.12777   0.04475   0.68131   0.00000  Uiso   1.00
H890   H     0.11738   0.07314   0.69322   0.00000  Uiso   1.00
O891   O     0.20783   0.28872   0.81752   0.00000  Uiso   1.00
H892   H     0.21754   0.25989   0.80591   0.00000  Uiso   1.00
O893   O     0.21735   0.22325   0.52548   0.00000  Uiso   1.00
H894   H     0.21116   0.22417   0.99310   0.00000  Uiso   1.00
O895   O     0.21501   0.10742   0.97815   0.00000  Uiso   1.00
H896   H     0.20749   0.10547   0.50970   0.00000  Uiso   1.00
O897   O     0.10873   0.22438   0.97097   0.00000  Uiso   1.00
H898   H     0.10792   0.21939   0.50342   0.00000  Uiso   1.00
O899   O     0.10537   0.11221   0.52525   0.00000  Uiso   1.00
H900   H     0.10648   0.11529   0.99258   0.00000  Uiso   1.00
O901   O     0.21935   0.22068   0.61832   0.00000  Uiso   1.00
H902   H     0.23625   0.23908   0.59856   0.00000  Uiso   1.00
O903   O     0.21985   0.11280   0.88574   0.00000  Uiso   1.00
H904   H     0.23663   0.09445   0.90674   0.00000  Uiso   1.00
O905   O     0.11368   0.22357   0.87855   0.00000  Uiso   1.00
H906   H     0.09600   0.24226   0.89723   0.00000  Uiso   1.00
O907   O     0.10784   0.11605   0.61810   0.00000  Uiso   1.00
H908   H     0.08857   0.09917   0.59825   0.00000  Uiso   1.00
O909   O     0.03960   0.08560   0.73918   0.00000  Uiso   1.00
C910   C     0.02793   0.06964   0.69613   0.00000  Uiso   1.00
H911   H     0.04828   0.08452   0.67118   0.00000  Uiso   1.00
H912   H     0.32899   0.07771   0.68575   0.00000  Uiso   1.00
C913   C     0.03184   0.01894   0.69504   0.00000  Uiso   1.00
H914   H     0.00926   0.00394   0.71730   0.00000  Uiso   1.00
H915   H     0.02602   0.00637   0.66059   0.00000  Uiso   1.00
H916   H     0.06268   0.00833   0.70688   0.00000  Uiso   1.00
O917   O     0.29206   0.24852   0.74222   0.00000  Uiso   1.00
C918   C     0.29063   0.25902   0.69634   0.00000  Uiso   1.00
H919   H     0.27892   0.23029   0.67584   0.00000  Uiso   1.00
H920   H     0.32169   0.26796   0.68501   0.00000  Uiso   1.00
C921   C     0.26202   0.29858   0.68814   0.00000  Uiso   1.00
H922   H     0.27003   0.32670   0.71109   0.00000  Uiso   1.00
H923   H     0.26434   0.31028   0.65323   0.00000  Uiso   1.00
H924   H     0.22998   0.28810   0.69356   0.00000  Uiso   1.00
O925   O     0.29340   0.08642   0.76462   0.00000  Uiso   1.00
C926   C     0.30448   0.07321   0.80867   0.00000  Uiso   1.00
H927   H     0.28284   0.08820   0.83224   0.00000  Uiso   1.00
H928   H     0.00278   0.08345   0.81975   0.00000  Uiso   1.00
C929   C     0.30258   0.02246   0.81181   0.00000  Uiso   1.00
H930   H     0.32675   0.00801   0.79131   0.00000  Uiso   1.00
H931   H     0.30755   0.01168   0.84692   0.00000  Uiso   1.00
H932   H     0.27272   0.00960   0.79887   0.00000  Uiso   1.00
O933   O     0.04146   0.24856   0.75689   0.00000  Uiso   1.00
C934   C     0.04230   0.25959   0.80271   0.00000  Uiso   1.00
H935   H     0.05280   0.23081   0.82370   0.00000  Uiso   1.00
H936   H     0.01124   0.26942   0.81324   0.00000  Uiso   1.00
C937   C     0.07180   0.29842   0.81139   0.00000  Uiso   1.00
H938   H     0.06484   0.32665   0.78841   0.00000  Uiso   1.00
H939   H     0.06928   0.31037   0.84623   0.00000  Uiso   1.00
H940   H     0.10365   0.28709   0.80649   0.00000  Uiso   1.00
C941   C     0.42000   0.16669   0.74925   0.00000  Uiso   1.00
C942   C     0.57998   0.16676   0.75086   0.00000  Uiso   1.00
C943   C     0.49961   0.16668   0.66409   0.00000  Uiso   1.00
C944   C     0.50015   0.16675   0.83596   0.00000  Uiso   1.00
C945   C     0.51888   0.02378   0.78392   0.00000  Uiso   1.00
C946   C     0.48058   0.30950   0.71633   0.00000  Uiso   1.00
C947   C     0.48121   0.02360   0.71602   0.00000  Uiso   1.00
C948   C     0.51950   0.30970   0.78361   0.00000  Uiso   1.00
C949   C     0.35390   0.12634   0.74628   0.00000  Uiso   1.00
C950   C     0.64553   0.20801   0.74757   0.00000  Uiso   1.00
C951   C     0.64589   0.12663   0.75543   0.00000  Uiso   1.00
C952   C     0.35454   0.20801   0.75159   0.00000  Uiso   1.00
C953   C     0.52354   0.19547   0.54700   0.00000  Uiso   1.00
C954   C     0.52275   0.13671   0.95479   0.00000  Uiso   1.00
C955   C     0.46930   0.19537   0.95121   0.00000  Uiso   1.00
C956   C     0.46726   0.13978   0.54687   0.00000  Uiso   1.00
C957   C     0.52499   0.19486   0.59356   0.00000  Uiso   1.00
C958   C     0.52509   0.13816   0.90840   0.00000  Uiso   1.00
C959   C     0.47158   0.19585   0.90482   0.00000  Uiso   1.00
C960   C     0.46868   0.14022   0.59345   0.00000  Uiso   1.00
C961   C     0.49799   0.16692   0.61606   0.00000  Uiso   1.00
C962   C     0.49905   0.16701   0.88402   0.00000  Uiso   1.00
C963   C     0.49504   0.16727   0.52400   0.00000  Uiso   1.00
C964   C     0.49506   0.16576   0.97585   0.00000  Uiso   1.00
C965   C     0.62421   0.16715   0.75160   0.00000  Uiso   1.00
C966   C     0.37574   0.16698   0.74863   0.00000  Uiso   1.00
N967   N     0.50000   0.28573   0.75000   0.00000  Uiso   1.00
N968   N     0.50000   0.04760   0.75000   0.00000  Uiso   1.00
O969   O     0.43892   0.20487   0.75000   0.00000  Uiso   1.00
O970   O     0.56108   0.12846   0.75001   0.00000  Uiso   1.00
O971   O     0.56108   0.20487   0.75001   0.00000  Uiso   1.00
O972   O     0.43892   0.12846   0.75000   0.00000  Uiso   1.00
O973   O     0.50000   0.20489   0.68453   0.00000  Uiso   1.00
O974   O     0.50000   0.12845   0.81547   0.00000  Uiso   1.00
O975   O     0.50000   0.20489   0.81547   0.00000  Uiso   1.00
O976   O     0.50000   0.12845   0.68453   0.00000  Uiso   1.00
Zn977  Zn    0.50000   0.21771   0.75000   0.00000  Uiso   1.00
Zn978  Zn    0.50000   0.11563   0.75000   0.00000  Uiso   1.00
O979   O     0.53897   0.04511   0.81864   0.00000  Uiso   1.00
H980   H     0.54924   0.07357   0.80681   0.00000  Uiso   1.00
O981   O     0.45898   0.28831   0.68236   0.00000  Uiso   1.00
H982   H     0.44903   0.25962   0.69404   0.00000  Uiso   1.00
O983   O     0.46110   0.04475   0.68131   0.00000  Uiso   1.00
H984   H     0.45071   0.07314   0.69322   0.00000  Uiso   1.00
O985   O     0.54116   0.28872   0.81752   0.00000  Uiso   1.00
H986   H     0.55087   0.25989   0.80591   0.00000  Uiso   1.00
O987   O     0.55068   0.22325   0.52548   0.00000  Uiso   1.00
H988   H     0.54449   0.22417   0.99310   0.00000  Uiso   1.00
O989   O     0.54834   0.10742   0.97815   0.00000  Uiso   1.00
H990   H     0.54082   0.10547   0.50970   0.00000  Uiso   1.00
O991   O     0.44207   0.22438   0.97097   0.00000  Uiso   1.00
H992   H     0.44125   0.21939   0.50342   0.00000  Uiso   1.00
O993   O     0.43871   0.11221   0.52525   0.00000  Uiso   1.00
H994   H     0.43981   0.11529   0.99258   0.00000  Uiso   1.00
O995   O     0.55268   0.22068   0.61832   0.00000  Uiso   1.00
H996   H     0.56959   0.23908   0.59856   0.00000  Uiso   1.00
O997   O     0.55318   0.11280   0.88574   0.00000  Uiso   1.00
H998   H     0.56997   0.09445   0.90674   0.00000  Uiso   1.00
O999   O     0.44701   0.22357   0.87855   0.00000  Uiso   1.00
H1000  H     0.42933   0.24226   0.89723   0.00000  Uiso   1.00
O1001  O     0.44117   0.11605   0.61810   0.00000  Uiso   1.00
H1002  H     0.42190   0.09917   0.59825   0.00000  Uiso   1.00
O1003  O     0.37293   0.08560   0.73918   0.00000  Uiso   1.00
C1004  C     0.36127   0.06964   0.69613   0.00000  Uiso   1.00
H1005  H     0.38161   0.08452   0.67118   0.00000  Uiso   1.00
H1006  H     0.66232   0.07771   0.68575   0.00000  Uiso   1.00
C1007  C     0.36517   0.01894   0.69504   0.00000  Uiso   1.00
H1008  H     0.34260   0.00394   0.71730   0.00000  Uiso   1.00
H1009  H     0.35935   0.00637   0.66059   0.00000  Uiso   1.00
H1010  H     0.39601   0.00833   0.70688   0.00000  Uiso   1.00
O1011  O     0.62539   0.24852   0.74222   0.00000  Uiso   1.00
C1012  C     0.62396   0.25902   0.69634   0.00000  Uiso   1.00
H1013  H     0.61225   0.23029   0.67584   0.00000  Uiso   1.00
H1014  H     0.65502   0.26796   0.68501   0.00000  Uiso   1.00
C1015  C     0.59535   0.29858   0.68814   0.00000  Uiso   1.00
H1016  H     0.60337   0.32670   0.71109   0.00000  Uiso   1.00
H1017  H     0.59767   0.31028   0.65323   0.00000  Uiso   1.00
H1018  H     0.56332   0.28810   0.69356   0.00000  Uiso   1.00
O1019  O     0.62673   0.08642   0.76462   0.00000  Uiso   1.00
C1020  C     0.63782   0.07321   0.80867   0.00000  Uiso   1.00
H1021  H     0.61618   0.08820   0.83224   0.00000  Uiso   1.00
H1022  H     0.33612   0.08345   0.81975   0.00000  Uiso   1.00
C1023  C     0.63591   0.02246   0.81181   0.00000  Uiso   1.00
H1024  H     0.66008   0.00801   0.79131   0.00000  Uiso   1.00
H1025  H     0.64088   0.01168   0.84692   0.00000  Uiso   1.00
H1026  H     0.60605   0.00960   0.79887   0.00000  Uiso   1.00
O1027  O     0.37480   0.24856   0.75689   0.00000  Uiso   1.00
C1028  C     0.37563   0.25959   0.80271   0.00000  Uiso   1.00
H1029  H     0.38613   0.23081   0.82370   0.00000  Uiso   1.00
H1030  H     0.34457   0.26942   0.81324   0.00000  Uiso   1.00
C1031  C     0.40513   0.29842   0.81139   0.00000  Uiso   1.00
H1032  H     0.39818   0.32665   0.78841   0.00000  Uiso   1.00
H1033  H     0.40261   0.31037   0.84623   0.00000  Uiso   1.00
H1034  H     0.43698   0.28709   0.80649   0.00000  Uiso   1.00
C1035  C     0.75334   0.16669   0.74925   0.00000  Uiso   1.00
C1036  C     0.91331   0.16676   0.75086   0.00000  Uiso   1.00
C1037  C     0.83294   0.16668   0.66409   0.00000  Uiso   1.00
C1038  C     0.83349   0.16675   0.83596   0.00000  Uiso   1.00
C1039  C     0.85221   0.02378   0.78392   0.00000  Uiso   1.00
C1040  C     0.81392   0.30950   0.71633   0.00000  Uiso   1.00
C1041  C     0.81454   0.02360   0.71602   0.00000  Uiso   1.00
C1042  C     0.85283   0.30970   0.78361   0.00000  Uiso   1.00
C1043  C     0.68723   0.12634   0.74628   0.00000  Uiso   1.00
C1044  C     0.97887   0.20801   0.74757   0.00000  Uiso   1.00
C1045  C     0.97922   0.12663   0.75543   0.00000  Uiso   1.00
C1046  C     0.68787   0.20801   0.75159   0.00000  Uiso   1.00
C1047  C     0.85687   0.19547   0.54700   0.00000  Uiso   1.00
C1048  C     0.85608   0.13671   0.95479   0.00000  Uiso   1.00
C1049  C     0.80263   0.19537   0.95121   0.00000  Uiso   1.00
C1050  C     0.80060   0.13978   0.54687   0.00000  Uiso   1.00
C1051  C     0.85832   0.19486   0.59356   0.00000  Uiso   1.00
C1052  C     0.85842   0.13816   0.90840   0.00000  Uiso   1.00
C1053  C     0.80491   0.19585   0.90482   0.00000  Uiso   1.00
C1054  C     0.80201   0.14022   0.59345   0.00000  Uiso   1.00
C1055  C     0.83133   0.16692   0.61606   0.00000  Uiso   1.00
C1056  C     0.83238   0.16701   0.88402   0.00000  Uiso   1.00
C1057  C     0.82837   0.16727   0.52400   0.00000  Uiso   1.00
C1058  C     0.82840   0.16576   0.97585   0.00000  Uiso   1.00
C1059  C     0.95755   0.16715   0.75160   0.00000  Uiso   1.00
C1060  C     0.70907   0.16698   0.74863   0.00000  Uiso   1.00
N1061  N     0.83333   0.28573   0.75000   0.00000  Uiso   1.00
N1062  N     0.83333   0.04760   0.75000   0.00000  Uiso   1.00
O1063  O     0.77226   0.20487   0.75000   0.00000  Uiso   1.00
O1064  O     0.89441   0.12846   0.75001   0.00000  Uiso   1.00
O1065  O     0.89441   0.20487   0.75001   0.00000  Uiso   1.00
O1066  O     0.77226   0.12846   0.75000   0.00000  Uiso   1.00
O1067  O     0.83333   0.20489   0.68453   0.00000  Uiso   1.00
O1068  O     0.83334   0.12845   0.81547   0.00000  Uiso   1.00
O1069  O     0.83334   0.20489   0.81547   0.00000  Uiso   1.00
O1070  O     0.83333   0.12845   0.68453   0.00000  Uiso   1.00
Zn1071 Zn    0.83333   0.21771   0.75000   0.00000  Uiso   1.00
Zn1072 Zn    0.83333   0.11563   0.75000   0.00000  Uiso   1.00
O1073  O     0.87230   0.04511   0.81864   0.00000  Uiso   1.00
H1074  H     0.88257   0.07357   0.80681   0.00000  Uiso   1.00
O1075  O     0.79232   0.28831   0.68236   0.00000  Uiso   1.00
H1076  H     0.78236   0.25962   0.69404   0.00000  Uiso   1.00
O1077  O     0.79444   0.04475   0.68131   0.00000  Uiso   1.00
H1078  H     0.78404   0.07314   0.69322   0.00000  Uiso   1.00
O1079  O     0.87450   0.28872   0.81752   0.00000  Uiso   1.00
H1080  H     0.88420   0.25989   0.80591   0.00000  Uiso   1.00
O1081  O     0.88401   0.22325   0.52548   0.00000  Uiso   1.00
H1082  H     0.87783   0.22417   0.99310   0.00000  Uiso   1.00
O1083  O     0.88168   0.10742   0.97815   0.00000  Uiso   1.00
H1084  H     0.87416   0.10547   0.50970   0.00000  Uiso   1.00
O1085  O     0.77540   0.22438   0.97097   0.00000  Uiso   1.00
H1086  H     0.77458   0.21939   0.50342   0.00000  Uiso   1.00
O1087  O     0.77204   0.11221   0.52525   0.00000  Uiso   1.00
H1088  H     0.77314   0.11529   0.99258   0.00000  Uiso   1.00
O1089  O     0.88601   0.22068   0.61832   0.00000  Uiso   1.00
H1090  H     0.90292   0.23908   0.59856   0.00000  Uiso   1.00
O1091  O     0.88652   0.11280   0.88574   0.00000  Uiso   1.00
H1092  H     0.90330   0.09445   0.90674   0.00000  Uiso   1.00
O1093  O     0.78035   0.22357   0.87855   0.00000  Uiso   1.00
H1094  H     0.76266   0.24226   0.89723   0.00000  Uiso   1.00
O1095  O     0.77451   0.11605   0.61810   0.00000  Uiso   1.00
H1096  H     0.75524   0.09917   0.59825   0.00000  Uiso   1.00
O1097  O     0.70626   0.08560   0.73918   0.00000  Uiso   1.00
C1098  C     0.69460   0.06964   0.69613   0.00000  Uiso   1.00
H1099  H     0.71495   0.08452   0.67118   0.00000  Uiso   1.00
H1100  H     0.99565   0.07771   0.68575   0.00000  Uiso   1.00
C1101  C     0.69850   0.01894   0.69504   0.00000  Uiso   1.00
H1102  H     0.67593   0.00394   0.71730   0.00000  Uiso   1.00
H1103  H     0.69268   0.00637   0.66059   0.00000  Uiso   1.00
H1104  H     0.72935   0.00833   0.70688   0.00000  Uiso   1.00
O1105  O     0.95872   0.24852   0.74222   0.00000  Uiso   1.00
C1106  C     0.95729   0.25902   0.69634   0.00000  Uiso   1.00
H1107  H     0.94558   0.23029   0.67584   0.00000  Uiso   1.00
H1108  H     0.98836   0.26796   0.68501   0.00000  Uiso   1.00
C1109  C     0.92869   0.29858   0.68814   0.00000  Uiso   1.00
H1110  H     0.93670   0.32670   0.71109   0.00000  Uiso   1.00
H1111  H     0.93100   0.31028   0.65323   0.00000  Uiso   1.00
H1112  H     0.89665   0.28810   0.69356   0.00000  Uiso   1.00
O1113  O     0.96007   0.08642   0.76462   0.00000  Uiso   1.00
C1114  C     0.97115   0.07321   0.80867   0.00000  Uiso   1.00
H1115  H     0.94951   0.08820   0.83224   0.00000  Uiso   1.00
H1116  H     0.66945   0.08345   0.81975   0.00000  Uiso   1.00
C1117  C     0.96924   0.02246   0.81181   0.00000  Uiso   1.00
H1118  H     0.99341   0.00801   0.79131   0.00000  Uiso   1.00
H1119  H     0.97422   0.01168   0.84692   0.00000  Uiso   1.00
H1120  H     0.93939   0.00960   0.79887   0.00000  Uiso   1.00
O1121  O     0.70813   0.24856   0.75689   0.00000  Uiso   1.00
C1122  C     0.70897   0.25959   0.80271   0.00000  Uiso   1.00
H1123  H     0.71946   0.23081   0.82370   0.00000  Uiso   1.00
H1124  H     0.67790   0.26942   0.81324   0.00000  Uiso   1.00
C1125  C     0.73847   0.29842   0.81139   0.00000  Uiso   1.00
H1126  H     0.73151   0.32665   0.78841   0.00000  Uiso   1.00
H1127  H     0.73594   0.31037   0.84623   0.00000  Uiso   1.00
H1128  H     0.77032   0.28709   0.80649   0.00000  Uiso   1.00
C1129  C     0.08667   0.50002   0.74925   0.00000  Uiso   1.00
C1130  C     0.24664   0.50010   0.75086   0.00000  Uiso   1.00
C1131  C     0.16628   0.50001   0.66409   0.00000  Uiso   1.00
C1132  C     0.16682   0.50008   0.83596   0.00000  Uiso   1.00
C1133  C     0.18554   0.35712   0.78392   0.00000  Uiso   1.00
C1134  C     0.14725   0.64283   0.71633   0.00000  Uiso   1.00
C1135  C     0.14787   0.35693   0.71602   0.00000  Uiso   1.00
C1136  C     0.18617   0.64303   0.78361   0.00000  Uiso   1.00
C1137  C     0.02057   0.45967   0.74628   0.00000  Uiso   1.00
C1138  C     0.31220   0.54135   0.74757   0.00000  Uiso   1.00
C1139  C     0.31256   0.45997   0.75543   0.00000  Uiso   1.00
C1140  C     0.02120   0.54134   0.75159   0.00000  Uiso   1.00
C1141  C     0.19021   0.52881   0.54700   0.00000  Uiso   1.00
C1142  C     0.18941   0.47005   0.95479   0.00000  Uiso   1.00
C1143  C     0.13596   0.52871   0.95121   0.00000  Uiso   1.00
C1144  C     0.13393   0.47311   0.54687   0.00000  Uiso   1.00
C1145  C     0.19165   0.52819   0.59356   0.00000  Uiso   1.00
C1146  C     0.19175   0.47150   0.90840   0.00000  Uiso   1.00
C1147  C     0.13825   0.52918   0.90482   0.00000  Uiso   1.00
C1148  C     0.13535   0.47356   0.59345   0.00000  Uiso   1.00
C1149  C     0.16466   0.50025   0.61606   0.00000  Uiso   1.00
C1150  C     0.16571   0.50034   0.88402   0.00000  Uiso   1.00
C1151  C     0.16170   0.50060   0.52400   0.00000  Uiso   1.00
C1152  C     0.16173   0.49909   0.97585   0.00000  Uiso   1.00
C1153  C     0.29088   0.50049   0.75160   0.00000  Uiso   1.00
C1154  C     0.04241   0.50031   0.74863   0.00000  Uiso   1.00
N1155  N     0.16667   0.61907   0.75000   0.00000  Uiso   1.00
N1156  N     0.16667   0.38093   0.75000   0.00000  Uiso   1.00
O1157  O     0.10559   0.53821   0.75000   0.00000  Uiso   1.00
O1158  O     0.22774   0.46179   0.75001   0.00000  Uiso   1.00
O1159  O     0.22774   0.53821   0.75001   0.00000  Uiso   1.00
O1160  O     0.10559   0.46179   0.75000   0.00000  Uiso   1.00
O1161  O     0.16666   0.53822   0.68453   0.00000  Uiso   1.00
O1162  O     0.16667   0.46178   0.81547   0.00000  Uiso   1.00
O1163  O     0.16667   0.53822   0.81547   0.00000  Uiso   1.00
O1164  O     0.16666   0.46178   0.68453   0.00000  Uiso   1.00
Zn1165 Zn    0.16667   0.55104   0.75000   0.00000  Uiso   1.00
Zn1166 Zn    0.16667   0.44896   0.75000   0.00000  Uiso   1.00
O1167  O     0.20564   0.37844   0.81864   0.00000  Uiso   1.00
H1168  H     0.21590   0.40690   0.80681   0.00000  Uiso   1.00
O1169  O     0.12565   0.62165   0.68236   0.00000  Uiso   1.00
H1170  H     0.11569   0.59296   0.69404   0.00000  Uiso   1.00
O1171  O     0.12777   0.37809   0.68131   0.00000  Uiso   1.00
H1172  H     0.11738   0.40648   0.69322   0.00000  Uiso   1.00
O1173  O     0.20783   0.62206   0.81752   0.00000  Uiso   1.00
H1174  H     0.21754   0.59323   0.80591   0.00000  Uiso   1.00
O1175  O     0.21735   0.55658   0.52548   0.00000  Uiso   1.00
H1176  H     0.21116   0.55750   0.99310   0.00000  Uiso   1.00
O1177  O     0.21501   0.44075   0.97815   0.00000  Uiso   1.00
H1178  H     0.20749   0.43880   0.50970   0.00000  Uiso   1.00
O1179  O     0.10873   0.55771   0.97097   0.00000  Uiso   1.00
H1180  H     0.10792   0.55273   0.50342   0.00000  Uiso   1.00
O1181  O     0.10537   0.44554   0.52525   0.00000  Uiso   1.00
H1182  H     0.10648   0.44863   0.99258   0.00000  Uiso   1.00
O1183  O     0.21935   0.55401   0.61832   0.00000  Uiso   1.00
H1184  H     0.23625   0.57241   0.59856   0.00000  Uiso   1.00
O1185  O     0.21985   0.44614   0.88574   0.00000  Uiso   1.00
H1186  H     0.23663   0.42778   0.90674   0.00000  Uiso   1.00
O1187  O     0.11368   0.55690   0.87855   0.00000  Uiso   1.00
H1188  H     0.09600   0.57559   0.89723   0.00000  Uiso   1.00
O1189  O     0.10784   0.44938   0.61810   0.00000  Uiso   1.00
H1190  H     0.08857   0.43251   0.59825   0.00000  Uiso   1.00
O1191  O     0.03960   0.41894   0.73918   0.00000  Uiso   1.00
C1192  C     0.02793   0.40297   0.69613   0.00000  Uiso   1.00
H1193  H     0.04828   0.41785   0.67118   0.00000  Uiso   1.00
H1194  H     0.32899   0.41104   0.68575   0.00000  Uiso   1.00
C1195  C     0.03184   0.35227   0.69504   0.00000  Uiso   1.00
H1196  H     0.00926   0.33727   0.71730   0.00000  Uiso   1.00
H1197  H     0.02602   0.33970   0.66059   0.00000  Uiso   1.00
H1198  H     0.06268   0.34166   0.70688   0.00000  Uiso   1.00
O1199  O     0.29206   0.58185   0.74222   0.00000  Uiso   1.00
C1200  C     0.29063   0.59236   0.69634   0.00000  Uiso   1.00
H1201  H     0.27892   0.56363   0.67584   0.00000  Uiso   1.00
H1202  H     0.32169   0.60129   0.68501   0.00000  Uiso   1.00
C1203  C     0.26202   0.63192   0.68814   0.00000  Uiso   1.00
H1204  H     0.27003   0.66003   0.71109   0.00000  Uiso   1.00
H1205  H     0.26434   0.64361   0.65323   0.00000  Uiso   1.00
H1206  H     0.22998   0.62143   0.69356   0.00000  Uiso   1.00
O1207  O     0.29340   0.41975   0.76462   0.00000  Uiso   1.00
C1208  C     0.30448   0.40654   0.80867   0.00000  Uiso   1.00
H1209  H     0.28284   0.42153   0.83224   0.00000  Uiso   1.00
H1210  H     0.00278   0.41678   0.81975   0.00000  Uiso   1.00
C1211  C     0.30258   0.35580   0.81181   0.00000  Uiso   1.00
H1212  H     0.32675   0.34134   0.79131   0.00000  Uiso   1.00
H1213  H     0.30755   0.34501   0.84692   0.00000  Uiso   1.00
H1214  H     0.27272   0.34293   0.79887   0.00000  Uiso   1.00
O1215  O     0.04146   0.58189   0.75689   0.00000  Uiso   1.00
C1216  C     0.04230   0.59292   0.80271   0.00000  Uiso   1.00
H1217  H     0.05280   0.56414   0.82370   0.00000  Uiso   1.00
H1218  H     0.01124   0.60276   0.81324   0.00000  Uiso   1.00
C1219  C     0.07180   0.63175   0.81139   0.00000  Uiso   1.00
H1220  H     0.06484   0.65998   0.78841   0.00000  Uiso   1.00
H1221  H     0.06928   0.64370   0.84623   0.00000  Uiso   1.00
H1222  H     0.10365   0.62042   0.80649   0.00000  Uiso   1.00
C1223  C     0.42000   0.50002   0.74925   0.00000  Uiso   1.00
C1224  C     0.57998   0.50010   0.75086   0.00000  Uiso   1.00
C1225  C     0.49961   0.50001   0.66409   0.00000  Uiso   1.00
C1226  C     0.50015   0.50008   0.83596   0.00000  Uiso   1.00
C1227  C     0.51888   0.35712   0.78392   0.00000  Uiso   1.00
C1228  C     0.48058   0.64283   0.71633   0.00000  Uiso   1.00
C1229  C     0.48121   0.35693   0.71602   0.00000  Uiso   1.00
C1230  C     0.51950   0.64303   0.78361   0.00000  Uiso   1.00
C1231  C     0.35390   0.45967   0.74628   0.00000  Uiso   1.00
C1232  C     0.64553   0.54135   0.74757   0.00000  Uiso   1.00
C1233  C     0.64589   0.45997   0.75543   0.00000  Uiso   1.00
C1234  C     0.35454   0.54134   0.75159   0.00000  Uiso   1.00
C1235  C     0.52354   0.52881   0.54700   0.00000  Uiso   1.00
C1236  C     0.52275   0.47005   0.95479   0.00000  Uiso   1.00
C1237  C     0.46930   0.52871   0.95121   0.00000  Uiso   1.00
C1238  C     0.46726   0.47311   0.54687   0.00000  Uiso   1.00
C1239  C     0.52499   0.52819   0.59356   0.00000  Uiso   1.00
C1240  C     0.52509   0.47150   0.90840   0.00000  Uiso   1.00
C1241  C     0.47158   0.52918   0.90482   0.00000  Uiso   1.00
C1242  C     0.46868   0.47356   0.59345   0.00000  Uiso   1.00
C1243  C     0.49799   0.50025   0.61606   0.00000  Uiso   1.00
C1244  C     0.49905   0.50034   0.88402   0.00000  Uiso   1.00
C1245  C     0.49504   0.50060   0.52400   0.00000  Uiso   1.00
C1246  C     0.49506   0.49909   0.97585   0.00000  Uiso   1.00
C1247  C     0.62421   0.50049   0.75160   0.00000  Uiso   1.00
C1248  C     0.37574   0.50031   0.74863   0.00000  Uiso   1.00
N1249  N     0.50000   0.61907   0.75000   0.00000  Uiso   1.00
N1250  N     0.50000   0.38093   0.75000   0.00000  Uiso   1.00
O1251  O     0.43892   0.53821   0.75000   0.00000  Uiso   1.00
O1252  O     0.56108   0.46179   0.75001   0.00000  Uiso   1.00
O1253  O     0.56108   0.53821   0.75001   0.00000  Uiso   1.00
O1254  O     0.43892   0.46179   0.75000   0.00000  Uiso   1.00
O1255  O     0.50000   0.53822   0.68453   0.00000  Uiso   1.00
O1256  O     0.50000   0.46178   0.81547   0.00000  Uiso   1.00
O1257  O     0.50000   0.53822   0.81547   0.00000  Uiso   1.00
O1258  O     0.50000   0.46178   0.68453   0.00000  Uiso   1.00
Zn1259 Zn    0.50000   0.55104   0.75000   0.00000  Uiso   1.00
Zn1260 Zn    0.50000   0.44896   0.75000   0.00000  Uiso   1.00
O1261  O     0.53897   0.37844   0.81864   0.00000  Uiso   1.00
H1262  H     0.54924   0.40690   0.80681   0.00000  Uiso   1.00
O1263  O     0.45898   0.62165   0.68236   0.00000  Uiso   1.00
H1264  H     0.44903   0.59296   0.69404   0.00000  Uiso   1.00
O1265  O     0.46110   0.37809   0.68131   0.00000  Uiso   1.00
H1266  H     0.45071   0.40648   0.69322   0.00000  Uiso   1.00
O1267  O     0.54116   0.62206   0.81752   0.00000  Uiso   1.00
H1268  H     0.55087   0.59323   0.80591   0.00000  Uiso   1.00
O1269  O     0.55068   0.55658   0.52548   0.00000  Uiso   1.00
H1270  H     0.54449   0.55750   0.99310   0.00000  Uiso   1.00
O1271  O     0.54834   0.44075   0.97815   0.00000  Uiso   1.00
H1272  H     0.54082   0.43880   0.50970   0.00000  Uiso   1.00
O1273  O     0.44207   0.55771   0.97097   0.00000  Uiso   1.00
H1274  H     0.44125   0.55273   0.50342   0.00000  Uiso   1.00
O1275  O     0.43871   0.44554   0.52525   0.00000  Uiso   1.00
H1276  H     0.43981   0.44863   0.99258   0.00000  Uiso   1.00
O1277  O     0.55268   0.55401   0.61832   0.00000  Uiso   1.00
H1278  H     0.56959   0.57241   0.59856   0.00000  Uiso   1.00
O1279  O     0.55318   0.44614   0.88574   0.00000  Uiso   1.00
H1280  H     0.56997   0.42778   0.90674   0.00000  Uiso   1.00
O1281  O     0.44701   0.55690   0.87855   0.00000  Uiso   1.00
H1282  H     0.42933   0.57559   0.89723   0.00000  Uiso   1.00
O1283  O     0.44117   0.44938   0.61810   0.00000  Uiso   1.00
H1284  H     0.42190   0.43251   0.59825   0.00000  Uiso   1.00
O1285  O     0.37293   0.41894   0.73918   0.00000  Uiso   1.00
C1286  C     0.36127   0.40297   0.69613   0.00000  Uiso   1.00
H1287  H     0.38161   0.41785   0.67118   0.00000  Uiso   1.00
H1288  H     0.66232   0.41104   0.68575   0.00000  Uiso   1.00
C1289  C     0.36517   0.35227   0.69504   0.00000  Uiso   1.00
H1290  H     0.34260   0.33727   0.71730   0.00000  Uiso   1.00
H1291  H     0.35935   0.33970   0.66059   0.00000  Uiso   1.00
H1292  H     0.39601   0.34166   0.70688   0.00000  Uiso   1.00
O1293  O     0.62539   0.58185   0.74222   0.00000  Uiso   1.00
C1294  C     0.62396   0.59236   0.69634   0.00000  Uiso   1.00
H1295  H     0.61225   0.56363   0.67584   0.00000  Uiso   1.00
H1296  H     0.65502   0.60129   0.68501   0.00000  Uiso   1.00
C1297  C     0.59535   0.63192   0.68814   0.00000  Uiso   1.00
H1298  H     0.60337   0.66003   0.71109   0.00000  Uiso   1.00
H1299  H     0.59767   0.64361   0.65323   0.00000  Uiso   1.00
H1300  H     0.56332   0.62143   0.69356   0.00000  Uiso   1.00
O1301  O     0.62673   0.41975   0.76462   0.00000  Uiso   1.00
C1302  C     0.63782   0.40654   0.80867   0.00000  Uiso   1.00
H1303  H     0.61618   0.42153   0.83224   0.00000  Uiso   1.00
H1304  H     0.33612   0.41678   0.81975   0.00000  Uiso   1.00
C1305  C     0.63591   0.35580   0.81181   0.00000  Uiso   1.00
H1306  H     0.66008   0.34134   0.79131   0.00000  Uiso   1.00
H1307  H     0.64088   0.34501   0.84692   0.00000  Uiso   1.00
H1308  H     0.60605   0.34293   0.79887   0.00000  Uiso   1.00
O1309  O     0.37480   0.58189   0.75689   0.00000  Uiso   1.00
C1310  C     0.37563   0.59292   0.80271   0.00000  Uiso   1.00
H1311  H     0.38613   0.56414   0.82370   0.00000  Uiso   1.00
H1312  H     0.34457   0.60276   0.81324   0.00000  Uiso   1.00
C1313  C     0.40513   0.63175   0.81139   0.00000  Uiso   1.00
H1314  H     0.39818   0.65998   0.78841   0.00000  Uiso   1.00
H1315  H     0.40261   0.64370   0.84623   0.00000  Uiso   1.00
H1316  H     0.43698   0.62042   0.80649   0.00000  Uiso   1.00
C1317  C     0.75334   0.50002   0.74925   0.00000  Uiso   1.00
C1318  C     0.91331   0.50010   0.75086   0.00000  Uiso   1.00
C1319  C     0.83294   0.50001   0.66409   0.00000  Uiso   1.00
C1320  C     0.83349   0.50008   0.83596   0.00000  Uiso   1.00
C1321  C     0.85221   0.35712   0.78392   0.00000  Uiso   1.00
C1322  C     0.81392   0.64283   0.71633   0.00000  Uiso   1.00
C1323  C     0.81454   0.35693   0.71602   0.00000  Uiso   1.00
C1324  C     0.85283   0.64303   0.78361   0.00000  Uiso   1.00
C1325  C     0.68723   0.45967   0.74628   0.00000  Uiso   1.00
C1326  C     0.97887   0.54135   0.74757   0.00000  Uiso   1.00
C1327  C     0.97922   0.45997   0.75543   0.00000  Uiso   1.00
C1328  C     0.68787   0.54134   0.75159   0.00000  Uiso   1.00
C1329  C     0.85687   0.52881   0.54700   0.00000  Uiso   1.00
C1330  C     0.85608   0.47005   0.95479   0.00000  Uiso   1.00
C1331  C     0.80263   0.52871   0.95121   0.00000  Uiso   1.00
C1332  C     0.80060   0.47311   0.54687   0.00000  Uiso   1.00
C1333  C     0.85832   0.52819   0.59356   0.00000  Uiso   1.00
C1334  C     0.85842   0.47150   0.90840   0.00000  Uiso   1.00
C1335  C     0.80491   0.52918   0.90482   0.00000  Uiso   1.00
C1336  C     0.80201   0.47356   0.59345   0.00000  Uiso   1.00
C1337  C     0.83133   0.50025   0.61606   0.00000  Uiso   1.00
C1338  C     0.83238   0.50034   0.88402   0.00000  Uiso   1.00
C1339  C     0.82837   0.50060   0.52400   0.00000  Uiso   1.00
C1340  C     0.82840   0.49909   0.97585   0.00000  Uiso   1.00
C1341  C     0.95755   0.50049   0.75160   0.00000  Uiso   1.00
C1342  C     0.70907   0.50031   0.74863   0.00000  Uiso   1.00
N1343  N     0.83333   0.61907   0.75000   0.00000  Uiso   1.00
N1344  N     0.83333   0.38093   0.75000   0.00000  Uiso   1.00
O1345  O     0.77226   0.53821   0.75000   0.00000  Uiso   1.00
O1346  O     0.89441   0.46179   0.75001   0.00000  Uiso   1.00
O1347  O     0.89441   0.53821   0.75001   0.00000  Uiso   1.00
O1348  O     0.77226   0.46179   0.75000   0.00000  Uiso   1.00
O1349  O     0.83333   0.53822   0.68453   0.00000  Uiso   1.00
O1350  O     0.83334   0.46178   0.81547   0.00000  Uiso   1.00
O1351  O     0.83334   0.53822   0.81547   0.00000  Uiso   1.00
O1352  O     0.83333   0.46178   0.68453   0.00000  Uiso   1.00
Zn1353 Zn    0.83333   0.55104   0.75000   0.00000  Uiso   1.00
Zn1354 Zn    0.83333   0.44896   0.75000   0.00000  Uiso   1.00
O1355  O     0.87230   0.37844   0.81864   0.00000  Uiso   1.00
H1356  H     0.88257   0.40690   0.80681   0.00000  Uiso   1.00
O1357  O     0.79232   0.62165   0.68236   0.00000  Uiso   1.00
H1358  H     0.78236   0.59296   0.69404   0.00000  Uiso   1.00
O1359  O     0.79444   0.37809   0.68131   0.00000  Uiso   1.00
H1360  H     0.78404   0.40648   0.69322   0.00000  Uiso   1.00
O1361  O     0.87450   0.62206   0.81752   0.00000  Uiso   1.00
H1362  H     0.88420   0.59323   0.80591   0.00000  Uiso   1.00
O1363  O     0.88401   0.55658   0.52548   0.00000  Uiso   1.00
H1364  H     0.87783   0.55750   0.99310   0.00000  Uiso   1.00
O1365  O     0.88168   0.44075   0.97815   0.00000  Uiso   1.00
H1366  H     0.87416   0.43880   0.50970   0.00000  Uiso   1.00
O1367  O     0.77540   0.55771   0.97097   0.00000  Uiso   1.00
H1368  H     0.77458   0.55273   0.50342   0.00000  Uiso   1.00
O1369  O     0.77204   0.44554   0.52525   0.00000  Uiso   1.00
H1370  H     0.77314   0.44863   0.99258   0.00000  Uiso   1.00
O1371  O     0.88601   0.55401   0.61832   0.00000  Uiso   1.00
H1372  H     0.90292   0.57241   0.59856   0.00000  Uiso   1.00
O1373  O     0.88652   0.44614   0.88574   0.00000  Uiso   1.00
H1374  H     0.90330   0.42778   0.90674   0.00000  Uiso   1.00
O1375  O     0.78035   0.55690   0.87855   0.00000  Uiso   1.00
H1376  H     0.76266   0.57559   0.89723   0.00000  Uiso   1.00
O1377  O     0.77451   0.44938   0.61810   0.00000  Uiso   1.00
H1378  H     0.75524   0.43251   0.59825   0.00000  Uiso   1.00
O1379  O     0.70626   0.41894   0.73918   0.00000  Uiso   1.00
C1380  C     0.69460   0.40297   0.69613   0.00000  Uiso   1.00
H1381  H     0.71495   0.41785   0.67118   0.00000  Uiso   1.00
H1382  H     0.99565   0.41104   0.68575   0.00000  Uiso   1.00
C1383  C     0.69850   0.35227   0.69504   0.00000  Uiso   1.00
H1384  H     0.67593   0.33727   0.71730   0.00000  Uiso   1.00
H1385  H     0.69268   0.33970   0.66059   0.00000  Uiso   1.00
H1386  H     0.72935   0.34166   0.70688   0.00000  Uiso   1.00
O1387  O     0.95872   0.58185   0.74222   0.00000  Uiso   1.00
C1388  C     0.95729   0.59236   0.69634   0.00000  Uiso   1.00
H1389  H     0.94558   0.56363   0.67584   0.00000  Uiso   1.00
H1390  H     0.98836   0.60129   0.68501   0.00000  Uiso   1.00
C1391  C     0.92869   0.63192   0.68814   0.00000  Uiso   1.00
H1392  H     0.93670   0.66003   0.71109   0.00000  Uiso   1.00
H1393  H     0.93100   0.64361   0.65323   0.00000  Uiso   1.00
H1394  H     0.89665   0.62143   0.69356   0.00000  Uiso   1.00
O1395  O     0.96007   0.41975   0.76462   0.00000  Uiso   1.00
C1396  C     0.97115   0.40654   0.80867   0.00000  Uiso   1.00
H1397  H     0.94951   0.42153   0.83224   0.00000  Uiso   1.00
H1398  H     0.66945   0.41678   0.81975   0.00000  Uiso   1.00
C1399  C     0.96924   0.35580   0.81181   0.00000  Uiso   1.00
H1400  H     0.99341   0.34134   0.79131   0.00000  Uiso   1.00
H1401  H     0.97422   0.34501   0.84692   0.00000  Uiso   1.00
H1402  H     0.93939   0.34293   0.79887   0.00000  Uiso   1.00
O1403  O     0.70813   0.58189   0.75689   0.00000  Uiso   1.00
C1404  C     0.70897   0.59292   0.80271   0.00000  Uiso   1.00
H1405  H     0.71946   0.56414   0.82370   0.00000  Uiso   1.00
H1406  H     0.67790   0.60276   0.81324   0.00000  Uiso   1.00
C1407  C     0.73847   0.63175   0.81139   0.00000  Uiso   1.00
H1408  H     0.73151   0.65998   0.78841   0.00000  Uiso   1.00
H1409  H     0.73594   0.64370   0.84623   0.00000  Uiso   1.00
H1410  H     0.77032   0.62042   0.80649   0.00000  Uiso   1.00
C1411  C     0.08667   0.83335   0.74925   0.00000  Uiso   1.00
C1412  C     0.24664   0.83343   0.75086   0.00000  Uiso   1.00
C1413  C     0.16628   0.83334   0.66409   0.00000  Uiso   1.00
C1414  C     0.16682   0.83342   0.83596   0.00000  Uiso   1.00
C1415  C     0.18554   0.69045   0.78392   0.00000  Uiso   1.00
C1416  C     0.14725   0.97617   0.71633   0.00000  Uiso   1.00
C1417  C     0.14787   0.69027   0.71602   0.00000  Uiso   1.00
C1418  C     0.18617   0.97637   0.78361   0.00000  Uiso   1.00
C1419  C     0.02057   0.79301   0.74628   0.00000  Uiso   1.00
C1420  C     0.31220   0.87468   0.74757   0.00000  Uiso   1.00
C1421  C     0.31256   0.79330   0.75543   0.00000  Uiso   1.00
C1422  C     0.02120   0.87468   0.75159   0.00000  Uiso   1.00
C1423  C     0.19021   0.86214   0.54700   0.00000  Uiso   1.00
C1424  C     0.18941   0.80338   0.95479   0.00000  Uiso   1.00
C1425  C     0.13596   0.86204   0.95121   0.00000  Uiso   1.00
C1426  C     0.13393   0.80644   0.54687   0.00000  Uiso   1.00
C1427  C     0.19165   0.86153   0.59356   0.00000  Uiso   1.00
C1428  C     0.19175   0.80483   0.90840   0.00000  Uiso   1.00
C1429  C     0.13825   0.86251   0.90482   0.00000  Uiso   1.00
C1430  C     0.13535   0.80689   0.59345   0.00000  Uiso   1.00
C1431  C     0.16466   0.83359   0.61606   0.00000  Uiso   1.00
C1432  C     0.16571   0.83367   0.88402   0.00000  Uiso   1.00
C1433  C     0.16170   0.83393   0.52400   0.00000  Uiso   1.00
C1434  C     0.16173   0.83243   0.97585   0.00000  Uiso   1.00
C1435  C     0.29088   0.83382   0.75160   0.00000  Uiso   1.00
C1436  C     0.04241   0.83365   0.74863   0.00000  Uiso   1.00
N1437  N     0.16667   0.95240   0.75000   0.00000  Uiso   1.00
N1438  N     0.16667   0.71427   0.75000   0.00000  Uiso   1.00
O1439  O     0.10559   0.87154   0.75000   0.00000  Uiso   1.00
O1440  O     0.22774   0.79513   0.75001   0.00000  Uiso   1.00
O1441  O     0.22774   0.87154   0.75001   0.00000  Uiso   1.00
O1442  O     0.10559   0.79513   0.75000   0.00000  Uiso   1.00
O1443  O     0.16666   0.87155   0.68453   0.00000  Uiso   1.00
O1444  O     0.16667   0.79511   0.81547   0.00000  Uiso   1.00
O1445  O     0.16667   0.87155   0.81547   0.00000  Uiso   1.00
O1446  O     0.16666   0.79511   0.68453   0.00000  Uiso   1.00
Zn1447 Zn    0.16667   0.88437   0.75000   0.00000  Uiso   1.00
Zn1448 Zn    0.16667   0.78229   0.75000   0.00000  Uiso   1.00
O1449  O     0.20564   0.71178   0.81864   0.00000  Uiso   1.00
H1450  H     0.21590   0.74024   0.80681   0.00000  Uiso   1.00
O1451  O     0.12565   0.95498   0.68236   0.00000  Uiso   1.00
H1452  H     0.11569   0.92629   0.69404   0.00000  Uiso   1.00
O1453  O     0.12777   0.71142   0.68131   0.00000  Uiso   1.00
H1454  H     0.11738   0.73981   0.69322   0.00000  Uiso   1.00
O1455  O     0.20783   0.95539   0.81752   0.00000  Uiso   1.00
H1456  H     0.21754   0.92656   0.80591   0.00000  Uiso   1.00
O1457  O     0.21735   0.88991   0.52548   0.00000  Uiso   1.00
H1458  H     0.21116   0.89084   0.99310   0.00000  Uiso   1.00
O1459  O     0.21501   0.77408   0.97815   0.00000  Uiso   1.00
H1460  H     0.20749   0.77213   0.50970   0.00000  Uiso   1.00
O1461  O     0.10873   0.89105   0.97097   0.00000  Uiso   1.00
H1462  H     0.10792   0.88606   0.50342   0.00000  Uiso   1.00
O1463  O     0.10537   0.77887   0.52525   0.00000  Uiso   1.00
H1464  H     0.10648   0.78196   0.99258   0.00000  Uiso   1.00
O1465  O     0.21935   0.88734   0.61832   0.00000  Uiso   1.00
H1466  H     0.23625   0.90574   0.59856   0.00000  Uiso   1.00
O1467  O     0.21985   0.77947   0.88574   0.00000  Uiso   1.00
H1468  H     0.23663   0.76111   0.90674   0.00000  Uiso   1.00
O1469  O     0.11368   0.89024   0.87855   0.00000  Uiso   1.00
H1470  H     0.09600   0.90892   0.89723   0.00000  Uiso   1.00
O1471  O     0.10784   0.78271   0.61810   0.00000  Uiso   1.00
H1472  H     0.08857   0.76584   0.59825   0.00000  Uiso   1.00
O1473  O     0.03960   0.75227   0.73918   0.00000  Uiso   1.00
C1474  C     0.02793   0.73631   0.69613   0.00000  Uiso   1.00
H1475  H     0.04828   0.75119   0.67118   0.00000  Uiso   1.00
H1476  H     0.32899   0.74437   0.68575   0.00000  Uiso   1.00
C1477  C     0.03184   0.68560   0.69504   0.00000  Uiso   1.00
H1478  H     0.00926   0.67060   0.71730   0.00000  Uiso   1.00
H1479  H     0.02602   0.67303   0.66059   0.00000  Uiso   1.00
H1480  H     0.06268   0.67500   0.70688   0.00000  Uiso   1.00
O1481  O     0.29206   0.91519   0.74222   0.00000  Uiso   1.00
C1482  C     0.29063   0.92569   0.69634   0.00000  Uiso   1.00
H1483  H     0.27892   0.89696   0.67584   0.00000  Uiso   1.00
H1484  H     0.32169   0.93462   0.68501   0.00000  Uiso   1.00
C1485  C     0.26202   0.96525   0.68814   0.00000  Uiso   1.00
H1486  H     0.27003   0.99337   0.71109   0.00000  Uiso   1.00
H1487  H     0.26434   0.97694   0.65323   0.00000  Uiso   1.00
H1488  H     0.22998   0.95477   0.69356   0.00000  Uiso   1.00
O1489  O     0.29340   0.75309   0.76462   0.00000  Uiso   1.00
C1490  C     0.30448   0.73987   0.80867   0.00000  Uiso   1.00
H1491  H     0.28284   0.75487   0.83224   0.00000  Uiso   1.00
H1492  H     0.00278   0.75011   0.81975   0.00000  Uiso   1.00
C1493  C     0.30258   0.68913   0.81181   0.00000  Uiso   1.00
H1494  H     0.32675   0.67468   0.79131   0.00000  Uiso   1.00
H1495  H     0.30755   0.67835   0.84692   0.00000  Uiso   1.00
H1496  H     0.27272   0.67626   0.79887   0.00000  Uiso   1.00
O1497  O     0.04146   0.91522   0.75689   0.00000  Uiso   1.00
C1498  C     0.04230   0.92625   0.80271   0.00000  Uiso   1.00
H1499  H     0.05280   0.89747   0.82370   0.00000  Uiso   1.00
H1500  H     0.01124   0.93609   0.81324   0.00000  Uiso   1.00
C1501  C     0.07180   0.96509   0.81139   0.00000  Uiso   1.00
H1502  H     0.06484   0.99331   0.78841   0.00000  Uiso   1.00
H1503  H     0.06928   0.97703   0.84623   0.00000  Uiso   1.00
H1504  H     0.10365   0.95375   0.80649   0.00000  Uiso   1.00
C1505  C     0.42000   0.83335   0.74925   0.00000  Uiso   1.00
C1506  C     0.57998   0.83343   0.75086   0.00000  Uiso   1.00
C1507  C     0.49961   0.83334   0.66409   0.00000  Uiso   1.00
C1508  C     0.50015   0.83342   0.83596   0.00000  Uiso   1.00
C1509  C     0.51888   0.69045   0.78392   0.00000  Uiso   1.00
C1510  C     0.48058   0.97617   0.71633   0.00000  Uiso   1.00
C1511  C     0.48121   0.69027   0.71602   0.00000  Uiso   1.00
C1512  C     0.51950   0.97637   0.78361   0.00000  Uiso   1.00
C1513  C     0.35390   0.79301   0.74628   0.00000  Uiso   1.00
C1514  C     0.64553   0.87468   0.74757   0.00000  Uiso   1.00
C1515  C     0.64589   0.79330   0.75543   0.00000  Uiso   1.00
C1516  C     0.35454   0.87468   0.75159   0.00000  Uiso   1.00
C1517  C     0.52354   0.86214   0.54700   0.00000  Uiso   1.00
C1518  C     0.52275   0.80338   0.95479   0.00000  Uiso   1.00
C1519  C     0.46930   0.86204   0.95121   0.00000  Uiso   1.00
C1520  C     0.46726   0.80644   0.54687   0.00000  Uiso   1.00
C1521  C     0.52499   0.86153   0.59356   0.00000  Uiso   1.00
C1522  C     0.52509   0.80483   0.90840   0.00000  Uiso   1.00
C1523  C     0.47158   0.86251   0.90482   0.00000  Uiso   1.00
C1524  C     0.46868   0.80689   0.59345   0.00000  Uiso   1.00
C1525  C     0.49799   0.83359   0.61606   0.00000  Uiso   1.00
C1526  C     0.49905   0.83367   0.88402   0.00000  Uiso   1.00
C1527  C     0.49504   0.83393   0.52400   0.00000  Uiso   1.00
C1528  C     0.49506   0.83243   0.97585   0.00000  Uiso   1.00
C1529  C     0.62421   0.83382   0.75160   0.00000  Uiso   1.00
C1530  C     0.37574   0.83365   0.74863   0.00000  Uiso   1.00
N1531  N     0.50000   0.95240   0.75000   0.00000  Uiso   1.00
N1532  N     0.50000   0.71427   0.75000   0.00000  Uiso   1.00
O1533  O     0.43892   0.87154   0.75000   0.00000  Uiso   1.00
O1534  O     0.56108   0.79513   0.75001   0.00000  Uiso   1.00
O1535  O     0.56108   0.87154   0.75001   0.00000  Uiso   1.00
O1536  O     0.43892   0.79513   0.75000   0.00000  Uiso   1.00
O1537  O     0.50000   0.87155   0.68453   0.00000  Uiso   1.00
O1538  O     0.50000   0.79511   0.81547   0.00000  Uiso   1.00
O1539  O     0.50000   0.87155   0.81547   0.00000  Uiso   1.00
O1540  O     0.50000   0.79511   0.68453   0.00000  Uiso   1.00
Zn1541 Zn    0.50000   0.88437   0.75000   0.00000  Uiso   1.00
Zn1542 Zn    0.50000   0.78229   0.75000   0.00000  Uiso   1.00
O1543  O     0.53897   0.71178   0.81864   0.00000  Uiso   1.00
H1544  H     0.54924   0.74024   0.80681   0.00000  Uiso   1.00
O1545  O     0.45898   0.95498   0.68236   0.00000  Uiso   1.00
H1546  H     0.44903   0.92629   0.69404   0.00000  Uiso   1.00
O1547  O     0.46110   0.71142   0.68131   0.00000  Uiso   1.00
H1548  H     0.45071   0.73981   0.69322   0.00000  Uiso   1.00
O1549  O     0.54116   0.95539   0.81752   0.00000  Uiso   1.00
H1550  H     0.55087   0.92656   0.80591   0.00000  Uiso   1.00
O1551  O     0.55068   0.88991   0.52548   0.00000  Uiso   1.00
H1552  H     0.54449   0.89084   0.99310   0.00000  Uiso   1.00
O1553  O     0.54834   0.77408   0.97815   0.00000  Uiso   1.00
H1554  H     0.54082   0.77213   0.50970   0.00000  Uiso   1.00
O1555  O     0.44207   0.89105   0.97097   0.00000  Uiso   1.00
H1556  H     0.44125   0.88606   0.50342   0.00000  Uiso   1.00
O1557  O     0.43871   0.77887   0.52525   0.00000  Uiso   1.00
H1558  H     0.43981   0.78196   0.99258   0.00000  Uiso   1.00
O1559  O     0.55268   0.88734   0.61832   0.00000  Uiso   1.00
H1560  H     0.56959   0.90574   0.59856   0.00000  Uiso   1.00
O1561  O     0.55318   0.77947   0.88574   0.00000  Uiso   1.00
H1562  H     0.56997   0.76111   0.90674   0.00000  Uiso   1.00
O1563  O     0.44701   0.89024   0.87855   0.00000  Uiso   1.00
H1564  H     0.42933   0.90892   0.89723   0.00000  Uiso   1.00
O1565  O     0.44117   0.78271   0.61810   0.00000  Uiso   1.00
H1566  H     0.42190   0.76584   0.59825   0.00000  Uiso   1.00
O1567  O     0.37293   0.75227   0.73918   0.00000  Uiso   1.00
C1568  C     0.36127   0.73631   0.69613   0.00000  Uiso   1.00
H1569  H     0.38161   0.75119   0.67118   0.00000  Uiso   1.00
H1570  H     0.66232   0.74437   0.68575   0.00000  Uiso   1.00
C1571  C     0.36517   0.68560   0.69504   0.00000  Uiso   1.00
H1572  H     0.34260   0.67060   0.71730   0.00000  Uiso   1.00
H1573  H     0.35935   0.67303   0.66059   0.00000  Uiso   1.00
H1574  H     0.39601   0.67500   0.70688   0.00000  Uiso   1.00
O1575  O     0.62539   0.91519   0.74222   0.00000  Uiso   1.00
C1576  C     0.62396   0.92569   0.69634   0.00000  Uiso   1.00
H1577  H     0.61225   0.89696   0.67584   0.00000  Uiso   1.00
H1578  H     0.65502   0.93462   0.68501   0.00000  Uiso   1.00
C1579  C     0.59535   0.96525   0.68814   0.00000  Uiso   1.00
H1580  H     0.60337   0.99337   0.71109   0.00000  Uiso   1.00
H1581  H     0.59767   0.97694   0.65323   0.00000  Uiso   1.00
H1582  H     0.56332   0.95477   0.69356   0.00000  Uiso   1.00
O1583  O     0.62673   0.75309   0.76462   0.00000  Uiso   1.00
C1584  C     0.63782   0.73987   0.80867   0.00000  Uiso   1.00
H1585  H     0.61618   0.75487   0.83224   0.00000  Uiso   1.00
H1586  H     0.33612   0.75011   0.81975   0.00000  Uiso   1.00
C1587  C     0.63591   0.68913   0.81181   0.00000  Uiso   1.00
H1588  H     0.66008   0.67468   0.79131   0.00000  Uiso   1.00
H1589  H     0.64088   0.67835   0.84692   0.00000  Uiso   1.00
H1590  H     0.60605   0.67626   0.79887   0.00000  Uiso   1.00
O1591  O     0.37480   0.91522   0.75689   0.00000  Uiso   1.00
C1592  C     0.37563   0.92625   0.80271   0.00000  Uiso   1.00
H1593  H     0.38613   0.89747   0.82370   0.00000  Uiso   1.00
H1594  H     0.34457   0.93609   0.81324   0.00000  Uiso   1.00
C1595  C     0.40513   0.96509   0.81139   0.00000  Uiso   1.00
H1596  H     0.39818   0.99331   0.78841   0.00000  Uiso   1.00
H1597  H     0.40261   0.97703   0.84623   0.00000  Uiso   1.00
H1598  H     0.43698   0.95375   0.80649   0.00000  Uiso   1.00
C1599  C     0.75334   0.83335   0.74925   0.00000  Uiso   1.00
C1600  C     0.91331   0.83343   0.75086   0.00000  Uiso   1.00
C1601  C     0.83294   0.83334   0.66409   0.00000  Uiso   1.00
C1602  C     0.83349   0.83342   0.83596   0.00000  Uiso   1.00
C1603  C     0.85221   0.69045   0.78392   0.00000  Uiso   1.00
C1604  C     0.81392   0.97617   0.71633   0.00000  Uiso   1.00
C1605  C     0.81454   0.69027   0.71602   0.00000  Uiso   1.00
C1606  C     0.85283   0.97637   0.78361   0.00000  Uiso   1.00
C1607  C     0.68723   0.79301   0.74628   0.00000  Uiso   1.00
C1608  C     0.97887   0.87468   0.74757   0.00000  Uiso   1.00
C1609  C     0.97922   0.79330   0.75543   0.00000  Uiso   1.00
C1610  C     0.68787   0.87468   0.75159   0.00000  Uiso   1.00
C1611  C     0.85687   0.86214   0.54700   0.00000  Uiso   1.00
C1612  C     0.85608   0.80338   0.95479   0.00000  Uiso   1.00
C1613  C     0.80263   0.86204   0.95121   0.00000  Uiso   1.00
C1614  C     0.80060   0.80644   0.54687   0.00000  Uiso   1.00
C1615  C     0.85832   0.86153   0.59356   0.00000  Uiso   1.00
C1616  C     0.85842   0.80483   0.90840   0.00000  Uiso   1.00
C1617  C     0.80491   0.86251   0.90482   0.00000  Uiso   1.00
C1618  C     0.80201   0.80689   0.59345   0.00000  Uiso   1.00
C1619  C     0.83133   0.83359   0.61606   0.00000  Uiso   1.00
C1620  C     0.83238   0.83367   0.88402   0.00000  Uiso   1.00
C1621  C     0.82837   0.83393   0.52400   0.00000  Uiso   1.00
C1622  C     0.82840   0.83243   0.97585   0.00000  Uiso   1.00
C1623  C     0.95755   0.83382   0.75160   0.00000  Uiso   1.00
C1624  C     0.70907   0.83365   0.74863   0.00000  Uiso   1.00
N1625  N     0.83333   0.95240   0.75000   0.00000  Uiso   1.00
N1626  N     0.83333   0.71427   0.75000   0.00000  Uiso   1.00
O1627  O     0.77226   0.87154   0.75000   0.00000  Uiso   1.00
O1628  O     0.89441   0.79513   0.75001   0.00000  Uiso   1.00
O1629  O     0.89441   0.87154   0.75001   0.00000  Uiso   1.00
O1630  O     0.77226   0.79513   0.75000   0.00000  Uiso   1.00
O1631  O     0.83333   0.87155   0.68453   0.00000  Uiso   1.00
O1632  O     0.83334   0.79511   0.81547   0.00000  Uiso   1.00
O1633  O     0.83334   0.87155   0.81547   0.00000  Uiso   1.00
O1634  O     0.83333   0.79511   0.68453   0.00000  Uiso   1.00
Zn1635 Zn    0.83333   0.88437   0.75000   0.00000  Uiso   1.00
Zn1636 Zn    0.83333   0.78229   0.75000   0.00000  Uiso   1.00
O1637  O     0.87230   0.71178   0.81864   0.00000  Uiso   1.00
H1638  H     0.88257   0.74024   0.80681   0.00000  Uiso   1.00
O1639  O     0.79232   0.95498   0.68236   0.00000  Uiso   1.00
H1640  H     0.78236   0.92629   0.69404   0.00000  Uiso   1.00
O1641  O     0.79444   0.71142   0.68131   0.00000  Uiso   1.00
H1642  H     0.78404   0.73981   0.69322   0.00000  Uiso   1.00
O1643  O     0.87450   0.95539   0.81752   0.00000  Uiso   1.00
H1644  H     0.88420   0.92656   0.80591   0.00000  Uiso   1.00
O1645  O     0.88401   0.88991   0.52548   0.00000  Uiso   1.00
H1646  H     0.87783   0.89084   0.99310   0.00000  Uiso   1.00
O1647  O     0.88168   0.77408   0.97815   0.00000  Uiso   1.00
H1648  H     0.87416   0.77213   0.50970   0.00000  Uiso   1.00
O1649  O     0.77540   0.89105   0.97097   0.00000  Uiso   1.00
H1650  H     0.77458   0.88606   0.50342   0.00000  Uiso   1.00
O1651  O     0.77204   0.77887   0.52525   0.00000  Uiso   1.00
H1652  H     0.77314   0.78196   0.99258   0.00000  Uiso   1.00
O1653  O     0.88601   0.88734   0.61832   0.00000  Uiso   1.00
H1654  H     0.90292   0.90574   0.59856   0.00000  Uiso   1.00
O1655  O     0.88652   0.77947   0.88574   0.00000  Uiso   1.00
H1656  H     0.90330   0.76111   0.90674   0.00000  Uiso   1.00
O1657  O     0.78035   0.89024   0.87855   0.00000  Uiso   1.00
H1658  H     0.76266   0.90892   0.89723   0.00000  Uiso   1.00
O1659  O     0.77451   0.78271   0.61810   0.00000  Uiso   1.00
H1660  H     0.75524   0.76584   0.59825   0.00000  Uiso   1.00
O1661  O     0.70626   0.75227   0.73918   0.00000  Uiso   1.00
C1662  C     0.69460   0.73631   0.69613   0.00000  Uiso   1.00
H1663  H     0.71495   0.75119   0.67118   0.00000  Uiso   1.00
H1664  H     0.99565   0.74437   0.68575   0.00000  Uiso   1.00
C1665  C     0.69850   0.68560   0.69504   0.00000  Uiso   1.00
H1666  H     0.67593   0.67060   0.71730   0.00000  Uiso   1.00
H1667  H     0.69268   0.67303   0.66059   0.00000  Uiso   1.00
H1668  H     0.72935   0.67500   0.70688   0.00000  Uiso   1.00
O1669  O     0.95872   0.91519   0.74222   0.00000  Uiso   1.00
C1670  C     0.95729   0.92569   0.69634   0.00000  Uiso   1.00
H1671  H     0.94558   0.89696   0.67584   0.00000  Uiso   1.00
H1672  H     0.98836   0.93462   0.68501   0.00000  Uiso   1.00
C1673  C     0.92869   0.96525   0.68814   0.00000  Uiso   1.00
H1674  H     0.93670   0.99337   0.71109   0.00000  Uiso   1.00
H1675  H     0.93100   0.97694   0.65323   0.00000  Uiso   1.00
H1676  H     0.89665   0.95477   0.69356   0.00000  Uiso   1.00
O1677  O     0.96007   0.75309   0.76462   0.00000  Uiso   1.00
C1678  C     0.97115   0.73987   0.80867   0.00000  Uiso   1.00
H1679  H     0.94951   0.75487   0.83224   0.00000  Uiso   1.00
H1680  H     0.66945   0.75011   0.81975   0.00000  Uiso   1.00
C1681  C     0.96924   0.68913   0.81181   0.00000  Uiso   1.00
H1682  H     0.99341   0.67468   0.79131   0.00000  Uiso   1.00
H1683  H     0.97422   0.67835   0.84692   0.00000  Uiso   1.00
H1684  H     0.93939   0.67626   0.79887   0.00000  Uiso   1.00
O1685  O     0.70813   0.91522   0.75689   0.00000  Uiso   1.00
C1686  C     0.70897   0.92625   0.80271   0.00000  Uiso   1.00
H1687  H     0.71946   0.89747   0.82370   0.00000  Uiso   1.00
H1688  H     0.67790   0.93609   0.81324   0.00000  Uiso   1.00
C1689  C     0.73847   0.96509   0.81139   0.00000  Uiso   1.00
H1690  H     0.73151   0.99331   0.78841   0.00000  Uiso   1.00
H1691  H     0.73594   0.97703   0.84623   0.00000  Uiso   1.00
H1692  H     0.77032   0.95375   0.80649   0.00000  Uiso   1.00
loop_
_geom_bond_atom_site_label_1
_geom_bond_atom_site_label_2
_geom_bond_distance
_geom_bond_site_symmetry_2
_ccdc_geom_bond_type
C1     O32     1.297   .     A
C1     O29     1.294   .     A
C1     C26     1.444   .     S
C2     O31     1.294   .     A
C2     O30     1.297   .     A
C2     C25     1.443   .     S
C3     O33     1.293   .     A
C3     C21     1.442   .     S
C3     O36     1.296   .     A
C4     O35     1.294   .     A
C4     O34     1.296   .     A
C4     C22     1.445   .     S
C5     N28     1.374   .     A
C5     O39     1.369   .     S
C5     C572    1.414   1_545 S
C6     N27     1.375   .     A
C6     O41     1.374   .     S
C6     C289    1.415   .     S
C7     N28     1.373   .     A
C7     O43     1.370   .     S
C7     C570    1.415   1_545 S
C8     O45     1.374   .     S
C8     N27     1.375   .     A
C8     C287    1.414   .     S
C9     O63     1.385   .     S
C9     C26     1.406   .     A
C9     C199    1.385   1_455 S
C10    O71     1.384   .     S
C10    C25     1.409   .     A
C10    C106    1.383   .     S
C11    O79     1.384   .     S
C11    C25     1.405   .     A
C11    C103    1.385   .     S
C12    C26     1.411   .     A
C12    O87     1.384   .     S
C12    C198    1.383   1_455 S
C13    C23     1.416   .     A
C13    O47     1.387   .     S
C13    C17     1.398   .     A
C14    C18     1.398   .     A
C14    O49     1.387   .     S
C14    C24     1.415   .     A
C15    C19     1.398   .     A
C15    O51     1.387   .     S
C15    C24     1.415   .     A
C16    O53     1.387   .     S
C16    C20     1.398   .     A
C16    C23     1.416   .     A
C17    O55     1.384   .     S
C17    C21     1.401   .     A
C18    O57     1.384   .     S
C18    C22     1.402   .     A
C19    C22     1.403   .     A
C19    O59     1.384   .     S
C20    O61     1.384   .     S
C20    C21     1.402   .     A
C23    C870    1.447   1_554 S
C24    C869    1.447   .     S
N27    Zn37    2.029   .     S
N28    Zn38    2.029   .     S
O29    Zn37    2.029   .     S
O30    Zn38    2.029   .     S
O31    Zn37    2.031   .     S
O32    Zn38    2.031   .     S
O33    Zn37    2.002   .     S
O34    Zn38    2.002   .     S
O35    Zn37    2.004   .     S
O36    Zn38    2.004   .     S
O39    H40     0.983   .     S
O41    H42     0.984   .     S
O43    H44     0.983   .     S
O45    H46     0.984   .     S
O47    H894    0.987   1_554 S
H48    O893    0.987   .     S
O49    H896    0.988   .     S
H50    O895    0.988   1_554 S
O51    H898    0.987   .     S
H52    O897    0.987   1_554 S
O53    H900    0.987   1_554 S
H54    O899    0.987   .     S
O55    H56     0.989   .     S
O57    H58     0.989   .     S
O59    H60     0.989   .     S
O61    H62     0.989   .     S
O63    C64     1.417   .     S
C64    C67     1.518   .     S
C64    H65     1.109   .     S
C64    H254    1.116   1_455 S
H66    C158    1.116   .     S
C67    H68     1.105   .     S
C67    H69     1.110   .     S
C67    H70     1.104   .     S
O71    C72     1.413   .     S
C72    C75     1.522   .     S
C72    H73     1.114   .     S
C72    H74     1.111   .     S
C75    H76     1.110   .     S
C75    H77     1.110   .     S
C75    H78     1.108   .     S
O79    C80     1.417   .     S
C80    C83     1.518   .     S
C80    H81     1.109   .     S
C80    H176    1.117   .     S
H82    C268    1.117   1_455 S
C83    H84     1.103   .     S
C83    H85     1.110   .     S
C83    H86     1.106   .     S
O87    C88     1.413   .     S
C88    C91     1.522   .     S
C88    H90     1.111   .     S
C88    H89     1.114   .     S
C91    H93     1.110   .     S
C91    H92     1.109   .     S
C91    H94     1.108   .     S
C95    O126    1.297   .     A
C95    O123    1.294   .     A
C95    C120    1.444   .     S
C96    O125    1.294   .     A
C96    O124    1.297   .     A
C96    C119    1.443   .     S
C97    O127    1.293   .     A
C97    C115    1.442   .     S
C97    O130    1.296   .     A
C98    O129    1.294   .     A
C98    O128    1.296   .     A
C98    C116    1.445   .     S
C99    N122    1.374   .     A
C99    O133    1.369   .     S
C99    C666    1.414   1_545 S
C100   N121    1.375   .     A
C100   O135    1.374   .     S
C100   C383    1.415   .     S
C101   N122    1.373   .     A
C101   O137    1.370   .     S
C101   C664    1.415   1_545 S
C102   O139    1.374   .     S
C102   N121    1.375   .     A
C102   C381    1.414   .     S
C103   O157    1.385   .     S
C103   C120    1.406   .     A
C104   O165    1.384   .     S
C104   C119    1.409   .     A
C104   C200    1.383   .     S
C105   O173    1.384   .     S
C105   C119    1.405   .     A
C105   C197    1.385   .     S
C106   C120    1.411   .     A
C106   O181    1.384   .     S
C107   C117    1.416   .     A
C107   O141    1.387   .     S
C107   C111    1.398   .     A
C108   C112    1.398   .     A
C108   O143    1.387   .     S
C108   C118    1.415   .     A
C109   C113    1.398   .     A
C109   O145    1.387   .     S
C109   C118    1.415   .     A
C110   O147    1.387   .     S
C110   C114    1.398   .     A
C110   C117    1.416   .     A
C111   O149    1.384   .     S
C111   C115    1.401   .     A
C112   O151    1.384   .     S
C112   C116    1.402   .     A
C113   C116    1.403   .     A
C113   O153    1.384   .     S
C114   O155    1.384   .     S
C114   C115    1.402   .     A
C117   C964    1.447   1_554 S
C118   C963    1.447   .     S
N121   Zn131   2.029   .     S
N122   Zn132   2.029   .     S
O123   Zn131   2.029   .     S
O124   Zn132   2.029   .     S
O125   Zn131   2.031   .     S
O126   Zn132   2.031   .     S
O127   Zn131   2.002   .     S
O128   Zn132   2.002   .     S
O129   Zn131   2.004   .     S
O130   Zn132   2.004   .     S
O133   H134    0.983   .     S
O135   H136    0.984   .     S
O137   H138    0.983   .     S
O139   H140    0.984   .     S
O141   H988    0.987   1_554 S
H142   O987    0.987   .     S
O143   H990    0.988   .     S
H144   O989    0.988   1_554 S
O145   H992    0.987   .     S
H146   O991    0.987   1_554 S
O147   H994    0.987   1_554 S
H148   O993    0.987   .     S
O149   H150    0.989   .     S
O151   H152    0.989   .     S
O153   H154    0.989   .     S
O155   H156    0.989   .     S
O157   C158    1.417   .     S
C158   C161    1.518   .     S
C158   H159    1.109   .     S
H160   C252    1.116   .     S
C161   H162    1.105   .     S
C161   H163    1.110   .     S
C161   H164    1.104   .     S
O165   C166    1.413   .     S
C166   C169    1.522   .     S
C166   H167    1.114   .     S
C166   H168    1.111   .     S
C169   H170    1.110   .     S
C169   H171    1.110   .     S
C169   H172    1.108   .     S
O173   C174    1.417   .     S
C174   C177    1.518   .     S
C174   H175    1.109   .     S
C174   H270    1.117   .     S
C177   H178    1.103   .     S
C177   H179    1.110   .     S
C177   H180    1.106   .     S
O181   C182    1.413   .     S
C182   C185    1.522   .     S
C182   H184    1.111   .     S
C182   H183    1.114   .     S
C185   H187    1.110   .     S
C185   H186    1.109   .     S
C185   H188    1.108   .     S
C189   O220    1.297   .     A
C189   O217    1.294   .     A
C189   C214    1.444   .     S
C190   O219    1.294   .     A
C190   O218    1.297   .     A
C190   C213    1.443   .     S
C191   O221    1.293   .     A
C191   C209    1.442   .     S
C191   O224    1.296   .     A
C192   O223    1.294   .     A
C192   O222    1.296   .     A
C192   C210    1.445   .     S
C193   N216    1.374   .     A
C193   O227    1.369   .     S
C193   C760    1.414   1_545 S
C194   N215    1.375   .     A
C194   O229    1.374   .     S
C194   C477    1.415   .     S
C195   N216    1.373   .     A
C195   O231    1.370   .     S
C195   C758    1.415   1_545 S
C196   O233    1.374   .     S
C196   N215    1.375   .     A
C196   C475    1.414   .     S
C197   O251    1.385   .     S
C197   C214    1.406   .     A
C198   O259    1.384   .     S
C198   C213    1.409   .     A
C198   C12     1.383   1_655 S
C199   O267    1.384   .     S
C199   C213    1.405   .     A
C199   C9      1.385   1_655 S
C200   C214    1.411   .     A
C200   O275    1.384   .     S
C201   C211    1.416   .     A
C201   O235    1.387   .     S
C201   C205    1.398   .     A
C202   C206    1.398   .     A
C202   O237    1.387   .     S
C202   C212    1.415   .     A
C203   C207    1.398   .     A
C203   O239    1.387   .     S
C203   C212    1.415   .     A
C204   O241    1.387   .     S
C204   C208    1.398   .     A
C204   C211    1.416   .     A
C205   O243    1.384   .     S
C205   C209    1.401   .     A
C206   O245    1.384   .     S
C206   C210    1.402   .     A
C207   C210    1.403   .     A
C207   O247    1.384   .     S
C208   O249    1.384   .     S
C208   C209    1.402   .     A
C211   C1058   1.447   1_554 S
C212   C1057   1.447   .     S
N215   Zn225   2.029   .     S
N216   Zn226   2.029   .     S
O217   Zn225   2.029   .     S
O218   Zn226   2.029   .     S
O219   Zn225   2.031   .     S
O220   Zn226   2.031   .     S
O221   Zn225   2.002   .     S
O222   Zn226   2.002   .     S
O223   Zn225   2.004   .     S
O224   Zn226   2.004   .     S
O227   H228    0.983   .     S
O229   H230    0.984   .     S
O231   H232    0.983   .     S
O233   H234    0.984   .     S
O235   H1082   0.987   1_554 S
H236   O1081   0.987   .     S
O237   H1084   0.988   .     S
H238   O1083   0.988   1_554 S
O239   H1086   0.987   .     S
H240   O1085   0.987   1_554 S
O241   H1088   0.987   1_554 S
H242   O1087   0.987   .     S
O243   H244    0.989   .     S
O245   H246    0.989   .     S
O247   H248    0.989   .     S
O249   H250    0.989   .     S
O251   C252    1.417   .     S
C252   C255    1.518   .     S
C252   H253    1.109   .     S
H254   C64     1.116   1_655 S
C255   H256    1.105   .     S
C255   H257    1.110   .     S
C255   H258    1.104   .     S
O259   C260    1.413   .     S
C260   C263    1.522   .     S
C260   H261    1.114   .     S
C260   H262    1.111   .     S
C263   H264    1.110   .     S
C263   H265    1.110   .     S
C263   H266    1.108   .     S
O267   C268    1.417   .     S
C268   C271    1.518   .     S
C268   H269    1.109   .     S
C268   H82     1.117   1_655 S
C271   H272    1.103   .     S
C271   H273    1.110   .     S
C271   H274    1.106   .     S
O275   C276    1.413   .     S
C276   C279    1.522   .     S
C276   H278    1.111   .     S
C276   H277    1.114   .     S
C279   H281    1.110   .     S
C279   H280    1.109   .     S
C279   H282    1.108   .     S
C283   O314    1.297   .     A
C283   O311    1.294   .     A
C283   C308    1.444   .     S
C284   O313    1.294   .     A
C284   O312    1.297   .     A
C284   C307    1.443   .     S
C285   O315    1.293   .     A
C285   C303    1.442   .     S
C285   O318    1.296   .     A
C286   O317    1.294   .     A
C286   O316    1.296   .     A
C286   C304    1.445   .     S
C287   N310    1.374   .     A
C287   O321    1.369   .     S
C288   N309    1.375   .     A
C288   O323    1.374   .     S
C288   C571    1.415   .     S
C289   N310    1.373   .     A
C289   O325    1.370   .     S
C290   O327    1.374   .     S
C290   N309    1.375   .     A
C290   C569    1.414   .     S
C291   O345    1.385   .     S
C291   C308    1.406   .     A
C291   C481    1.385   1_455 S
C292   O353    1.384   .     S
C292   C307    1.409   .     A
C292   C388    1.383   .     S
C293   O361    1.384   .     S
C293   C307    1.405   .     A
C293   C385    1.385   .     S
C294   C308    1.411   .     A
C294   O369    1.384   .     S
C294   C480    1.383   1_455 S
C295   C305    1.416   .     A
C295   O329    1.387   .     S
C295   C299    1.398   .     A
C296   C300    1.398   .     A
C296   O331    1.387   .     S
C296   C306    1.415   .     A
C297   C301    1.398   .     A
C297   O333    1.387   .     S
C297   C306    1.415   .     A
C298   O335    1.387   .     S
C298   C302    1.398   .     A
C298   C305    1.416   .     A
C299   O337    1.384   .     S
C299   C303    1.401   .     A
C300   O339    1.384   .     S
C300   C304    1.402   .     A
C301   C304    1.403   .     A
C301   O341    1.384   .     S
C302   O343    1.384   .     S
C302   C303    1.402   .     A
C305   C1152   1.447   1_554 S
C306   C1151   1.447   .     S
N309   Zn319   2.029   .     S
N310   Zn320   2.029   .     S
O311   Zn319   2.029   .     S
O312   Zn320   2.029   .     S
O313   Zn319   2.031   .     S
O314   Zn320   2.031   .     S
O315   Zn319   2.002   .     S
O316   Zn320   2.002   .     S
O317   Zn319   2.004   .     S
O318   Zn320   2.004   .     S
O321   H322    0.983   .     S
O323   H324    0.984   .     S
O325   H326    0.983   .     S
O327   H328    0.984   .     S
O329   H1176   0.987   1_554 S
H330   O1175   0.987   .     S
O331   H1178   0.988   .     S
H332   O1177   0.988   1_554 S
O333   H1180   0.987   .     S
H334   O1179   0.987   1_554 S
O335   H1182   0.987   1_554 S
H336   O1181   0.987   .     S
O337   H338    0.989   .     S
O339   H340    0.989   .     S
O341   H342    0.989   .     S
O343   H344    0.989   .     S
O345   C346    1.417   .     S
C346   C349    1.518   .     S
C346   H347    1.109   .     S
C346   H536    1.116   1_455 S
H348   C440    1.116   .     S
C349   H350    1.105   .     S
C349   H351    1.110   .     S
C349   H352    1.104   .     S
O353   C354    1.413   .     S
C354   C357    1.522   .     S
C354   H355    1.114   .     S
C354   H356    1.111   .     S
C357   H358    1.110   .     S
C357   H359    1.110   .     S
C357   H360    1.108   .     S
O361   C362    1.417   .     S
C362   C365    1.518   .     S
C362   H363    1.109   .     S
C362   H458    1.117   .     S
H364   C550    1.117   1_455 S
C365   H366    1.103   .     S
C365   H367    1.110   .     S
C365   H368    1.106   .     S
O369   C370    1.413   .     S
C370   C373    1.522   .     S
C370   H372    1.111   .     S
C370   H371    1.114   .     S
C373   H375    1.110   .     S
C373   H374    1.109   .     S
C373   H376    1.108   .     S
C377   O408    1.297   .     A
C377   O405    1.294   .     A
C377   C402    1.444   .     S
C378   O407    1.294   .     A
C378   O406    1.297   .     A
C378   C401    1.443   .     S
C379   O409    1.293   .     A
C379   C397    1.442   .     S
C379   O412    1.296   .     A
C380   O411    1.294   .     A
C380   O410    1.296   .     A
C380   C398    1.445   .     S
C381   N404    1.374   .     A
C381   O415    1.369   .     S
C382   N403    1.375   .     A
C382   O417    1.374   .     S
C382   C665    1.415   .     S
C383   N404    1.373   .     A
C383   O419    1.370   .     S
C384   O421    1.374   .     S
C384   N403    1.375   .     A
C384   C663    1.414   .     S
C385   O439    1.385   .     S
C385   C402    1.406   .     A
C386   O447    1.384   .     S
C386   C401    1.409   .     A
C386   C482    1.383   .     S
C387   O455    1.384   .     S
C387   C401    1.405   .     A
C387   C479    1.385   .     S
C388   C402    1.411   .     A
C388   O463    1.384   .     S
C389   C399    1.416   .     A
C389   O423    1.387   .     S
C389   C393    1.398   .     A
C390   C394    1.398   .     A
C390   O425    1.387   .     S
C390   C400    1.415   .     A
C391   C395    1.398   .     A
C391   O427    1.387   .     S
C391   C400    1.415   .     A
C392   O429    1.387   .     S
C392   C396    1.398   .     A
C392   C399    1.416   .     A
C393   O431    1.384   .     S
C393   C397    1.401   .     A
C394   O433    1.384   .     S
C394   C398    1.402   .     A
C395   C398    1.403   .     A
C395   O435    1.384   .     S
C396   O437    1.384   .     S
C396   C397    1.402   .     A
C399   C1246   1.447   1_554 S
C400   C1245   1.447   .     S
N403   Zn413   2.029   .     S
N404   Zn414   2.029   .     S
O405   Zn413   2.029   .     S
O406   Zn414   2.029   .     S
O407   Zn413   2.031   .     S
O408   Zn414   2.031   .     S
O409   Zn413   2.002   .     S
O410   Zn414   2.002   .     S
O411   Zn413   2.004   .     S
O412   Zn414   2.004   .     S
O415   H416    0.983   .     S
O417   H418    0.984   .     S
O419   H420    0.983   .     S
O421   H422    0.984   .     S
O423   H1270   0.987   1_554 S
H424   O1269   0.987   .     S
O425   H1272   0.988   .     S
H426   O1271   0.988   1_554 S
O427   H1274   0.987   .     S
H428   O1273   0.987   1_554 S
O429   H1276   0.987   1_554 S
H430   O1275   0.987   .     S
O431   H432    0.989   .     S
O433   H434    0.989   .     S
O435   H436    0.989   .     S
O437   H438    0.989   .     S
O439   C440    1.417   .     S
C440   C443    1.518   .     S
C440   H441    1.109   .     S
H442   C534    1.116   .     S
C443   H444    1.105   .     S
C443   H445    1.110   .     S
C443   H446    1.104   .     S
O447   C448    1.413   .     S
C448   C451    1.522   .     S
C448   H449    1.114   .     S
C448   H450    1.111   .     S
C451   H452    1.110   .     S
C451   H453    1.110   .     S
C451   H454    1.108   .     S
O455   C456    1.417   .     S
C456   C459    1.518   .     S
C456   H457    1.109   .     S
C456   H552    1.117   .     S
C459   H460    1.103   .     S
C459   H461    1.110   .     S
C459   H462    1.106   .     S
O463   C464    1.413   .     S
C464   C467    1.522   .     S
C464   H466    1.111   .     S
C464   H465    1.114   .     S
C467   H469    1.110   .     S
C467   H468    1.109   .     S
C467   H470    1.108   .     S
C471   O502    1.297   .     A
C471   O499    1.294   .     A
C471   C496    1.444   .     S
C472   O501    1.294   .     A
C472   O500    1.297   .     A
C472   C495    1.443   .     S
C473   O503    1.293   .     A
C473   C491    1.442   .     S
C473   O506    1.296   .     A
C474   O505    1.294   .     A
C474   O504    1.296   .     A
C474   C492    1.445   .     S
C475   N498    1.374   .     A
C475   O509    1.369   .     S
C476   N497    1.375   .     A
C476   O511    1.374   .     S
C476   C759    1.415   .     S
C477   N498    1.373   .     A
C477   O513    1.370   .     S
C478   O515    1.374   .     S
C478   N497    1.375   .     A
C478   C757    1.414   .     S
C479   O533    1.385   .     S
C479   C496    1.406   .     A
C480   O541    1.384   .     S
C480   C495    1.409   .     A
C480   C294    1.383   1_655 S
C481   O549    1.384   .     S
C481   C495    1.405   .     A
C481   C291    1.385   1_655 S
C482   C496    1.411   .     A
C482   O557    1.384   .     S
C483   C493    1.416   .     A
C483   O517    1.387   .     S
C483   C487    1.398   .     A
C484   C488    1.398   .     A
C484   O519    1.387   .     S
C484   C494    1.415   .     A
C485   C489    1.398   .     A
C485   O521    1.387   .     S
C485   C494    1.415   .     A
C486   O523    1.387   .     S
C486   C490    1.398   .     A
C486   C493    1.416   .     A
C487   O525    1.384   .     S
C487   C491    1.401   .     A
C488   O527    1.384   .     S
C488   C492    1.402   .     A
C489   C492    1.403   .     A
C489   O529    1.384   .     S
C490   O531    1.384   .     S
C490   C491    1.402   .     A
C493   C1340   1.447   1_554 S
C494   C1339   1.447   .     S
N497   Zn507   2.029   .     S
N498   Zn508   2.029   .     S
O499   Zn507   2.029   .     S
O500   Zn508   2.029   .     S
O501   Zn507   2.031   .     S
O502   Zn508   2.031   .     S
O503   Zn507   2.002   .     S
O504   Zn508   2.002   .     S
O505   Zn507   2.004   .     S
O506   Zn508   2.004   .     S
O509   H510    0.983   .     S
O511   H512    0.984   .     S
O513   H514    0.983   .     S
O515   H516    0.984   .     S
O517   H1364   0.987   1_554 S
H518   O1363   0.987   .     S
O519   H1366   0.988   .     S
H520   O1365   0.988   1_554 S
O521   H1368   0.987   .     S
H522   O1367   0.987   1_554 S
O523   H1370   0.987   1_554 S
H524   O1369   0.987   .     S
O525   H526    0.989   .     S
O527   H528    0.989   .     S
O529   H530    0.989   .     S
O531   H532    0.989   .     S
O533   C534    1.417   .     S
C534   C537    1.518   .     S
C534   H535    1.109   .     S
H536   C346    1.116   1_655 S
C537   H538    1.105   .     S
C537   H539    1.110   .     S
C537   H540    1.104   .     S
O541   C542    1.413   .     S
C542   C545    1.522   .     S
C542   H543    1.114   .     S
C542   H544    1.111   .     S
C545   H546    1.110   .     S
C545   H547    1.110   .     S
C545   H548    1.108   .     S
O549   C550    1.417   .     S
C550   C553    1.518   .     S
C550   H551    1.109   .     S
C550   H364    1.117   1_655 S
C553   H554    1.103   .     S
C553   H555    1.110   .     S
C553   H556    1.106   .     S
O557   C558    1.413   .     S
C558   C561    1.522   .     S
C558   H560    1.111   .     S
C558   H559    1.114   .     S
C561   H563    1.110   .     S
C561   H562    1.109   .     S
C561   H564    1.108   .     S
C565   O596    1.297   .     A
C565   O593    1.294   .     A
C565   C590    1.444   .     S
C566   O595    1.294   .     A
C566   O594    1.297   .     A
C566   C589    1.443   .     S
C567   O597    1.293   .     A
C567   C585    1.442   .     S
C567   O600    1.296   .     A
C568   O599    1.294   .     A
C568   O598    1.296   .     A
C568   C586    1.445   .     S
C569   N592    1.374   .     A
C569   O603    1.369   .     S
C570   N591    1.375   .     A
C570   O605    1.374   .     S
C570   C7      1.415   1_565 S
C571   N592    1.373   .     A
C571   O607    1.370   .     S
C572   O609    1.374   .     S
C572   N591    1.375   .     A
C572   C5      1.414   1_565 S
C573   O627    1.385   .     S
C573   C590    1.406   .     A
C573   C763    1.385   1_455 S
C574   O635    1.384   .     S
C574   C589    1.409   .     A
C574   C670    1.383   .     S
C575   O643    1.384   .     S
C575   C589    1.405   .     A
C575   C667    1.385   .     S
C576   C590    1.411   .     A
C576   O651    1.384   .     S
C576   C762    1.383   1_455 S
C577   C587    1.416   .     A
C577   O611    1.387   .     S
C577   C581    1.398   .     A
C578   C582    1.398   .     A
C578   O613    1.387   .     S
C578   C588    1.415   .     A
C579   C583    1.398   .     A
C579   O615    1.387   .     S
C579   C588    1.415   .     A
C580   O617    1.387   .     S
C580   C584    1.398   .     A
C580   C587    1.416   .     A
C581   O619    1.384   .     S
C581   C585    1.401   .     A
C582   O621    1.384   .     S
C582   C586    1.402   .     A
C583   C586    1.403   .     A
C583   O623    1.384   .     S
C584   O625    1.384   .     S
C584   C585    1.402   .     A
C587   C1434   1.447   1_554 S
C588   C1433   1.447   .     S
N591   Zn601   2.029   .     S
N592   Zn602   2.029   .     S
O593   Zn601   2.029   .     S
O594   Zn602   2.029   .     S
O595   Zn601   2.031   .     S
O596   Zn602   2.031   .     S
O597   Zn601   2.002   .     S
O598   Zn602   2.002   .     S
O599   Zn601   2.004   .     S
O600   Zn602   2.004   .     S
O603   H604    0.983   .     S
O605   H606    0.984   .     S
O607   H608    0.983   .     S
O609   H610    0.984   .     S
O611   H1458   0.987   1_554 S
H612   O1457   0.987   .     S
O613   H1460   0.988   .     S
H614   O1459   0.988   1_554 S
O615   H1462   0.987   .     S
H616   O1461   0.987   1_554 S
O617   H1464   0.987   1_554 S
H618   O1463   0.987   .     S
O619   H620    0.989   .     S
O621   H622    0.989   .     S
O623   H624    0.989   .     S
O625   H626    0.989   .     S
O627   C628    1.417   .     S
C628   C631    1.518   .     S
C628   H629    1.109   .     S
C628   H818    1.116   1_455 S
H630   C722    1.116   .     S
C631   H632    1.105   .     S
C631   H633    1.110   .     S
C631   H634    1.104   .     S
O635   C636    1.413   .     S
C636   C639    1.522   .     S
C636   H637    1.114   .     S
C636   H638    1.111   .     S
C639   H640    1.110   .     S
C639   H641    1.110   .     S
C639   H642    1.108   .     S
O643   C644    1.417   .     S
C644   C647    1.518   .     S
C644   H645    1.109   .     S
C644   H740    1.117   .     S
H646   C832    1.117   1_455 S
C647   H648    1.103   .     S
C647   H649    1.110   .     S
C647   H650    1.106   .     S
O651   C652    1.413   .     S
C652   C655    1.522   .     S
C652   H654    1.111   .     S
C652   H653    1.114   .     S
C655   H657    1.110   .     S
C655   H656    1.109   .     S
C655   H658    1.108   .     S
C659   O690    1.297   .     A
C659   O687    1.294   .     A
C659   C684    1.444   .     S
C660   O689    1.294   .     A
C660   O688    1.297   .     A
C660   C683    1.443   .     S
C661   O691    1.293   .     A
C661   C679    1.442   .     S
C661   O694    1.296   .     A
C662   O693    1.294   .     A
C662   O692    1.296   .     A
C662   C680    1.445   .     S
C663   N686    1.374   .     A
C663   O697    1.369   .     S
C664   N685    1.375   .     A
C664   O699    1.374   .     S
C664   C101    1.415   1_565 S
C665   N686    1.373   .     A
C665   O701    1.370   .     S
C666   O703    1.374   .     S
C666   N685    1.375   .     A
C666   C99     1.414   1_565 S
C667   O721    1.385   .     S
C667   C684    1.406   .     A
C668   O729    1.384   .     S
C668   C683    1.409   .     A
C668   C764    1.383   .     S
C669   O737    1.384   .     S
C669   C683    1.405   .     A
C669   C761    1.385   .     S
C670   C684    1.411   .     A
C670   O745    1.384   .     S
C671   C681    1.416   .     A
C671   O705    1.387   .     S
C671   C675    1.398   .     A
C672   C676    1.398   .     A
C672   O707    1.387   .     S
C672   C682    1.415   .     A
C673   C677    1.398   .     A
C673   O709    1.387   .     S
C673   C682    1.415   .     A
C674   O711    1.387   .     S
C674   C678    1.398   .     A
C674   C681    1.416   .     A
C675   O713    1.384   .     S
C675   C679    1.401   .     A
C676   O715    1.384   .     S
C676   C680    1.402   .     A
C677   C680    1.403   .     A
C677   O717    1.384   .     S
C678   O719    1.384   .     S
C678   C679    1.402   .     A
C681   C1528   1.447   1_554 S
C682   C1527   1.447   .     S
N685   Zn695   2.029   .     S
N686   Zn696   2.029   .     S
O687   Zn695   2.029   .     S
O688   Zn696   2.029   .     S
O689   Zn695   2.031   .     S
O690   Zn696   2.031   .     S
O691   Zn695   2.002   .     S
O692   Zn696   2.002   .     S
O693   Zn695   2.004   .     S
O694   Zn696   2.004   .     S
O697   H698    0.983   .     S
O699   H700    0.984   .     S
O701   H702    0.983   .     S
O703   H704    0.984   .     S
O705   H1552   0.987   1_554 S
H706   O1551   0.987   .     S
O707   H1554   0.988   .     S
H708   O1553   0.988   1_554 S
O709   H1556   0.987   .     S
H710   O1555   0.987   1_554 S
O711   H1558   0.987   1_554 S
H712   O1557   0.987   .     S
O713   H714    0.989   .     S
O715   H716    0.989   .     S
O717   H718    0.989   .     S
O719   H720    0.989   .     S
O721   C722    1.417   .     S
C722   C725    1.518   .     S
C722   H723    1.109   .     S
H724   C816    1.116   .     S
C725   H726    1.105   .     S
C725   H727    1.110   .     S
C725   H728    1.104   .     S
O729   C730    1.413   .     S
C730   C733    1.522   .     S
C730   H731    1.114   .     S
C730   H732    1.111   .     S
C733   H734    1.110   .     S
C733   H735    1.110   .     S
C733   H736    1.108   .     S
O737   C738    1.417   .     S
C738   C741    1.518   .     S
C738   H739    1.109   .     S
C738   H834    1.117   .     S
C741   H742    1.103   .     S
C741   H743    1.110   .     S
C741   H744    1.106   .     S
O745   C746    1.413   .     S
C746   C749    1.522   .     S
C746   H748    1.111   .     S
C746   H747    1.114   .     S
C749   H751    1.110   .     S
C749   H750    1.109   .     S
C749   H752    1.108   .     S
C753   O784    1.297   .     A
C753   O781    1.294   .     A
C753   C778    1.444   .     S
C754   O783    1.294   .     A
C754   O782    1.297   .     A
C754   C777    1.443   .     S
C755   O785    1.293   .     A
C755   C773    1.442   .     S
C755   O788    1.296   .     A
C756   O787    1.294   .     A
C756   O786    1.296   .     A
C756   C774    1.445   .     S
C757   N780    1.374   .     A
C757   O791    1.369   .     S
C758   N779    1.375   .     A
C758   O793    1.374   .     S
C758   C195    1.415   1_565 S
C759   N780    1.373   .     A
C759   O795    1.370   .     S
C760   O797    1.374   .     S
C760   N779    1.375   .     A
C760   C193    1.414   1_565 S
C761   O815    1.385   .     S
C761   C778    1.406   .     A
C762   O823    1.384   .     S
C762   C777    1.409   .     A
C762   C576    1.383   1_655 S
C763   O831    1.384   .     S
C763   C777    1.405   .     A
C763   C573    1.385   1_655 S
C764   C778    1.411   .     A
C764   O839    1.384   .     S
C765   C775    1.416   .     A
C765   O799    1.387   .     S
C765   C769    1.398   .     A
C766   C770    1.398   .     A
C766   O801    1.387   .     S
C766   C776    1.415   .     A
C767   C771    1.398   .     A
C767   O803    1.387   .     S
C767   C776    1.415   .     A
C768   O805    1.387   .     S
C768   C772    1.398   .     A
C768   C775    1.416   .     A
C769   O807    1.384   .     S
C769   C773    1.401   .     A
C770   O809    1.384   .     S
C770   C774    1.402   .     A
C771   C774    1.403   .     A
C771   O811    1.384   .     S
C772   O813    1.384   .     S
C772   C773    1.402   .     A
C775   C1622   1.447   1_554 S
C776   C1621   1.447   .     S
N779   Zn789   2.029   .     S
N780   Zn790   2.029   .     S
O781   Zn789   2.029   .     S
O782   Zn790   2.029   .     S
O783   Zn789   2.031   .     S
O784   Zn790   2.031   .     S
O785   Zn789   2.002   .     S
O786   Zn790   2.002   .     S
O787   Zn789   2.004   .     S
O788   Zn790   2.004   .     S
O791   H792    0.983   .     S
O793   H794    0.984   .     S
O795   H796    0.983   .     S
O797   H798    0.984   .     S
O799   H1646   0.987   1_554 S
H800   O1645   0.987   .     S
O801   H1648   0.988   .     S
H802   O1647   0.988   1_554 S
O803   H1650   0.987   .     S
H804   O1649   0.987   1_554 S
O805   H1652   0.987   1_554 S
H806   O1651   0.987   .     S
O807   H808    0.989   .     S
O809   H810    0.989   .     S
O811   H812    0.989   .     S
O813   H814    0.989   .     S
O815   C816    1.417   .     S
C816   C819    1.518   .     S
C816   H817    1.109   .     S
H818   C628    1.116   1_655 S
C819   H820    1.105   .     S
C819   H821    1.110   .     S
C819   H822    1.104   .     S
O823   C824    1.413   .     S
C824   C827    1.522   .     S
C824   H825    1.114   .     S
C824   H826    1.111   .     S
C827   H828    1.110   .     S
C827   H829    1.110   .     S
C827   H830    1.108   .     S
O831   C832    1.417   .     S
C832   C835    1.518   .     S
C832   H833    1.109   .     S
C832   H646    1.117   1_655 S
C835   H836    1.103   .     S
C835   H837    1.110   .     S
C835   H838    1.106   .     S
O839   C840    1.413   .     S
C840   C843    1.522   .     S
C840   H842    1.111   .     S
C840   H841    1.114   .     S
C843   H845    1.110   .     S
C843   H844    1.109   .     S
C843   H846    1.108   .     S
C847   O878    1.297   .     A
C847   O875    1.294   .     A
C847   C872    1.444   .     S
C848   O877    1.294   .     A
C848   O876    1.297   .     A
C848   C871    1.443   .     S
C849   O879    1.293   .     A
C849   C867    1.442   .     S
C849   O882    1.296   .     A
C850   O881    1.294   .     A
C850   O880    1.296   .     A
C850   C868    1.445   .     S
C851   N874    1.374   .     A
C851   O885    1.369   .     S
C851   C1418   1.414   1_545 S
C852   N873    1.375   .     A
C852   O887    1.374   .     S
C852   C1135   1.415   .     S
C853   N874    1.373   .     A
C853   O889    1.370   .     S
C853   C1416   1.415   1_545 S
C854   O891    1.374   .     S
C854   N873    1.375   .     A
C854   C1133   1.414   .     S
C855   O909    1.385   .     S
C855   C872    1.406   .     A
C855   C1045   1.385   1_455 S
C856   O917    1.384   .     S
C856   C871    1.409   .     A
C856   C952    1.383   .     S
C857   O925    1.384   .     S
C857   C871    1.405   .     A
C857   C949    1.385   .     S
C858   C872    1.411   .     A
C858   O933    1.384   .     S
C858   C1044   1.383   1_455 S
C859   C869    1.416   .     A
C859   O893    1.387   .     S
C859   C863    1.398   .     A
C860   C864    1.398   .     A
C860   O895    1.387   .     S
C860   C870    1.415   .     A
C861   C865    1.398   .     A
C861   O897    1.387   .     S
C861   C870    1.415   .     A
C862   O899    1.387   .     S
C862   C866    1.398   .     A
C862   C869    1.416   .     A
C863   O901    1.384   .     S
C863   C867    1.401   .     A
C864   O903    1.384   .     S
C864   C868    1.402   .     A
C865   C868    1.403   .     A
C865   O905    1.384   .     S
C866   O907    1.384   .     S
C866   C867    1.402   .     A
C870   C23     1.447   1_556 S
N873   Zn883   2.029   .     S
N874   Zn884   2.029   .     S
O875   Zn883   2.029   .     S
O876   Zn884   2.029   .     S
O877   Zn883   2.031   .     S
O878   Zn884   2.031   .     S
O879   Zn883   2.002   .     S
O880   Zn884   2.002   .     S
O881   Zn883   2.004   .     S
O882   Zn884   2.004   .     S
O885   H886    0.983   .     S
O887   H888    0.984   .     S
O889   H890    0.983   .     S
O891   H892    0.984   .     S
H894   O47     0.987   1_556 S
O895   H50     0.988   1_556 S
O897   H52     0.987   1_556 S
H900   O53     0.987   1_556 S
O901   H902    0.989   .     S
O903   H904    0.989   .     S
O905   H906    0.989   .     S
O907   H908    0.989   .     S
O909   C910    1.417   .     S
C910   C913    1.518   .     S
C910   H911    1.109   .     S
C910   H1100   1.116   1_455 S
H912   C1004   1.116   .     S
C913   H914    1.105   .     S
C913   H915    1.110   .     S
C913   H916    1.104   .     S
O917   C918    1.413   .     S
C918   C921    1.522   .     S
C918   H919    1.114   .     S
C918   H920    1.111   .     S
C921   H922    1.110   .     S
C921   H923    1.110   .     S
C921   H924    1.108   .     S
O925   C926    1.417   .     S
C926   C929    1.518   .     S
C926   H927    1.109   .     S
C926   H1022   1.117   .     S
H928   C1114   1.117   1_455 S
C929   H930    1.103   .     S
C929   H931    1.110   .     S
C929   H932    1.106   .     S
O933   C934    1.413   .     S
C934   C937    1.522   .     S
C934   H936    1.111   .     S
C934   H935    1.114   .     S
C937   H939    1.110   .     S
C937   H938    1.109   .     S
C937   H940    1.108   .     S
C941   O972    1.297   .     A
C941   O969    1.294   .     A
C941   C966    1.444   .     S
C942   O971    1.294   .     A
C942   O970    1.297   .     A
C942   C965    1.443   .     S
C943   O973    1.293   .     A
C943   C961    1.442   .     S
C943   O976    1.296   .     A
C944   O975    1.294   .     A
C944   O974    1.296   .     A
C944   C962    1.445   .     S
C945   N968    1.374   .     A
C945   O979    1.369   .     S
C945   C1512   1.414   1_545 S
C946   N967    1.375   .     A
C946   O981    1.374   .     S
C946   C1229   1.415   .     S
C947   N968    1.373   .     A
C947   O983    1.370   .     S
C947   C1510   1.415   1_545 S
C948   O985    1.374   .     S
C948   N967    1.375   .     A
C948   C1227   1.414   .     S
C949   O1003   1.385   .     S
C949   C966    1.406   .     A
C950   O1011   1.384   .     S
C950   C965    1.409   .     A
C950   C1046   1.383   .     S
C951   O1019   1.384   .     S
C951   C965    1.405   .     A
C951   C1043   1.385   .     S
C952   C966    1.411   .     A
C952   O1027   1.384   .     S
C953   C963    1.416   .     A
C953   O987    1.387   .     S
C953   C957    1.398   .     A
C954   C958    1.398   .     A
C954   O989    1.387   .     S
C954   C964    1.415   .     A
C955   C959    1.398   .     A
C955   O991    1.387   .     S
C955   C964    1.415   .     A
C956   O993    1.387   .     S
C956   C960    1.398   .     A
C956   C963    1.416   .     A
C957   O995    1.384   .     S
C957   C961    1.401   .     A
C958   O997    1.384   .     S
C958   C962    1.402   .     A
C959   C962    1.403   .     A
C959   O999    1.384   .     S
C960   O1001   1.384   .     S
C960   C961    1.402   .     A
C964   C117    1.447   1_556 S
N967   Zn977   2.029   .     S
N968   Zn978   2.029   .     S
O969   Zn977   2.029   .     S
O970   Zn978   2.029   .     S
O971   Zn977   2.031   .     S
O972   Zn978   2.031   .     S
O973   Zn977   2.002   .     S
O974   Zn978   2.002   .     S
O975   Zn977   2.004   .     S
O976   Zn978   2.004   .     S
O979   H980    0.983   .     S
O981   H982    0.984   .     S
O983   H984    0.983   .     S
O985   H986    0.984   .     S
H988   O141    0.987   1_556 S
O989   H144    0.988   1_556 S
O991   H146    0.987   1_556 S
H994   O147    0.987   1_556 S
O995   H996    0.989   .     S
O997   H998    0.989   .     S
O999   H1000   0.989   .     S
O1001  H1002   0.989   .     S
O1003  C1004   1.417   .     S
C1004  C1007   1.518   .     S
C1004  H1005   1.109   .     S
H1006  C1098   1.116   .     S
C1007  H1008   1.105   .     S
C1007  H1009   1.110   .     S
C1007  H1010   1.104   .     S
O1011  C1012   1.413   .     S
C1012  C1015   1.522   .     S
C1012  H1013   1.114   .     S
C1012  H1014   1.111   .     S
C1015  H1016   1.110   .     S
C1015  H1017   1.110   .     S
C1015  H1018   1.108   .     S
O1019  C1020   1.417   .     S
C1020  C1023   1.518   .     S
C1020  H1021   1.109   .     S
C1020  H1116   1.117   .     S
C1023  H1024   1.103   .     S
C1023  H1025   1.110   .     S
C1023  H1026   1.106   .     S
O1027  C1028   1.413   .     S
C1028  C1031   1.522   .     S
C1028  H1030   1.111   .     S
C1028  H1029   1.114   .     S
C1031  H1033   1.110   .     S
C1031  H1032   1.109   .     S
C1031  H1034   1.108   .     S
C1035  O1066   1.297   .     A
C1035  O1063   1.294   .     A
C1035  C1060   1.444   .     S
C1036  O1065   1.294   .     A
C1036  O1064   1.297   .     A
C1036  C1059   1.443   .     S
C1037  O1067   1.293   .     A
C1037  C1055   1.442   .     S
C1037  O1070   1.296   .     A
C1038  O1069   1.294   .     A
C1038  O1068   1.296   .     A
C1038  C1056   1.445   .     S
C1039  N1062   1.374   .     A
C1039  O1073   1.369   .     S
C1039  C1606   1.414   1_545 S
C1040  N1061   1.375   .     A
C1040  O1075   1.374   .     S
C1040  C1323   1.415   .     S
C1041  N1062   1.373   .     A
C1041  O1077   1.370   .     S
C1041  C1604   1.415   1_545 S
C1042  O1079   1.374   .     S
C1042  N1061   1.375   .     A
C1042  C1321   1.414   .     S
C1043  O1097   1.385   .     S
C1043  C1060   1.406   .     A
C1044  O1105   1.384   .     S
C1044  C1059   1.409   .     A
C1044  C858    1.383   1_655 S
C1045  O1113   1.384   .     S
C1045  C1059   1.405   .     A
C1045  C855    1.385   1_655 S
C1046  C1060   1.411   .     A
C1046  O1121   1.384   .     S
C1047  C1057   1.416   .     A
C1047  O1081   1.387   .     S
C1047  C1051   1.398   .     A
C1048  C1052   1.398   .     A
C1048  O1083   1.387   .     S
C1048  C1058   1.415   .     A
C1049  C1053   1.398   .     A
C1049  O1085   1.387   .     S
C1049  C1058   1.415   .     A
C1050  O1087   1.387   .     S
C1050  C1054   1.398   .     A
C1050  C1057   1.416   .     A
C1051  O1089   1.384   .     S
C1051  C1055   1.401   .     A
C1052  O1091   1.384   .     S
C1052  C1056   1.402   .     A
C1053  C1056   1.403   .     A
C1053  O1093   1.384   .     S
C1054  O1095   1.384   .     S
C1054  C1055   1.402   .     A
C1058  C211    1.447   1_556 S
N1061  Zn1071  2.029   .     S
N1062  Zn1072  2.029   .     S
O1063  Zn1071  2.029   .     S
O1064  Zn1072  2.029   .     S
O1065  Zn1071  2.031   .     S
O1066  Zn1072  2.031   .     S
O1067  Zn1071  2.002   .     S
O1068  Zn1072  2.002   .     S
O1069  Zn1071  2.004   .     S
O1070  Zn1072  2.004   .     S
O1073  H1074   0.983   .     S
O1075  H1076   0.984   .     S
O1077  H1078   0.983   .     S
O1079  H1080   0.984   .     S
H1082  O235    0.987   1_556 S
O1083  H238    0.988   1_556 S
O1085  H240    0.987   1_556 S
H1088  O241    0.987   1_556 S
O1089  H1090   0.989   .     S
O1091  H1092   0.989   .     S
O1093  H1094   0.989   .     S
O1095  H1096   0.989   .     S
O1097  C1098   1.417   .     S
C1098  C1101   1.518   .     S
C1098  H1099   1.109   .     S
H1100  C910    1.116   1_655 S
C1101  H1102   1.105   .     S
C1101  H1103   1.110   .     S
C1101  H1104   1.104   .     S
O1105  C1106   1.413   .     S
C1106  C1109   1.522   .     S
C1106  H1107   1.114   .     S
C1106  H1108   1.111   .     S
C1109  H1110   1.110   .     S
C1109  H1111   1.110   .     S
C1109  H1112   1.108   .     S
O1113  C1114   1.417   .     S
C1114  C1117   1.518   .     S
C1114  H1115   1.109   .     S
C1114  H928    1.117   1_655 S
C1117  H1118   1.103   .     S
C1117  H1119   1.110   .     S
C1117  H1120   1.106   .     S
O1121  C1122   1.413   .     S
C1122  C1125   1.522   .     S
C1122  H1124   1.111   .     S
C1122  H1123   1.114   .     S
C1125  H1127   1.110   .     S
C1125  H1126   1.109   .     S
C1125  H1128   1.108   .     S
C1129  O1160   1.297   .     A
C1129  O1157   1.294   .     A
C1129  C1154   1.444   .     S
C1130  O1159   1.294   .     A
C1130  O1158   1.297   .     A
C1130  C1153   1.443   .     S
C1131  O1161   1.293   .     A
C1131  C1149   1.442   .     S
C1131  O1164   1.296   .     A
C1132  O1163   1.294   .     A
C1132  O1162   1.296   .     A
C1132  C1150   1.445   .     S
C1133  N1156   1.374   .     A
C1133  O1167   1.369   .     S
C1134  N1155   1.375   .     A
C1134  O1169   1.374   .     S
C1134  C1417   1.415   .     S
C1135  N1156   1.373   .     A
C1135  O1171   1.370   .     S
C1136  O1173   1.374   .     S
C1136  N1155   1.375   .     A
C1136  C1415   1.414   .     S
C1137  O1191   1.385   .     S
C1137  C1154   1.406   .     A
C1137  C1327   1.385   1_455 S
C1138  O1199   1.384   .     S
C1138  C1153   1.409   .     A
C1138  C1234   1.383   .     S
C1139  O1207   1.384   .     S
C1139  C1153   1.405   .     A
C1139  C1231   1.385   .     S
C1140  C1154   1.411   .     A
C1140  O1215   1.384   .     S
C1140  C1326   1.383   1_455 S
C1141  C1151   1.416   .     A
C1141  O1175   1.387   .     S
C1141  C1145   1.398   .     A
C1142  C1146   1.398   .     A
C1142  O1177   1.387   .     S
C1142  C1152   1.415   .     A
C1143  C1147   1.398   .     A
C1143  O1179   1.387   .     S
C1143  C1152   1.415   .     A
C1144  O1181   1.387   .     S
C1144  C1148   1.398   .     A
C1144  C1151   1.416   .     A
C1145  O1183   1.384   .     S
C1145  C1149   1.401   .     A
C1146  O1185   1.384   .     S
C1146  C1150   1.402   .     A
C1147  C1150   1.403   .     A
C1147  O1187   1.384   .     S
C1148  O1189   1.384   .     S
C1148  C1149   1.402   .     A
C1152  C305    1.447   1_556 S
N1155  Zn1165  2.029   .     S
N1156  Zn1166  2.029   .     S
O1157  Zn1165  2.029   .     S
O1158  Zn1166  2.029   .     S
O1159  Zn1165  2.031   .     S
O1160  Zn1166  2.031   .     S
O1161  Zn1165  2.002   .     S
O1162  Zn1166  2.002   .     S
O1163  Zn1165  2.004   .     S
O1164  Zn1166  2.004   .     S
O1167  H1168   0.983   .     S
O1169  H1170   0.984   .     S
O1171  H1172   0.983   .     S
O1173  H1174   0.984   .     S
H1176  O329    0.987   1_556 S
O1177  H332    0.988   1_556 S
O1179  H334    0.987   1_556 S
H1182  O335    0.987   1_556 S
O1183  H1184   0.989   .     S
O1185  H1186   0.989   .     S
O1187  H1188   0.989   .     S
O1189  H1190   0.989   .     S
O1191  C1192   1.417   .     S
C1192  C1195   1.518   .     S
C1192  H1193   1.109   .     S
C1192  H1382   1.116   1_455 S
H1194  C1286   1.116   .     S
C1195  H1196   1.105   .     S
C1195  H1197   1.110   .     S
C1195  H1198   1.104   .     S
O1199  C1200   1.413   .     S
C1200  C1203   1.522   .     S
C1200  H1201   1.114   .     S
C1200  H1202   1.111   .     S
C1203  H1204   1.110   .     S
C1203  H1205   1.110   .     S
C1203  H1206   1.108   .     S
O1207  C1208   1.417   .     S
C1208  C1211   1.518   .     S
C1208  H1209   1.109   .     S
C1208  H1304   1.117   .     S
H1210  C1396   1.117   1_455 S
C1211  H1212   1.103   .     S
C1211  H1213   1.110   .     S
C1211  H1214   1.106   .     S
O1215  C1216   1.413   .     S
C1216  C1219   1.522   .     S
C1216  H1218   1.111   .     S
C1216  H1217   1.114   .     S
C1219  H1221   1.110   .     S
C1219  H1220   1.109   .     S
C1219  H1222   1.108   .     S
C1223  O1254   1.297   .     A
C1223  O1251   1.294   .     A
C1223  C1248   1.444   .     S
C1224  O1253   1.294   .     A
C1224  O1252   1.297   .     A
C1224  C1247   1.443   .     S
C1225  O1255   1.293   .     A
C1225  C1243   1.442   .     S
C1225  O1258   1.296   .     A
C1226  O1257   1.294   .     A
C1226  O1256   1.296   .     A
C1226  C1244   1.445   .     S
C1227  N1250   1.374   .     A
C1227  O1261   1.369   .     S
C1228  N1249   1.375   .     A
C1228  O1263   1.374   .     S
C1228  C1511   1.415   .     S
C1229  N1250   1.373   .     A
C1229  O1265   1.370   .     S
C1230  O1267   1.374   .     S
C1230  N1249   1.375   .     A
C1230  C1509   1.414   .     S
C1231  O1285   1.385   .     S
C1231  C1248   1.406   .     A
C1232  O1293   1.384   .     S
C1232  C1247   1.409   .     A
C1232  C1328   1.383   .     S
C1233  O1301   1.384   .     S
C1233  C1247   1.405   .     A
C1233  C1325   1.385   .     S
C1234  C1248   1.411   .     A
C1234  O1309   1.384   .     S
C1235  C1245   1.416   .     A
C1235  O1269   1.387   .     S
C1235  C1239   1.398   .     A
C1236  C1240   1.398   .     A
C1236  O1271   1.387   .     S
C1236  C1246   1.415   .     A
C1237  C1241   1.398   .     A
C1237  O1273   1.387   .     S
C1237  C1246   1.415   .     A
C1238  O1275   1.387   .     S
C1238  C1242   1.398   .     A
C1238  C1245   1.416   .     A
C1239  O1277   1.384   .     S
C1239  C1243   1.401   .     A
C1240  O1279   1.384   .     S
C1240  C1244   1.402   .     A
C1241  C1244   1.403   .     A
C1241  O1281   1.384   .     S
C1242  O1283   1.384   .     S
C1242  C1243   1.402   .     A
C1246  C399    1.447   1_556 S
N1249  Zn1259  2.029   .     S
N1250  Zn1260  2.029   .     S
O1251  Zn1259  2.029   .     S
O1252  Zn1260  2.029   .     S
O1253  Zn1259  2.031   .     S
O1254  Zn1260  2.031   .     S
O1255  Zn1259  2.002   .     S
O1256  Zn1260  2.002   .     S
O1257  Zn1259  2.004   .     S
O1258  Zn1260  2.004   .     S
O1261  H1262   0.983   .     S
O1263  H1264   0.984   .     S
O1265  H1266   0.983   .     S
O1267  H1268   0.984   .     S
H1270  O423    0.987   1_556 S
O1271  H426    0.988   1_556 S
O1273  H428    0.987   1_556 S
H1276  O429    0.987   1_556 S
O1277  H1278   0.989   .     S
O1279  H1280   0.989   .     S
O1281  H1282   0.989   .     S
O1283  H1284   0.989   .     S
O1285  C1286   1.417   .     S
C1286  C1289   1.518   .     S
C1286  H1287   1.109   .     S
H1288  C1380   1.116   .     S
C1289  H1290   1.105   .     S
C1289  H1291   1.110   .     S
C1289  H1292   1.104   .     S
O1293  C1294   1.413   .     S
C1294  C1297   1.522   .     S
C1294  H1295   1.114   .     S
C1294  H1296   1.111   .     S
C1297  H1298   1.110   .     S
C1297  H1299   1.110   .     S
C1297  H1300   1.108   .     S
O1301  C1302   1.417   .     S
C1302  C1305   1.518   .     S
C1302  H1303   1.109   .     S
C1302  H1398   1.117   .     S
C1305  H1306   1.103   .     S
C1305  H1307   1.110   .     S
C1305  H1308   1.106   .     S
O1309  C1310   1.413   .     S
C1310  C1313   1.522   .     S
C1310  H1312   1.111   .     S
C1310  H1311   1.114   .     S
C1313  H1315   1.110   .     S
C1313  H1314   1.109   .     S
C1313  H1316   1.108   .     S
C1317  O1348   1.297   .     A
C1317  O1345   1.294   .     A
C1317  C1342   1.444   .     S
C1318  O1347   1.294   .     A
C1318  O1346   1.297   .     A
C1318  C1341   1.443   .     S
C1319  O1349   1.293   .     A
C1319  C1337   1.442   .     S
C1319  O1352   1.296   .     A
C1320  O1351   1.294   .     A
C1320  O1350   1.296   .     A
C1320  C1338   1.445   .     S
C1321  N1344   1.374   .     A
C1321  O1355   1.369   .     S
C1322  N1343   1.375   .     A
C1322  O1357   1.374   .     S
C1322  C1605   1.415   .     S
C1323  N1344   1.373   .     A
C1323  O1359   1.370   .     S
C1324  O1361   1.374   .     S
C1324  N1343   1.375   .     A
C1324  C1603   1.414   .     S
C1325  O1379   1.385   .     S
C1325  C1342   1.406   .     A
C1326  O1387   1.384   .     S
C1326  C1341   1.409   .     A
C1326  C1140   1.383   1_655 S
C1327  O1395   1.384   .     S
C1327  C1341   1.405   .     A
C1327  C1137   1.385   1_655 S
C1328  C1342   1.411   .     A
C1328  O1403   1.384   .     S
C1329  C1339   1.416   .     A
C1329  O1363   1.387   .     S
C1329  C1333   1.398   .     A
C1330  C1334   1.398   .     A
C1330  O1365   1.387   .     S
C1330  C1340   1.415   .     A
C1331  C1335   1.398   .     A
C1331  O1367   1.387   .     S
C1331  C1340   1.415   .     A
C1332  O1369   1.387   .     S
C1332  C1336   1.398   .     A
C1332  C1339   1.416   .     A
C1333  O1371   1.384   .     S
C1333  C1337   1.401   .     A
C1334  O1373   1.384   .     S
C1334  C1338   1.402   .     A
C1335  C1338   1.403   .     A
C1335  O1375   1.384   .     S
C1336  O1377   1.384   .     S
C1336  C1337   1.402   .     A
C1340  C493    1.447   1_556 S
N1343  Zn1353  2.029   .     S
N1344  Zn1354  2.029   .     S
O1345  Zn1353  2.029   .     S
O1346  Zn1354  2.029   .     S
O1347  Zn1353  2.031   .     S
O1348  Zn1354  2.031   .     S
O1349  Zn1353  2.002   .     S
O1350  Zn1354  2.002   .     S
O1351  Zn1353  2.004   .     S
O1352  Zn1354  2.004   .     S
O1355  H1356   0.983   .     S
O1357  H1358   0.984   .     S
O1359  H1360   0.983   .     S
O1361  H1362   0.984   .     S
H1364  O517    0.987   1_556 S
O1365  H520    0.988   1_556 S
O1367  H522    0.987   1_556 S
H1370  O523    0.987   1_556 S
O1371  H1372   0.989   .     S
O1373  H1374   0.989   .     S
O1375  H1376   0.989   .     S
O1377  H1378   0.989   .     S
O1379  C1380   1.417   .     S
C1380  C1383   1.518   .     S
C1380  H1381   1.109   .     S
H1382  C1192   1.116   1_655 S
C1383  H1384   1.105   .     S
C1383  H1385   1.110   .     S
C1383  H1386   1.104   .     S
O1387  C1388   1.413   .     S
C1388  C1391   1.522   .     S
C1388  H1389   1.114   .     S
C1388  H1390   1.111   .     S
C1391  H1392   1.110   .     S
C1391  H1393   1.110   .     S
C1391  H1394   1.108   .     S
O1395  C1396   1.417   .     S
C1396  C1399   1.518   .     S
C1396  H1397   1.109   .     S
C1396  H1210   1.117   1_655 S
C1399  H1400   1.103   .     S
C1399  H1401   1.110   .     S
C1399  H1402   1.106   .     S
O1403  C1404   1.413   .     S
C1404  C1407   1.522   .     S
C1404  H1406   1.111   .     S
C1404  H1405   1.114   .     S
C1407  H1409   1.110   .     S
C1407  H1408   1.109   .     S
C1407  H1410   1.108   .     S
C1411  O1442   1.297   .     A
C1411  O1439   1.294   .     A
C1411  C1436   1.444   .     S
C1412  O1441   1.294   .     A
C1412  O1440   1.297   .     A
C1412  C1435   1.443   .     S
C1413  O1443   1.293   .     A
C1413  C1431   1.442   .     S
C1413  O1446   1.296   .     A
C1414  O1445   1.294   .     A
C1414  O1444   1.296   .     A
C1414  C1432   1.445   .     S
C1415  N1438   1.374   .     A
C1415  O1449   1.369   .     S
C1416  N1437   1.375   .     A
C1416  O1451   1.374   .     S
C1416  C853    1.415   1_565 S
C1417  N1438   1.373   .     A
C1417  O1453   1.370   .     S
C1418  O1455   1.374   .     S
C1418  N1437   1.375   .     A
C1418  C851    1.414   1_565 S
C1419  O1473   1.385   .     S
C1419  C1436   1.406   .     A
C1419  C1609   1.385   1_455 S
C1420  O1481   1.384   .     S
C1420  C1435   1.409   .     A
C1420  C1516   1.383   .     S
C1421  O1489   1.384   .     S
C1421  C1435   1.405   .     A
C1421  C1513   1.385   .     S
C1422  C1436   1.411   .     A
C1422  O1497   1.384   .     S
C1422  C1608   1.383   1_455 S
C1423  C1433   1.416   .     A
C1423  O1457   1.387   .     S
C1423  C1427   1.398   .     A
C1424  C1428   1.398   .     A
C1424  O1459   1.387   .     S
C1424  C1434   1.415   .     A
C1425  C1429   1.398   .     A
C1425  O1461   1.387   .     S
C1425  C1434   1.415   .     A
C1426  O1463   1.387   .     S
C1426  C1430   1.398   .     A
C1426  C1433   1.416   .     A
C1427  O1465   1.384   .     S
C1427  C1431   1.401   .     A
C1428  O1467   1.384   .     S
C1428  C1432   1.402   .     A
C1429  C1432   1.403   .     A
C1429  O1469   1.384   .     S
C1430  O1471   1.384   .     S
C1430  C1431   1.402   .     A
C1434  C587    1.447   1_556 S
N1437  Zn1447  2.029   .     S
N1438  Zn1448  2.029   .     S
O1439  Zn1447  2.029   .     S
O1440  Zn1448  2.029   .     S
O1441  Zn1447  2.031   .     S
O1442  Zn1448  2.031   .     S
O1443  Zn1447  2.002   .     S
O1444  Zn1448  2.002   .     S
O1445  Zn1447  2.004   .     S
O1446  Zn1448  2.004   .     S
O1449  H1450   0.983   .     S
O1451  H1452   0.984   .     S
O1453  H1454   0.983   .     S
O1455  H1456   0.984   .     S
H1458  O611    0.987   1_556 S
O1459  H614    0.988   1_556 S
O1461  H616    0.987   1_556 S
H1464  O617    0.987   1_556 S
O1465  H1466   0.989   .     S
O1467  H1468   0.989   .     S
O1469  H1470   0.989   .     S
O1471  H1472   0.989   .     S
O1473  C1474   1.417   .     S
C1474  C1477   1.518   .     S
C1474  H1475   1.109   .     S
C1474  H1664   1.116   1_455 S
H1476  C1568   1.116   .     S
C1477  H1478   1.105   .     S
C1477  H1479   1.110   .     S
C1477  H1480   1.104   .     S
O1481  C1482   1.413   .     S
C1482  C1485   1.522   .     S
C1482  H1483   1.114   .     S
C1482  H1484   1.111   .     S
C1485  H1486   1.110   .     S
C1485  H1487   1.110   .     S
C1485  H1488   1.108   .     S
O1489  C1490   1.417   .     S
C1490  C1493   1.518   .     S
C1490  H1491   1.109   .     S
C1490  H1586   1.117   .     S
H1492  C1678   1.117   1_455 S
C1493  H1494   1.103   .     S
C1493  H1495   1.110   .     S
C1493  H1496   1.106   .     S
O1497  C1498   1.413   .     S
C1498  C1501   1.522   .     S
C1498  H1500   1.111   .     S
C1498  H1499   1.114   .     S
C1501  H1503   1.110   .     S
C1501  H1502   1.109   .     S
C1501  H1504   1.108   .     S
C1505  O1536   1.297   .     A
C1505  O1533   1.294   .     A
C1505  C1530   1.444   .     S
C1506  O1535   1.294   .     A
C1506  O1534   1.297   .     A
C1506  C1529   1.443   .     S
C1507  O1537   1.293   .     A
C1507  C1525   1.442   .     S
C1507  O1540   1.296   .     A
C1508  O1539   1.294   .     A
C1508  O1538   1.296   .     A
C1508  C1526   1.445   .     S
C1509  N1532   1.374   .     A
C1509  O1543   1.369   .     S
C1510  N1531   1.375   .     A
C1510  O1545   1.374   .     S
C1510  C947    1.415   1_565 S
C1511  N1532   1.373   .     A
C1511  O1547   1.370   .     S
C1512  O1549   1.374   .     S
C1512  N1531   1.375   .     A
C1512  C945    1.414   1_565 S
C1513  O1567   1.385   .     S
C1513  C1530   1.406   .     A
C1514  O1575   1.384   .     S
C1514  C1529   1.409   .     A
C1514  C1610   1.383   .     S
C1515  O1583   1.384   .     S
C1515  C1529   1.405   .     A
C1515  C1607   1.385   .     S
C1516  C1530   1.411   .     A
C1516  O1591   1.384   .     S
C1517  C1527   1.416   .     A
C1517  O1551   1.387   .     S
C1517  C1521   1.398   .     A
C1518  C1522   1.398   .     A
C1518  O1553   1.387   .     S
C1518  C1528   1.415   .     A
C1519  C1523   1.398   .     A
C1519  O1555   1.387   .     S
C1519  C1528   1.415   .     A
C1520  O1557   1.387   .     S
C1520  C1524   1.398   .     A
C1520  C1527   1.416   .     A
C1521  O1559   1.384   .     S
C1521  C1525   1.401   .     A
C1522  O1561   1.384   .     S
C1522  C1526   1.402   .     A
C1523  C1526   1.403   .     A
C1523  O1563   1.384   .     S
C1524  O1565   1.384   .     S
C1524  C1525   1.402   .     A
C1528  C681    1.447   1_556 S
N1531  Zn1541  2.029   .     S
N1532  Zn1542  2.029   .     S
O1533  Zn1541  2.029   .     S
O1534  Zn1542  2.029   .     S
O1535  Zn1541  2.031   .     S
O1536  Zn1542  2.031   .     S
O1537  Zn1541  2.002   .     S
O1538  Zn1542  2.002   .     S
O1539  Zn1541  2.004   .     S
O1540  Zn1542  2.004   .     S
O1543  H1544   0.983   .     S
O1545  H1546   0.984   .     S
O1547  H1548   0.983   .     S
O1549  H1550   0.984   .     S
H1552  O705    0.987   1_556 S
O1553  H708    0.988   1_556 S
O1555  H710    0.987   1_556 S
H1558  O711    0.987   1_556 S
O1559  H1560   0.989   .     S
O1561  H1562   0.989   .     S
O1563  H1564   0.989   .     S
O1565  H1566   0.989   .     S
O1567  C1568   1.417   .     S
C1568  C1571   1.518   .     S
C1568  H1569   1.109   .     S
H1570  C1662   1.116   .     S
C1571  H1572   1.105   .     S
C1571  H1573   1.110   .     S
C1571  H1574   1.104   .     S
O1575  C1576   1.413   .     S
C1576  C1579   1.522   .     S
C1576  H1577   1.114   .     S
C1576  H1578   1.111   .     S
C1579  H1580   1.110   .     S
C1579  H1581   1.110   .     S
C1579  H1582   1.108   .     S
O1583  C1584   1.417   .     S
C1584  C1587   1.518   .     S
C1584  H1585   1.109   .     S
C1584  H1680   1.117   .     S
C1587  H1588   1.103   .     S
C1587  H1589   1.110   .     S
C1587  H1590   1.106   .     S
O1591  C1592   1.413   .     S
C1592  C1595   1.522   .     S
C1592  H1594   1.111   .     S
C1592  H1593   1.114   .     S
C1595  H1597   1.110   .     S
C1595  H1596   1.109   .     S
C1595  H1598   1.108   .     S
C1599  O1630   1.297   .     A
C1599  O1627   1.294   .     A
C1599  C1624   1.444   .     S
C1600  O1629   1.294   .     A
C1600  O1628   1.297   .     A
C1600  C1623   1.443   .     S
C1601  O1631   1.293   .     A
C1601  C1619   1.442   .     S
C1601  O1634   1.296   .     A
C1602  O1633   1.294   .     A
C1602  O1632   1.296   .     A
C1602  C1620   1.445   .     S
C1603  N1626   1.374   .     A
C1603  O1637   1.369   .     S
C1604  N1625   1.375   .     A
C1604  O1639   1.374   .     S
C1604  C1041   1.415   1_565 S
C1605  N1626   1.373   .     A
C1605  O1641   1.370   .     S
C1606  O1643   1.374   .     S
C1606  N1625   1.375   .     A
C1606  C1039   1.414   1_565 S
C1607  O1661   1.385   .     S
C1607  C1624   1.406   .     A
C1608  O1669   1.384   .     S
C1608  C1623   1.409   .     A
C1608  C1422   1.383   1_655 S
C1609  O1677   1.384   .     S
C1609  C1623   1.405   .     A
C1609  C1419   1.385   1_655 S
C1610  C1624   1.411   .     A
C1610  O1685   1.384   .     S
C1611  C1621   1.416   .     A
C1611  O1645   1.387   .     S
C1611  C1615   1.398   .     A
C1612  C1616   1.398   .     A
C1612  O1647   1.387   .     S
C1612  C1622   1.415   .     A
C1613  C1617   1.398   .     A
C1613  O1649   1.387   .     S
C1613  C1622   1.415   .     A
C1614  O1651   1.387   .     S
C1614  C1618   1.398   .     A
C1614  C1621   1.416   .     A
C1615  O1653   1.384   .     S
C1615  C1619   1.401   .     A
C1616  O1655   1.384   .     S
C1616  C1620   1.402   .     A
C1617  C1620   1.403   .     A
C1617  O1657   1.384   .     S
C1618  O1659   1.384   .     S
C1618  C1619   1.402   .     A
C1622  C775    1.447   1_556 S
N1625  Zn1635  2.029   .     S
N1626  Zn1636  2.029   .     S
O1627  Zn1635  2.029   .     S
O1628  Zn1636  2.029   .     S
O1629  Zn1635  2.031   .     S
O1630  Zn1636  2.031   .     S
O1631  Zn1635  2.002   .     S
O1632  Zn1636  2.002   .     S
O1633  Zn1635  2.004   .     S
O1634  Zn1636  2.004   .     S
O1637  H1638   0.983   .     S
O1639  H1640   0.984   .     S
O1641  H1642   0.983   .     S
O1643  H1644   0.984   .     S
H1646  O799    0.987   1_556 S
O1647  H802    0.988   1_556 S
O1649  H804    0.987   1_556 S
H1652  O805    0.987   1_556 S
O1653  H1654   0.989   .     S
O1655  H1656   0.989   .     S
O1657  H1658   0.989   .     S
O1659  H1660   0.989   .     S
O1661  C1662   1.417   .     S
C1662  C1665   1.518   .     S
C1662  H1663   1.109   .     S
H1664  C1474   1.116   1_655 S
C1665  H1666   1.105   .     S
C1665  H1667   1.110   .     S
C1665  H1668   1.104   .     S
O1669  C1670   1.413   .     S
C1670  C1673   1.522   .     S
C1670  H1671   1.114   .     S
C1670  H1672   1.111   .     S
C1673  H1674   1.110   .     S
C1673  H1675   1.110   .     S
C1673  H1676   1.108   .     S
O1677  C1678   1.417   .     S
C1678  C1681   1.518   .     S
C1678  H1679   1.109   .     S
C1678  H1492   1.117   1_655 S
C1681  H1682   1.103   .     S
C1681  H1683   1.110   .     S
C1681  H1684   1.106   .     S
O1685  C1686   1.413   .     S
C1686  C1689   1.522   .     S
C1686  H1688   1.111   .     S
C1686  H1687   1.114   .     S
C1689  H1691   1.110   .     S
C1689  H1690   1.109   .     S
C1689  H1692   1.108   .     S
