data_str_m3_o1_o1_pcu_sym.51
_audit_creation_date              2020-01-03
_audit_creation_method            'Materials Studio'
_symmetry_space_group_name_H-M    'P1'
_symmetry_Int_Tables_number       1
_symmetry_cell_setting            triclinic
loop_
_symmetry_equiv_pos_as_xyz
  x,y,z
_cell_length_a                    30.7029
_cell_length_b                    29.5679
_cell_length_c                    29.6561
_cell_angle_alpha                 93.0941
_cell_angle_beta                  89.3404
_cell_angle_gamma                 90.4565
loop_
_atom_site_label
_atom_site_type_symbol
_atom_site_fract_x
_atom_site_fract_y
_atom_site_fract_z
_atom_site_U_iso_or_equiv
_atom_site_adp_type
_atom_site_occupancy
C1     C     0.06213   0.19181   0.16551   0.00000  Uiso   1.00
C2     C     0.49991   0.20998   0.30721   0.00000  Uiso   1.00
C3     C     0.49720   0.21007   0.02195   0.00000  Uiso   1.00
C4     C     0.00236   0.29009   0.31142   0.00000  Uiso   1.00
C5     C     0.24981   0.03995   0.02634   0.00000  Uiso   1.00
C6     C     0.25195   0.46010   0.30721   0.00000  Uiso   1.00
C7     C     0.24814   0.46005   0.02186   0.00000  Uiso   1.00
C8     C     0.24720   0.04008   0.31154   0.00000  Uiso   1.00
C9     C     0.38445   0.14392   0.12499   0.00000  Uiso   1.00
C10    C     0.11530   0.35651   0.20914   0.00000  Uiso   1.00
C11    C     0.12106   0.34571   0.12688   0.00000  Uiso   1.00
C12    C     0.43727   0.30709   0.16783   0.00000  Uiso   1.00
C13    C     0.37796   0.15668   0.20730   0.00000  Uiso   1.00
C14    C     0.12128   0.15377   0.20243   0.00000  Uiso   1.00
C15    C     0.37506   0.33912   0.13080   0.00000  Uiso   1.00
C16    C     0.39299   0.36605   0.20832   0.00000  Uiso   1.00
C17    C     0.10238   0.12924   0.12446   0.00000  Uiso   1.00
C18    C     0.13746   0.38965   0.12422   0.00000  Uiso   1.00
C19    C     0.35751   0.11469   0.21014   0.00000  Uiso   1.00
C20    C     0.36867   0.10004   0.12825   0.00000  Uiso   1.00
C21    C     0.13160   0.40042   0.20670   0.00000  Uiso   1.00
C22    C     0.37413   0.40766   0.20088   0.00000  Uiso   1.00
C23    C     0.43589   0.19486   0.16625   0.00000  Uiso   1.00
C24    C     0.12567   0.08948   0.12876   0.00000  Uiso   1.00
C25    C     0.13869   0.11125   0.20846   0.00000  Uiso   1.00
C26    C     0.35122   0.37823   0.12562   0.00000  Uiso   1.00
C27    C     0.10329   0.33325   0.16834   0.00000  Uiso   1.00
C28    C     0.39620   0.16790   0.16544   0.00000  Uiso   1.00
C29    C     0.39913   0.33558   0.17047   0.00000  Uiso   1.00
C30    C     0.09777   0.15982   0.16278   0.00000  Uiso   1.00
C31    C     0.34959   0.08850   0.16949   0.00000  Uiso   1.00
C32    C     0.14856   0.41367   0.16500   0.00000  Uiso   1.00
C33    C     0.14751   0.08343   0.16947   0.00000  Uiso   1.00
C34    C     0.06404   0.30543   0.16713   0.00000  Uiso   1.00
C35    C     0.34811   0.41066   0.16250   0.00000  Uiso   1.00
C36    C     0.49955   0.33310   0.05343   0.00000  Uiso   1.00
C37    C     0.00737   0.16668   0.28088   0.00000  Uiso   1.00
C38    C     0.48864   0.16719   0.04436   0.00000  Uiso   1.00
C39    C     0.00825   0.33344   0.28889   0.00000  Uiso   1.00
C40    C     0.25449   0.08282   0.05363   0.00000  Uiso   1.00
C41    C     0.26041   0.41709   0.28082   0.00000  Uiso   1.00
C42    C     0.23939   0.41707   0.04396   0.00000  Uiso   1.00
C43    C     0.24179   0.08339   0.28903   0.00000  Uiso   1.00
C44    C     0.38348   0.16638   0.08098   0.00000  Uiso   1.00
C45    C     0.31206   0.44189   0.16546   0.00000  Uiso   1.00
C46    C     0.11709   0.33269   0.25237   0.00000  Uiso   1.00
C47    C     0.12729   0.31066   0.08908   0.00000  Uiso   1.00
C48    C     0.38015   0.18914   0.24753   0.00000  Uiso   1.00
C49    C     0.13231   0.19342   0.23375   0.00000  Uiso   1.00
C50    C     0.37297   0.29991   0.09696   0.00000  Uiso   1.00
C51    C     0.39819   0.35126   0.25555   0.00000  Uiso   1.00
C52    C     0.08552   0.13898   0.07937   0.00000  Uiso   1.00
C53    C     0.13444   0.41322   0.08095   0.00000  Uiso   1.00
C54    C     0.34832   0.09627   0.25517   0.00000  Uiso   1.00
C55    C     0.37740   0.06517   0.09085   0.00000  Uiso   1.00
C56    C     0.18655   0.05606   0.16760   0.00000  Uiso   1.00
C57    C     0.12454   0.43416   0.24543   0.00000  Uiso   1.00
C58    C     0.38556   0.44939   0.22919   0.00000  Uiso   1.00
C59    C     0.12556   0.05232   0.09255   0.00000  Uiso   1.00
C60    C     0.13991   0.09286   0.25446   0.00000  Uiso   1.00
C61    C     0.33220   0.38534   0.08092   0.00000  Uiso   1.00
C62    C     0.18651   0.44347   0.16615   0.00000  Uiso   1.00
C63    C     0.31294   0.05725   0.16738   0.00000  Uiso   1.00
C64    C     0.00168   0.28993   0.02626   0.00000  Uiso   1.00
H65    H     0.02781   0.34610   0.07147   0.00000  Uiso   1.00
H66    H     0.10190   0.30001   0.25590   0.00000  Uiso   1.00
H67    H     0.11377   0.27687   0.09134   0.00000  Uiso   1.00
H68    H     0.38794   0.17773   0.28060   0.00000  Uiso   1.00
H69    H     0.11759   0.22604   0.22982   0.00000  Uiso   1.00
H70    H     0.37229   0.26593   0.10891   0.00000  Uiso   1.00
H71    H     0.40606   0.31663   0.26191   0.00000  Uiso   1.00
H72    H     0.06477   0.11450   0.06124   0.00000  Uiso   1.00
H73    H     0.14891   0.44615   0.07693   0.00000  Uiso   1.00
H74    H     0.35475   0.06089   0.26032   0.00000  Uiso   1.00
H75    H     0.38870   0.07481   0.05797   0.00000  Uiso   1.00
H76    H     0.48933   0.15736   0.25093   0.00000  Uiso   1.00
H77    H     0.11511   0.42368   0.27858   0.00000  Uiso   1.00
H78    H     0.36742   0.48042   0.22681   0.00000  Uiso   1.00
H79    H     0.12487   0.01750   0.10221   0.00000  Uiso   1.00
H80    H     0.14996   0.05851   0.25910   0.00000  Uiso   1.00
H81    H     0.31040   0.36012   0.06544   0.00000  Uiso   1.00
H82    H     0.00031   0.16228   0.07768   0.00000  Uiso   1.00
H83    H     0.49480   0.33824   0.25632   0.00000  Uiso   1.00
H84    H     0.28670   0.09558   0.06215   0.00000  Uiso   1.00
H85    H     0.24258   0.40771   0.25066   0.00000  Uiso   1.00
H86    H     0.24942   0.41257   0.07791   0.00000  Uiso   1.00
H87    H     0.25204   0.08686   0.25478   0.00000  Uiso   1.00
H88    H     0.39861   0.19897   0.07679   0.00000  Uiso   1.00
N89    N     0.00000   0.25000   0.28573   0.00000  Uiso   1.00
N90    N     0.00000   0.25000   0.04760   0.00000  Uiso   1.00
N91    N     0.25000  -0.00000   0.28573   0.00000  Uiso   1.00
N92    N     0.25000   0.00000   0.04760   0.00000  Uiso   1.00
O93    O     0.04581   0.20419   0.20487   0.00000  Uiso   1.00
O94    O     0.20420   0.04581   0.12846   0.00000  Uiso   1.00
O95    O     0.20420   0.04581   0.20487   0.00000  Uiso   1.00
O96    O     0.29581   0.45419   0.12846   0.00000  Uiso   1.00
O97    O     0.20420   0.45419   0.12846   0.00000  Uiso   1.00
O98    O     0.29581   0.04581   0.20487   0.00000  Uiso   1.00
O99    O     0.29581   0.04581   0.12846   0.00000  Uiso   1.00
O100   O     0.20420   0.45419   0.20487   0.00000  Uiso   1.00
O101   O     0.46646   0.35573   0.05378   0.00000  Uiso   1.00
O102   O     0.03470   0.14026   0.29296   0.00000  Uiso   1.00
O103   O     0.46718   0.13670   0.02593   0.00000  Uiso   1.00
O104   O     0.45420   0.29581   0.12846   0.00000  Uiso   1.00
O105   O     0.02957   0.36461   0.30630   0.00000  Uiso   1.00
O106   O     0.22253   0.10493   0.06538   0.00000  Uiso   1.00
O107   O     0.28825   0.39122   0.29292   0.00000  Uiso   1.00
O108   O     0.21945   0.38601   0.02456   0.00000  Uiso   1.00
O109   O     0.22491   0.11636   0.30837   0.00000  Uiso   1.00
O110   O     0.36263   0.15020   0.04915   0.00000  Uiso   1.00
O111   O     0.13892   0.34762   0.28403   0.00000  Uiso   1.00
O112   O     0.15045   0.31779   0.05644   0.00000  Uiso   1.00
O113   O     0.37357   0.22940   0.24359   0.00000  Uiso   1.00
O114   O     0.16070   0.19121   0.26203   0.00000  Uiso   1.00
O115   O     0.45420   0.29581   0.20487   0.00000  Uiso   1.00
O116   O     0.37394   0.30490   0.05635   0.00000  Uiso   1.00
O117   O     0.39007   0.37640   0.28852   0.00000  Uiso   1.00
O118   O     0.09675   0.17335   0.06119   0.00000  Uiso   1.00
O119   O     0.11251   0.39750   0.04969   0.00000  Uiso   1.00
O120   O     0.33260   0.11964   0.28630   0.00000  Uiso   1.00
O121   O     0.37517   0.02476   0.09730   0.00000  Uiso   1.00
O122   O     0.12595   0.47475   0.23987   0.00000  Uiso   1.00
O123   O     0.41784   0.45082   0.25292   0.00000  Uiso   1.00
O124   O     0.12827   0.05989   0.05255   0.00000  Uiso   1.00
O125   O     0.12641   0.11459   0.28783   0.00000  Uiso   1.00
O126   O     0.04581   0.20419   0.12846   0.00000  Uiso   1.00
O127   O     0.34292   0.41819   0.05999   0.00000  Uiso   1.00
O128   O     0.45420   0.20419   0.12846   0.00000  Uiso   1.00
O129   O     0.04581   0.29581   0.20487   0.00000  Uiso   1.00
O130   O     0.04581   0.29581   0.12846   0.00000  Uiso   1.00
O131   O     0.45420   0.20419   0.20487   0.00000  Uiso   1.00
O132   O     0.29581   0.45419   0.20487   0.00000  Uiso   1.00
Zn133  Zn    0.00000   0.25000   0.21771   0.00000  Uiso   1.00
Zn134  Zn    0.00000   0.25000   0.11563   0.00000  Uiso   1.00
Zn135  Zn    0.25000   0.00000   0.21771   0.00000  Uiso   1.00
Zn136  Zn    0.25000   0.00000   0.11563   0.00000  Uiso   1.00
C137   C     0.56213   0.19181   0.16551   0.00000  Uiso   1.00
C138   C     0.99991   0.20998   0.30721   0.00000  Uiso   1.00
C139   C     0.99720   0.21007   0.02195   0.00000  Uiso   1.00
C140   C     0.50236   0.29009   0.31142   0.00000  Uiso   1.00
C141   C     0.74981   0.03995   0.02634   0.00000  Uiso   1.00
C142   C     0.75195   0.46010   0.30721   0.00000  Uiso   1.00
C143   C     0.74814   0.46005   0.02186   0.00000  Uiso   1.00
C144   C     0.74720   0.04008   0.31154   0.00000  Uiso   1.00
C145   C     0.88445   0.14392   0.12499   0.00000  Uiso   1.00
C146   C     0.61530   0.35651   0.20914   0.00000  Uiso   1.00
C147   C     0.62106   0.34571   0.12688   0.00000  Uiso   1.00
C148   C     0.93727   0.30709   0.16783   0.00000  Uiso   1.00
C149   C     0.87796   0.15668   0.20730   0.00000  Uiso   1.00
C150   C     0.62128   0.15377   0.20243   0.00000  Uiso   1.00
C151   C     0.87506   0.33912   0.13080   0.00000  Uiso   1.00
C152   C     0.89299   0.36605   0.20832   0.00000  Uiso   1.00
C153   C     0.60238   0.12924   0.12446   0.00000  Uiso   1.00
C154   C     0.63746   0.38965   0.12422   0.00000  Uiso   1.00
C155   C     0.85751   0.11469   0.21014   0.00000  Uiso   1.00
C156   C     0.86867   0.10004   0.12825   0.00000  Uiso   1.00
C157   C     0.63160   0.40042   0.20670   0.00000  Uiso   1.00
C158   C     0.87413   0.40766   0.20088   0.00000  Uiso   1.00
C159   C     0.93589   0.19486   0.16625   0.00000  Uiso   1.00
C160   C     0.62567   0.08948   0.12876   0.00000  Uiso   1.00
C161   C     0.63869   0.11125   0.20846   0.00000  Uiso   1.00
C162   C     0.85122   0.37823   0.12562   0.00000  Uiso   1.00
C163   C     0.60329   0.33325   0.16834   0.00000  Uiso   1.00
C164   C     0.89620   0.16790   0.16544   0.00000  Uiso   1.00
C165   C     0.89913   0.33558   0.17047   0.00000  Uiso   1.00
C166   C     0.59777   0.15982   0.16278   0.00000  Uiso   1.00
C167   C     0.84959   0.08850   0.16949   0.00000  Uiso   1.00
C168   C     0.64856   0.41367   0.16500   0.00000  Uiso   1.00
C169   C     0.64751   0.08343   0.16947   0.00000  Uiso   1.00
C170   C     0.56404   0.30543   0.16713   0.00000  Uiso   1.00
C171   C     0.84811   0.41066   0.16250   0.00000  Uiso   1.00
C172   C     0.99955   0.33310   0.05343   0.00000  Uiso   1.00
C173   C     0.50737   0.16668   0.28088   0.00000  Uiso   1.00
C174   C     0.98864   0.16719   0.04436   0.00000  Uiso   1.00
C175   C     0.50825   0.33344   0.28889   0.00000  Uiso   1.00
C176   C     0.75449   0.08282   0.05363   0.00000  Uiso   1.00
C177   C     0.76041   0.41709   0.28082   0.00000  Uiso   1.00
C178   C     0.73939   0.41707   0.04396   0.00000  Uiso   1.00
C179   C     0.74179   0.08339   0.28903   0.00000  Uiso   1.00
C180   C     0.88348   0.16638   0.08098   0.00000  Uiso   1.00
C181   C     0.81206   0.44189   0.16546   0.00000  Uiso   1.00
C182   C     0.61709   0.33269   0.25237   0.00000  Uiso   1.00
C183   C     0.62729   0.31066   0.08908   0.00000  Uiso   1.00
C184   C     0.88015   0.18914   0.24753   0.00000  Uiso   1.00
C185   C     0.63231   0.19342   0.23375   0.00000  Uiso   1.00
C186   C     0.87297   0.29991   0.09696   0.00000  Uiso   1.00
C187   C     0.89819   0.35126   0.25555   0.00000  Uiso   1.00
C188   C     0.58552   0.13898   0.07937   0.00000  Uiso   1.00
C189   C     0.63444   0.41322   0.08095   0.00000  Uiso   1.00
C190   C     0.84832   0.09627   0.25517   0.00000  Uiso   1.00
C191   C     0.87740   0.06517   0.09085   0.00000  Uiso   1.00
C192   C     0.68655   0.05606   0.16760   0.00000  Uiso   1.00
C193   C     0.62454   0.43416   0.24543   0.00000  Uiso   1.00
C194   C     0.88556   0.44939   0.22919   0.00000  Uiso   1.00
C195   C     0.62556   0.05232   0.09255   0.00000  Uiso   1.00
C196   C     0.63991   0.09286   0.25446   0.00000  Uiso   1.00
C197   C     0.83220   0.38534   0.08092   0.00000  Uiso   1.00
C198   C     0.68651   0.44347   0.16615   0.00000  Uiso   1.00
C199   C     0.81294   0.05725   0.16738   0.00000  Uiso   1.00
C200   C     0.50168   0.28993   0.02626   0.00000  Uiso   1.00
H201   H     0.52781   0.34610   0.07147   0.00000  Uiso   1.00
H202   H     0.60190   0.30001   0.25590   0.00000  Uiso   1.00
H203   H     0.61377   0.27687   0.09134   0.00000  Uiso   1.00
H204   H     0.88794   0.17773   0.28060   0.00000  Uiso   1.00
H205   H     0.61759   0.22604   0.22982   0.00000  Uiso   1.00
H206   H     0.87229   0.26593   0.10891   0.00000  Uiso   1.00
H207   H     0.90606   0.31663   0.26191   0.00000  Uiso   1.00
H208   H     0.56477   0.11450   0.06124   0.00000  Uiso   1.00
H209   H     0.64891   0.44615   0.07693   0.00000  Uiso   1.00
H210   H     0.85475   0.06089   0.26032   0.00000  Uiso   1.00
H211   H     0.88870   0.07481   0.05797   0.00000  Uiso   1.00
H212   H     0.98933   0.15736   0.25093   0.00000  Uiso   1.00
H213   H     0.61511   0.42368   0.27858   0.00000  Uiso   1.00
H214   H     0.86742   0.48042   0.22681   0.00000  Uiso   1.00
H215   H     0.62487   0.01750   0.10221   0.00000  Uiso   1.00
H216   H     0.64996   0.05851   0.25910   0.00000  Uiso   1.00
H217   H     0.81040   0.36012   0.06544   0.00000  Uiso   1.00
H218   H     0.50031   0.16228   0.07768   0.00000  Uiso   1.00
H219   H     0.99480   0.33824   0.25632   0.00000  Uiso   1.00
H220   H     0.78670   0.09558   0.06215   0.00000  Uiso   1.00
H221   H     0.74258   0.40771   0.25066   0.00000  Uiso   1.00
H222   H     0.74942   0.41257   0.07791   0.00000  Uiso   1.00
H223   H     0.75204   0.08686   0.25478   0.00000  Uiso   1.00
H224   H     0.89861   0.19897   0.07679   0.00000  Uiso   1.00
N225   N     0.50000   0.25000   0.28573   0.00000  Uiso   1.00
N226   N     0.50000   0.25000   0.04760   0.00000  Uiso   1.00
N227   N     0.75000  -0.00000   0.28573   0.00000  Uiso   1.00
N228   N     0.75000   0.00000   0.04760   0.00000  Uiso   1.00
O229   O     0.54581   0.20419   0.20487   0.00000  Uiso   1.00
O230   O     0.70420   0.04581   0.12846   0.00000  Uiso   1.00
O231   O     0.70420   0.04581   0.20487   0.00000  Uiso   1.00
O232   O     0.79581   0.45419   0.12846   0.00000  Uiso   1.00
O233   O     0.70420   0.45419   0.12846   0.00000  Uiso   1.00
O234   O     0.79581   0.04581   0.20487   0.00000  Uiso   1.00
O235   O     0.79581   0.04581   0.12846   0.00000  Uiso   1.00
O236   O     0.70420   0.45419   0.20487   0.00000  Uiso   1.00
O237   O     0.96646   0.35573   0.05378   0.00000  Uiso   1.00
O238   O     0.53470   0.14026   0.29296   0.00000  Uiso   1.00
O239   O     0.96718   0.13670   0.02593   0.00000  Uiso   1.00
O240   O     0.95420   0.29581   0.12846   0.00000  Uiso   1.00
O241   O     0.52957   0.36461   0.30630   0.00000  Uiso   1.00
O242   O     0.72253   0.10493   0.06538   0.00000  Uiso   1.00
O243   O     0.78825   0.39122   0.29292   0.00000  Uiso   1.00
O244   O     0.71945   0.38601   0.02456   0.00000  Uiso   1.00
O245   O     0.72491   0.11636   0.30837   0.00000  Uiso   1.00
O246   O     0.86263   0.15020   0.04915   0.00000  Uiso   1.00
O247   O     0.63892   0.34762   0.28403   0.00000  Uiso   1.00
O248   O     0.65045   0.31779   0.05644   0.00000  Uiso   1.00
O249   O     0.87357   0.22940   0.24359   0.00000  Uiso   1.00
O250   O     0.66070   0.19121   0.26203   0.00000  Uiso   1.00
O251   O     0.95420   0.29581   0.20487   0.00000  Uiso   1.00
O252   O     0.87394   0.30490   0.05635   0.00000  Uiso   1.00
O253   O     0.89007   0.37640   0.28852   0.00000  Uiso   1.00
O254   O     0.59675   0.17335   0.06119   0.00000  Uiso   1.00
O255   O     0.61251   0.39750   0.04969   0.00000  Uiso   1.00
O256   O     0.83260   0.11964   0.28630   0.00000  Uiso   1.00
O257   O     0.87517   0.02476   0.09730   0.00000  Uiso   1.00
O258   O     0.62595   0.47475   0.23987   0.00000  Uiso   1.00
O259   O     0.91784   0.45082   0.25292   0.00000  Uiso   1.00
O260   O     0.62827   0.05989   0.05255   0.00000  Uiso   1.00
O261   O     0.62641   0.11459   0.28783   0.00000  Uiso   1.00
O262   O     0.54581   0.20419   0.12846   0.00000  Uiso   1.00
O263   O     0.84292   0.41819   0.05999   0.00000  Uiso   1.00
O264   O     0.95420   0.20419   0.12846   0.00000  Uiso   1.00
O265   O     0.54581   0.29581   0.20487   0.00000  Uiso   1.00
O266   O     0.54581   0.29581   0.12846   0.00000  Uiso   1.00
O267   O     0.95420   0.20419   0.20487   0.00000  Uiso   1.00
O268   O     0.79581   0.45419   0.20487   0.00000  Uiso   1.00
Zn269  Zn    0.50000   0.25000   0.21771   0.00000  Uiso   1.00
Zn270  Zn    0.50000   0.25000   0.11563   0.00000  Uiso   1.00
Zn271  Zn    0.75000   0.00000   0.21771   0.00000  Uiso   1.00
Zn272  Zn    0.75000   0.00000   0.11563   0.00000  Uiso   1.00
C273   C     0.06213   0.69181   0.16551   0.00000  Uiso   1.00
C274   C     0.49991   0.70998   0.30721   0.00000  Uiso   1.00
C275   C     0.49720   0.71007   0.02195   0.00000  Uiso   1.00
C276   C     0.00236   0.79009   0.31142   0.00000  Uiso   1.00
C277   C     0.24981   0.53995   0.02634   0.00000  Uiso   1.00
C278   C     0.25195   0.96010   0.30721   0.00000  Uiso   1.00
C279   C     0.24814   0.96005   0.02186   0.00000  Uiso   1.00
C280   C     0.24720   0.54008   0.31154   0.00000  Uiso   1.00
C281   C     0.38445   0.64392   0.12499   0.00000  Uiso   1.00
C282   C     0.11530   0.85651   0.20914   0.00000  Uiso   1.00
C283   C     0.12106   0.84571   0.12688   0.00000  Uiso   1.00
C284   C     0.43727   0.80709   0.16783   0.00000  Uiso   1.00
C285   C     0.37796   0.65668   0.20730   0.00000  Uiso   1.00
C286   C     0.12128   0.65377   0.20243   0.00000  Uiso   1.00
C287   C     0.37506   0.83912   0.13080   0.00000  Uiso   1.00
C288   C     0.39299   0.86605   0.20832   0.00000  Uiso   1.00
C289   C     0.10238   0.62924   0.12446   0.00000  Uiso   1.00
C290   C     0.13746   0.88965   0.12422   0.00000  Uiso   1.00
C291   C     0.35751   0.61469   0.21014   0.00000  Uiso   1.00
C292   C     0.36867   0.60004   0.12825   0.00000  Uiso   1.00
C293   C     0.13160   0.90042   0.20670   0.00000  Uiso   1.00
C294   C     0.37413   0.90766   0.20088   0.00000  Uiso   1.00
C295   C     0.43589   0.69486   0.16625   0.00000  Uiso   1.00
C296   C     0.12567   0.58948   0.12876   0.00000  Uiso   1.00
C297   C     0.13869   0.61125   0.20846   0.00000  Uiso   1.00
C298   C     0.35122   0.87823   0.12562   0.00000  Uiso   1.00
C299   C     0.10329   0.83325   0.16834   0.00000  Uiso   1.00
C300   C     0.39620   0.66790   0.16544   0.00000  Uiso   1.00
C301   C     0.39913   0.83558   0.17047   0.00000  Uiso   1.00
C302   C     0.09777   0.65982   0.16278   0.00000  Uiso   1.00
C303   C     0.34959   0.58850   0.16949   0.00000  Uiso   1.00
C304   C     0.14856   0.91367   0.16500   0.00000  Uiso   1.00
C305   C     0.14751   0.58343   0.16947   0.00000  Uiso   1.00
C306   C     0.06404   0.80543   0.16713   0.00000  Uiso   1.00
C307   C     0.34811   0.91066   0.16250   0.00000  Uiso   1.00
C308   C     0.49955   0.83310   0.05343   0.00000  Uiso   1.00
C309   C     0.00737   0.66668   0.28088   0.00000  Uiso   1.00
C310   C     0.48864   0.66719   0.04436   0.00000  Uiso   1.00
C311   C     0.00825   0.83344   0.28889   0.00000  Uiso   1.00
C312   C     0.25449   0.58282   0.05363   0.00000  Uiso   1.00
C313   C     0.26041   0.91709   0.28082   0.00000  Uiso   1.00
C314   C     0.23939   0.91707   0.04396   0.00000  Uiso   1.00
C315   C     0.24179   0.58339   0.28903   0.00000  Uiso   1.00
C316   C     0.38348   0.66638   0.08098   0.00000  Uiso   1.00
C317   C     0.31206   0.94189   0.16546   0.00000  Uiso   1.00
C318   C     0.11709   0.83269   0.25237   0.00000  Uiso   1.00
C319   C     0.12729   0.81066   0.08908   0.00000  Uiso   1.00
C320   C     0.38015   0.68914   0.24753   0.00000  Uiso   1.00
C321   C     0.13231   0.69342   0.23375   0.00000  Uiso   1.00
C322   C     0.37297   0.79991   0.09696   0.00000  Uiso   1.00
C323   C     0.39819   0.85126   0.25555   0.00000  Uiso   1.00
C324   C     0.08552   0.63898   0.07937   0.00000  Uiso   1.00
C325   C     0.13444   0.91322   0.08095   0.00000  Uiso   1.00
C326   C     0.34832   0.59627   0.25517   0.00000  Uiso   1.00
C327   C     0.37740   0.56517   0.09085   0.00000  Uiso   1.00
C328   C     0.18655   0.55606   0.16760   0.00000  Uiso   1.00
C329   C     0.12454   0.93416   0.24543   0.00000  Uiso   1.00
C330   C     0.38556   0.94939   0.22919   0.00000  Uiso   1.00
C331   C     0.12556   0.55232   0.09255   0.00000  Uiso   1.00
C332   C     0.13991   0.59286   0.25446   0.00000  Uiso   1.00
C333   C     0.33220   0.88534   0.08092   0.00000  Uiso   1.00
C334   C     0.18651   0.94347   0.16615   0.00000  Uiso   1.00
C335   C     0.31294   0.55725   0.16738   0.00000  Uiso   1.00
C336   C     0.00168   0.78993   0.02626   0.00000  Uiso   1.00
H337   H     0.02781   0.84610   0.07147   0.00000  Uiso   1.00
H338   H     0.10190   0.80001   0.25590   0.00000  Uiso   1.00
H339   H     0.11377   0.77687   0.09134   0.00000  Uiso   1.00
H340   H     0.38794   0.67773   0.28060   0.00000  Uiso   1.00
H341   H     0.11759   0.72604   0.22982   0.00000  Uiso   1.00
H342   H     0.37229   0.76593   0.10891   0.00000  Uiso   1.00
H343   H     0.40606   0.81663   0.26191   0.00000  Uiso   1.00
H344   H     0.06477   0.61450   0.06124   0.00000  Uiso   1.00
H345   H     0.14891   0.94615   0.07693   0.00000  Uiso   1.00
H346   H     0.35475   0.56089   0.26032   0.00000  Uiso   1.00
H347   H     0.38870   0.57481   0.05797   0.00000  Uiso   1.00
H348   H     0.48933   0.65736   0.25093   0.00000  Uiso   1.00
H349   H     0.11511   0.92368   0.27858   0.00000  Uiso   1.00
H350   H     0.36742   0.98042   0.22681   0.00000  Uiso   1.00
H351   H     0.12487   0.51750   0.10221   0.00000  Uiso   1.00
H352   H     0.14996   0.55851   0.25910   0.00000  Uiso   1.00
H353   H     0.31040   0.86012   0.06544   0.00000  Uiso   1.00
H354   H     0.00031   0.66228   0.07768   0.00000  Uiso   1.00
H355   H     0.49480   0.83824   0.25632   0.00000  Uiso   1.00
H356   H     0.28670   0.59558   0.06215   0.00000  Uiso   1.00
H357   H     0.24258   0.90771   0.25066   0.00000  Uiso   1.00
H358   H     0.24942   0.91257   0.07791   0.00000  Uiso   1.00
H359   H     0.25204   0.58686   0.25478   0.00000  Uiso   1.00
H360   H     0.39861   0.69897   0.07679   0.00000  Uiso   1.00
N361   N     0.00000   0.75000   0.28573   0.00000  Uiso   1.00
N362   N     0.00000   0.75000   0.04760   0.00000  Uiso   1.00
N363   N     0.25000   0.50000   0.28573   0.00000  Uiso   1.00
N364   N     0.25000   0.50000   0.04760   0.00000  Uiso   1.00
O365   O     0.04581   0.70419   0.20487   0.00000  Uiso   1.00
O366   O     0.20420   0.54581   0.12846   0.00000  Uiso   1.00
O367   O     0.20420   0.54581   0.20487   0.00000  Uiso   1.00
O368   O     0.29581   0.95419   0.12846   0.00000  Uiso   1.00
O369   O     0.20420   0.95419   0.12846   0.00000  Uiso   1.00
O370   O     0.29581   0.54581   0.20487   0.00000  Uiso   1.00
O371   O     0.29581   0.54581   0.12846   0.00000  Uiso   1.00
O372   O     0.20420   0.95419   0.20487   0.00000  Uiso   1.00
O373   O     0.46646   0.85573   0.05378   0.00000  Uiso   1.00
O374   O     0.03470   0.64026   0.29296   0.00000  Uiso   1.00
O375   O     0.46718   0.63670   0.02593   0.00000  Uiso   1.00
O376   O     0.45420   0.79581   0.12846   0.00000  Uiso   1.00
O377   O     0.02957   0.86461   0.30630   0.00000  Uiso   1.00
O378   O     0.22253   0.60493   0.06538   0.00000  Uiso   1.00
O379   O     0.28825   0.89122   0.29292   0.00000  Uiso   1.00
O380   O     0.21945   0.88601   0.02456   0.00000  Uiso   1.00
O381   O     0.22491   0.61636   0.30837   0.00000  Uiso   1.00
O382   O     0.36263   0.65020   0.04915   0.00000  Uiso   1.00
O383   O     0.13892   0.84762   0.28403   0.00000  Uiso   1.00
O384   O     0.15045   0.81779   0.05644   0.00000  Uiso   1.00
O385   O     0.37357   0.72940   0.24359   0.00000  Uiso   1.00
O386   O     0.16070   0.69121   0.26203   0.00000  Uiso   1.00
O387   O     0.45420   0.79581   0.20487   0.00000  Uiso   1.00
O388   O     0.37394   0.80490   0.05635   0.00000  Uiso   1.00
O389   O     0.39007   0.87640   0.28852   0.00000  Uiso   1.00
O390   O     0.09675   0.67335   0.06119   0.00000  Uiso   1.00
O391   O     0.11251   0.89750   0.04969   0.00000  Uiso   1.00
O392   O     0.33260   0.61964   0.28630   0.00000  Uiso   1.00
O393   O     0.37517   0.52476   0.09730   0.00000  Uiso   1.00
O394   O     0.12595   0.97475   0.23987   0.00000  Uiso   1.00
O395   O     0.41784   0.95082   0.25292   0.00000  Uiso   1.00
O396   O     0.12827   0.55989   0.05255   0.00000  Uiso   1.00
O397   O     0.12641   0.61459   0.28783   0.00000  Uiso   1.00
O398   O     0.04581   0.70419   0.12846   0.00000  Uiso   1.00
O399   O     0.34292   0.91819   0.05999   0.00000  Uiso   1.00
O400   O     0.45420   0.70419   0.12846   0.00000  Uiso   1.00
O401   O     0.04581   0.79581   0.20487   0.00000  Uiso   1.00
O402   O     0.04581   0.79581   0.12846   0.00000  Uiso   1.00
O403   O     0.45420   0.70419   0.20487   0.00000  Uiso   1.00
O404   O     0.29581   0.95419   0.20487   0.00000  Uiso   1.00
Zn405  Zn    0.00000   0.75000   0.21771   0.00000  Uiso   1.00
Zn406  Zn    0.00000   0.75000   0.11563   0.00000  Uiso   1.00
Zn407  Zn    0.25000   0.50000   0.21771   0.00000  Uiso   1.00
Zn408  Zn    0.25000   0.50000   0.11563   0.00000  Uiso   1.00
C409   C     0.56213   0.69181   0.16551   0.00000  Uiso   1.00
C410   C     0.99991   0.70998   0.30721   0.00000  Uiso   1.00
C411   C     0.99720   0.71007   0.02195   0.00000  Uiso   1.00
C412   C     0.50236   0.79009   0.31142   0.00000  Uiso   1.00
C413   C     0.74981   0.53995   0.02634   0.00000  Uiso   1.00
C414   C     0.75195   0.96010   0.30721   0.00000  Uiso   1.00
C415   C     0.74814   0.96005   0.02186   0.00000  Uiso   1.00
C416   C     0.74720   0.54008   0.31154   0.00000  Uiso   1.00
C417   C     0.88445   0.64392   0.12499   0.00000  Uiso   1.00
C418   C     0.61530   0.85651   0.20914   0.00000  Uiso   1.00
C419   C     0.62106   0.84571   0.12688   0.00000  Uiso   1.00
C420   C     0.93727   0.80709   0.16783   0.00000  Uiso   1.00
C421   C     0.87796   0.65668   0.20730   0.00000  Uiso   1.00
C422   C     0.62128   0.65377   0.20243   0.00000  Uiso   1.00
C423   C     0.87506   0.83912   0.13080   0.00000  Uiso   1.00
C424   C     0.89299   0.86605   0.20832   0.00000  Uiso   1.00
C425   C     0.60238   0.62924   0.12446   0.00000  Uiso   1.00
C426   C     0.63746   0.88965   0.12422   0.00000  Uiso   1.00
C427   C     0.85751   0.61469   0.21014   0.00000  Uiso   1.00
C428   C     0.86867   0.60004   0.12825   0.00000  Uiso   1.00
C429   C     0.63160   0.90042   0.20670   0.00000  Uiso   1.00
C430   C     0.87413   0.90766   0.20088   0.00000  Uiso   1.00
C431   C     0.93589   0.69486   0.16625   0.00000  Uiso   1.00
C432   C     0.62567   0.58948   0.12876   0.00000  Uiso   1.00
C433   C     0.63869   0.61125   0.20846   0.00000  Uiso   1.00
C434   C     0.85122   0.87823   0.12562   0.00000  Uiso   1.00
C435   C     0.60329   0.83325   0.16834   0.00000  Uiso   1.00
C436   C     0.89620   0.66790   0.16544   0.00000  Uiso   1.00
C437   C     0.89913   0.83558   0.17047   0.00000  Uiso   1.00
C438   C     0.59777   0.65982   0.16278   0.00000  Uiso   1.00
C439   C     0.84959   0.58850   0.16949   0.00000  Uiso   1.00
C440   C     0.64856   0.91367   0.16500   0.00000  Uiso   1.00
C441   C     0.64751   0.58343   0.16947   0.00000  Uiso   1.00
C442   C     0.56404   0.80543   0.16713   0.00000  Uiso   1.00
C443   C     0.84811   0.91066   0.16250   0.00000  Uiso   1.00
C444   C     0.99955   0.83310   0.05343   0.00000  Uiso   1.00
C445   C     0.50737   0.66668   0.28088   0.00000  Uiso   1.00
C446   C     0.98864   0.66719   0.04436   0.00000  Uiso   1.00
C447   C     0.50825   0.83344   0.28889   0.00000  Uiso   1.00
C448   C     0.75449   0.58282   0.05363   0.00000  Uiso   1.00
C449   C     0.76041   0.91709   0.28082   0.00000  Uiso   1.00
C450   C     0.73939   0.91707   0.04396   0.00000  Uiso   1.00
C451   C     0.74179   0.58339   0.28903   0.00000  Uiso   1.00
C452   C     0.88348   0.66638   0.08098   0.00000  Uiso   1.00
C453   C     0.81206   0.94189   0.16546   0.00000  Uiso   1.00
C454   C     0.61709   0.83269   0.25237   0.00000  Uiso   1.00
C455   C     0.62729   0.81066   0.08908   0.00000  Uiso   1.00
C456   C     0.88015   0.68914   0.24753   0.00000  Uiso   1.00
C457   C     0.63231   0.69342   0.23375   0.00000  Uiso   1.00
C458   C     0.87297   0.79991   0.09696   0.00000  Uiso   1.00
C459   C     0.89819   0.85126   0.25555   0.00000  Uiso   1.00
C460   C     0.58552   0.63898   0.07937   0.00000  Uiso   1.00
C461   C     0.63444   0.91322   0.08095   0.00000  Uiso   1.00
C462   C     0.84832   0.59627   0.25517   0.00000  Uiso   1.00
C463   C     0.87740   0.56517   0.09085   0.00000  Uiso   1.00
C464   C     0.68655   0.55606   0.16760   0.00000  Uiso   1.00
C465   C     0.62454   0.93416   0.24543   0.00000  Uiso   1.00
C466   C     0.88556   0.94939   0.22919   0.00000  Uiso   1.00
C467   C     0.62556   0.55232   0.09255   0.00000  Uiso   1.00
C468   C     0.63991   0.59286   0.25446   0.00000  Uiso   1.00
C469   C     0.83220   0.88534   0.08092   0.00000  Uiso   1.00
C470   C     0.68651   0.94347   0.16615   0.00000  Uiso   1.00
C471   C     0.81294   0.55725   0.16738   0.00000  Uiso   1.00
C472   C     0.50168   0.78993   0.02626   0.00000  Uiso   1.00
H473   H     0.52781   0.84610   0.07147   0.00000  Uiso   1.00
H474   H     0.60190   0.80001   0.25590   0.00000  Uiso   1.00
H475   H     0.61377   0.77687   0.09134   0.00000  Uiso   1.00
H476   H     0.88794   0.67773   0.28060   0.00000  Uiso   1.00
H477   H     0.61759   0.72604   0.22982   0.00000  Uiso   1.00
H478   H     0.87229   0.76593   0.10891   0.00000  Uiso   1.00
H479   H     0.90606   0.81663   0.26191   0.00000  Uiso   1.00
H480   H     0.56477   0.61450   0.06124   0.00000  Uiso   1.00
H481   H     0.64891   0.94615   0.07693   0.00000  Uiso   1.00
H482   H     0.85475   0.56089   0.26032   0.00000  Uiso   1.00
H483   H     0.88870   0.57481   0.05797   0.00000  Uiso   1.00
H484   H     0.98933   0.65736   0.25093   0.00000  Uiso   1.00
H485   H     0.61511   0.92368   0.27858   0.00000  Uiso   1.00
H486   H     0.86742   0.98042   0.22681   0.00000  Uiso   1.00
H487   H     0.62487   0.51750   0.10221   0.00000  Uiso   1.00
H488   H     0.64996   0.55851   0.25910   0.00000  Uiso   1.00
H489   H     0.81040   0.86012   0.06544   0.00000  Uiso   1.00
H490   H     0.50031   0.66228   0.07768   0.00000  Uiso   1.00
H491   H     0.99480   0.83824   0.25632   0.00000  Uiso   1.00
H492   H     0.78670   0.59558   0.06215   0.00000  Uiso   1.00
H493   H     0.74258   0.90771   0.25066   0.00000  Uiso   1.00
H494   H     0.74942   0.91257   0.07791   0.00000  Uiso   1.00
H495   H     0.75204   0.58686   0.25478   0.00000  Uiso   1.00
H496   H     0.89861   0.69897   0.07679   0.00000  Uiso   1.00
N497   N     0.50000   0.75000   0.28573   0.00000  Uiso   1.00
N498   N     0.50000   0.75000   0.04760   0.00000  Uiso   1.00
N499   N     0.75000   0.50000   0.28573   0.00000  Uiso   1.00
N500   N     0.75000   0.50000   0.04760   0.00000  Uiso   1.00
O501   O     0.54581   0.70419   0.20487   0.00000  Uiso   1.00
O502   O     0.70420   0.54581   0.12846   0.00000  Uiso   1.00
O503   O     0.70420   0.54581   0.20487   0.00000  Uiso   1.00
O504   O     0.79581   0.95419   0.12846   0.00000  Uiso   1.00
O505   O     0.70420   0.95419   0.12846   0.00000  Uiso   1.00
O506   O     0.79581   0.54581   0.20487   0.00000  Uiso   1.00
O507   O     0.79581   0.54581   0.12846   0.00000  Uiso   1.00
O508   O     0.70420   0.95419   0.20487   0.00000  Uiso   1.00
O509   O     0.96646   0.85573   0.05378   0.00000  Uiso   1.00
O510   O     0.53470   0.64026   0.29296   0.00000  Uiso   1.00
O511   O     0.96718   0.63670   0.02593   0.00000  Uiso   1.00
O512   O     0.95420   0.79581   0.12846   0.00000  Uiso   1.00
O513   O     0.52957   0.86461   0.30630   0.00000  Uiso   1.00
O514   O     0.72253   0.60493   0.06538   0.00000  Uiso   1.00
O515   O     0.78825   0.89122   0.29292   0.00000  Uiso   1.00
O516   O     0.71945   0.88601   0.02456   0.00000  Uiso   1.00
O517   O     0.72491   0.61636   0.30837   0.00000  Uiso   1.00
O518   O     0.86263   0.65020   0.04915   0.00000  Uiso   1.00
O519   O     0.63892   0.84762   0.28403   0.00000  Uiso   1.00
O520   O     0.65045   0.81779   0.05644   0.00000  Uiso   1.00
O521   O     0.87357   0.72940   0.24359   0.00000  Uiso   1.00
O522   O     0.66070   0.69121   0.26203   0.00000  Uiso   1.00
O523   O     0.95420   0.79581   0.20487   0.00000  Uiso   1.00
O524   O     0.87394   0.80490   0.05635   0.00000  Uiso   1.00
O525   O     0.89007   0.87640   0.28852   0.00000  Uiso   1.00
O526   O     0.59675   0.67335   0.06119   0.00000  Uiso   1.00
O527   O     0.61251   0.89750   0.04969   0.00000  Uiso   1.00
O528   O     0.83260   0.61964   0.28630   0.00000  Uiso   1.00
O529   O     0.87517   0.52476   0.09730   0.00000  Uiso   1.00
O530   O     0.62595   0.97475   0.23987   0.00000  Uiso   1.00
O531   O     0.91784   0.95082   0.25292   0.00000  Uiso   1.00
O532   O     0.62827   0.55989   0.05255   0.00000  Uiso   1.00
O533   O     0.62641   0.61459   0.28783   0.00000  Uiso   1.00
O534   O     0.54581   0.70419   0.12846   0.00000  Uiso   1.00
O535   O     0.84292   0.91819   0.05999   0.00000  Uiso   1.00
O536   O     0.95420   0.70419   0.12846   0.00000  Uiso   1.00
O537   O     0.54581   0.79581   0.20487   0.00000  Uiso   1.00
O538   O     0.54581   0.79581   0.12846   0.00000  Uiso   1.00
O539   O     0.95420   0.70419   0.20487   0.00000  Uiso   1.00
O540   O     0.79581   0.95419   0.20487   0.00000  Uiso   1.00
Zn541  Zn    0.50000   0.75000   0.21771   0.00000  Uiso   1.00
Zn542  Zn    0.50000   0.75000   0.11563   0.00000  Uiso   1.00
Zn543  Zn    0.75000   0.50000   0.21771   0.00000  Uiso   1.00
Zn544  Zn    0.75000   0.50000   0.11563   0.00000  Uiso   1.00
C545   C     0.06213   0.19181   0.49884   0.00000  Uiso   1.00
C546   C     0.49991   0.20998   0.64054   0.00000  Uiso   1.00
C547   C     0.49720   0.21007   0.35529   0.00000  Uiso   1.00
C548   C     0.00236   0.29009   0.64475   0.00000  Uiso   1.00
C549   C     0.24981   0.03995   0.35967   0.00000  Uiso   1.00
C550   C     0.25195   0.46010   0.64054   0.00000  Uiso   1.00
C551   C     0.24814   0.46005   0.35520   0.00000  Uiso   1.00
C552   C     0.24720   0.04008   0.64487   0.00000  Uiso   1.00
C553   C     0.38445   0.14392   0.45833   0.00000  Uiso   1.00
C554   C     0.11530   0.35651   0.54247   0.00000  Uiso   1.00
C555   C     0.12106   0.34571   0.46021   0.00000  Uiso   1.00
C556   C     0.43727   0.30709   0.50116   0.00000  Uiso   1.00
C557   C     0.37796   0.15668   0.54063   0.00000  Uiso   1.00
C558   C     0.12128   0.15377   0.53576   0.00000  Uiso   1.00
C559   C     0.37506   0.33912   0.46414   0.00000  Uiso   1.00
C560   C     0.39299   0.36605   0.54165   0.00000  Uiso   1.00
C561   C     0.10238   0.12924   0.45779   0.00000  Uiso   1.00
C562   C     0.13746   0.38965   0.45755   0.00000  Uiso   1.00
C563   C     0.35751   0.11469   0.54347   0.00000  Uiso   1.00
C564   C     0.36867   0.10004   0.46159   0.00000  Uiso   1.00
C565   C     0.13160   0.40042   0.54004   0.00000  Uiso   1.00
C566   C     0.37413   0.40766   0.53422   0.00000  Uiso   1.00
C567   C     0.43589   0.19486   0.49959   0.00000  Uiso   1.00
C568   C     0.12567   0.08948   0.46209   0.00000  Uiso   1.00
C569   C     0.13869   0.11125   0.54179   0.00000  Uiso   1.00
C570   C     0.35122   0.37823   0.45895   0.00000  Uiso   1.00
C571   C     0.10329   0.33325   0.50168   0.00000  Uiso   1.00
C572   C     0.39620   0.16790   0.49877   0.00000  Uiso   1.00
C573   C     0.39913   0.33558   0.50380   0.00000  Uiso   1.00
C574   C     0.09777   0.15982   0.49611   0.00000  Uiso   1.00
C575   C     0.34959   0.08850   0.50283   0.00000  Uiso   1.00
C576   C     0.14856   0.41367   0.49833   0.00000  Uiso   1.00
C577   C     0.14751   0.08343   0.50280   0.00000  Uiso   1.00
C578   C     0.06404   0.30543   0.50046   0.00000  Uiso   1.00
C579   C     0.34811   0.41066   0.49583   0.00000  Uiso   1.00
C580   C     0.49955   0.33310   0.38676   0.00000  Uiso   1.00
C581   C     0.00737   0.16668   0.61421   0.00000  Uiso   1.00
C582   C     0.48864   0.16719   0.37769   0.00000  Uiso   1.00
C583   C     0.00825   0.33344   0.62223   0.00000  Uiso   1.00
C584   C     0.25449   0.08282   0.38696   0.00000  Uiso   1.00
C585   C     0.26041   0.41709   0.61415   0.00000  Uiso   1.00
C586   C     0.23939   0.41707   0.37729   0.00000  Uiso   1.00
C587   C     0.24179   0.08339   0.62236   0.00000  Uiso   1.00
C588   C     0.38348   0.16638   0.41432   0.00000  Uiso   1.00
C589   C     0.31206   0.44189   0.49879   0.00000  Uiso   1.00
C590   C     0.11709   0.33269   0.58571   0.00000  Uiso   1.00
C591   C     0.12729   0.31066   0.42241   0.00000  Uiso   1.00
C592   C     0.38015   0.18914   0.58086   0.00000  Uiso   1.00
C593   C     0.13231   0.19342   0.56709   0.00000  Uiso   1.00
C594   C     0.37297   0.29991   0.43029   0.00000  Uiso   1.00
C595   C     0.39819   0.35126   0.58888   0.00000  Uiso   1.00
C596   C     0.08552   0.13898   0.41270   0.00000  Uiso   1.00
C597   C     0.13444   0.41322   0.41428   0.00000  Uiso   1.00
C598   C     0.34832   0.09627   0.58851   0.00000  Uiso   1.00
C599   C     0.37740   0.06517   0.42418   0.00000  Uiso   1.00
C600   C     0.18655   0.05606   0.50093   0.00000  Uiso   1.00
C601   C     0.12454   0.43416   0.57876   0.00000  Uiso   1.00
C602   C     0.38556   0.44939   0.56253   0.00000  Uiso   1.00
C603   C     0.12556   0.05232   0.42589   0.00000  Uiso   1.00
C604   C     0.13991   0.09286   0.58779   0.00000  Uiso   1.00
C605   C     0.33220   0.38534   0.41425   0.00000  Uiso   1.00
C606   C     0.18651   0.44347   0.49948   0.00000  Uiso   1.00
C607   C     0.31294   0.05725   0.50072   0.00000  Uiso   1.00
C608   C     0.00168   0.28993   0.35959   0.00000  Uiso   1.00
H609   H     0.02781   0.34610   0.40480   0.00000  Uiso   1.00
H610   H     0.10190   0.30001   0.58923   0.00000  Uiso   1.00
H611   H     0.11377   0.27687   0.42467   0.00000  Uiso   1.00
H612   H     0.38794   0.17773   0.61393   0.00000  Uiso   1.00
H613   H     0.11759   0.22604   0.56315   0.00000  Uiso   1.00
H614   H     0.37229   0.26593   0.44224   0.00000  Uiso   1.00
H615   H     0.40606   0.31663   0.59525   0.00000  Uiso   1.00
H616   H     0.06477   0.11450   0.39458   0.00000  Uiso   1.00
H617   H     0.14891   0.44615   0.41026   0.00000  Uiso   1.00
H618   H     0.35475   0.06089   0.59365   0.00000  Uiso   1.00
H619   H     0.38870   0.07481   0.39131   0.00000  Uiso   1.00
H620   H     0.48933   0.15736   0.58427   0.00000  Uiso   1.00
H621   H     0.11511   0.42368   0.61192   0.00000  Uiso   1.00
H622   H     0.36742   0.48042   0.56014   0.00000  Uiso   1.00
H623   H     0.12487   0.01750   0.43554   0.00000  Uiso   1.00
H624   H     0.14996   0.05851   0.59244   0.00000  Uiso   1.00
H625   H     0.31040   0.36012   0.39877   0.00000  Uiso   1.00
H626   H     0.00031   0.16228   0.41101   0.00000  Uiso   1.00
H627   H     0.49480   0.33824   0.58966   0.00000  Uiso   1.00
H628   H     0.28670   0.09558   0.39548   0.00000  Uiso   1.00
H629   H     0.24258   0.40771   0.58399   0.00000  Uiso   1.00
H630   H     0.24942   0.41257   0.41124   0.00000  Uiso   1.00
H631   H     0.25204   0.08686   0.58811   0.00000  Uiso   1.00
H632   H     0.39861   0.19897   0.41012   0.00000  Uiso   1.00
N633   N     0.00000   0.25000   0.61907   0.00000  Uiso   1.00
N634   N     0.00000   0.25000   0.38093   0.00000  Uiso   1.00
N635   N     0.25000  -0.00000   0.61907   0.00000  Uiso   1.00
N636   N     0.25000   0.00000   0.38093   0.00000  Uiso   1.00
O637   O     0.04581   0.20419   0.53821   0.00000  Uiso   1.00
O638   O     0.20420   0.04581   0.46179   0.00000  Uiso   1.00
O639   O     0.20420   0.04581   0.53821   0.00000  Uiso   1.00
O640   O     0.29581   0.45419   0.46179   0.00000  Uiso   1.00
O641   O     0.20420   0.45419   0.46179   0.00000  Uiso   1.00
O642   O     0.29581   0.04581   0.53821   0.00000  Uiso   1.00
O643   O     0.29581   0.04581   0.46179   0.00000  Uiso   1.00
O644   O     0.20420   0.45419   0.53821   0.00000  Uiso   1.00
O645   O     0.46646   0.35573   0.38711   0.00000  Uiso   1.00
O646   O     0.03470   0.14026   0.62629   0.00000  Uiso   1.00
O647   O     0.46718   0.13670   0.35926   0.00000  Uiso   1.00
O648   O     0.45420   0.29581   0.46179   0.00000  Uiso   1.00
O649   O     0.02957   0.36461   0.63963   0.00000  Uiso   1.00
O650   O     0.22253   0.10493   0.39871   0.00000  Uiso   1.00
O651   O     0.28825   0.39122   0.62625   0.00000  Uiso   1.00
O652   O     0.21945   0.38601   0.35789   0.00000  Uiso   1.00
O653   O     0.22491   0.11636   0.64170   0.00000  Uiso   1.00
O654   O     0.36263   0.15020   0.38249   0.00000  Uiso   1.00
O655   O     0.13892   0.34762   0.61736   0.00000  Uiso   1.00
O656   O     0.15045   0.31779   0.38978   0.00000  Uiso   1.00
O657   O     0.37357   0.22940   0.57692   0.00000  Uiso   1.00
O658   O     0.16070   0.19121   0.59537   0.00000  Uiso   1.00
O659   O     0.45420   0.29581   0.53821   0.00000  Uiso   1.00
O660   O     0.37394   0.30490   0.38968   0.00000  Uiso   1.00
O661   O     0.39007   0.37640   0.62186   0.00000  Uiso   1.00
O662   O     0.09675   0.17335   0.39452   0.00000  Uiso   1.00
O663   O     0.11251   0.39750   0.38302   0.00000  Uiso   1.00
O664   O     0.33260   0.11964   0.61964   0.00000  Uiso   1.00
O665   O     0.37517   0.02476   0.43063   0.00000  Uiso   1.00
O666   O     0.12595   0.47475   0.57320   0.00000  Uiso   1.00
O667   O     0.41784   0.45082   0.58625   0.00000  Uiso   1.00
O668   O     0.12827   0.05989   0.38588   0.00000  Uiso   1.00
O669   O     0.12641   0.11459   0.62116   0.00000  Uiso   1.00
O670   O     0.04581   0.20419   0.46179   0.00000  Uiso   1.00
O671   O     0.34292   0.41819   0.39333   0.00000  Uiso   1.00
O672   O     0.45420   0.20419   0.46179   0.00000  Uiso   1.00
O673   O     0.04581   0.29581   0.53821   0.00000  Uiso   1.00
O674   O     0.04581   0.29581   0.46179   0.00000  Uiso   1.00
O675   O     0.45420   0.20419   0.53821   0.00000  Uiso   1.00
O676   O     0.29581   0.45419   0.53821   0.00000  Uiso   1.00
Zn677  Zn    0.00000   0.25000   0.55104   0.00000  Uiso   1.00
Zn678  Zn    0.00000   0.25000   0.44896   0.00000  Uiso   1.00
Zn679  Zn    0.25000   0.00000   0.55104   0.00000  Uiso   1.00
Zn680  Zn    0.25000   0.00000   0.44896   0.00000  Uiso   1.00
C681   C     0.56213   0.19181   0.49884   0.00000  Uiso   1.00
C682   C     0.99991   0.20998   0.64054   0.00000  Uiso   1.00
C683   C     0.99720   0.21007   0.35529   0.00000  Uiso   1.00
C684   C     0.50236   0.29009   0.64475   0.00000  Uiso   1.00
C685   C     0.74981   0.03995   0.35967   0.00000  Uiso   1.00
C686   C     0.75195   0.46010   0.64054   0.00000  Uiso   1.00
C687   C     0.74814   0.46005   0.35520   0.00000  Uiso   1.00
C688   C     0.74720   0.04008   0.64487   0.00000  Uiso   1.00
C689   C     0.88445   0.14392   0.45833   0.00000  Uiso   1.00
C690   C     0.61530   0.35651   0.54247   0.00000  Uiso   1.00
C691   C     0.62106   0.34571   0.46021   0.00000  Uiso   1.00
C692   C     0.93727   0.30709   0.50116   0.00000  Uiso   1.00
C693   C     0.87796   0.15668   0.54063   0.00000  Uiso   1.00
C694   C     0.62128   0.15377   0.53576   0.00000  Uiso   1.00
C695   C     0.87506   0.33912   0.46414   0.00000  Uiso   1.00
C696   C     0.89299   0.36605   0.54165   0.00000  Uiso   1.00
C697   C     0.60238   0.12924   0.45779   0.00000  Uiso   1.00
C698   C     0.63746   0.38965   0.45755   0.00000  Uiso   1.00
C699   C     0.85751   0.11469   0.54347   0.00000  Uiso   1.00
C700   C     0.86867   0.10004   0.46159   0.00000  Uiso   1.00
C701   C     0.63160   0.40042   0.54004   0.00000  Uiso   1.00
C702   C     0.87413   0.40766   0.53422   0.00000  Uiso   1.00
C703   C     0.93589   0.19486   0.49959   0.00000  Uiso   1.00
C704   C     0.62567   0.08948   0.46209   0.00000  Uiso   1.00
C705   C     0.63869   0.11125   0.54179   0.00000  Uiso   1.00
C706   C     0.85122   0.37823   0.45895   0.00000  Uiso   1.00
C707   C     0.60329   0.33325   0.50168   0.00000  Uiso   1.00
C708   C     0.89620   0.16790   0.49877   0.00000  Uiso   1.00
C709   C     0.89913   0.33558   0.50380   0.00000  Uiso   1.00
C710   C     0.59777   0.15982   0.49611   0.00000  Uiso   1.00
C711   C     0.84959   0.08850   0.50283   0.00000  Uiso   1.00
C712   C     0.64856   0.41367   0.49833   0.00000  Uiso   1.00
C713   C     0.64751   0.08343   0.50280   0.00000  Uiso   1.00
C714   C     0.56404   0.30543   0.50046   0.00000  Uiso   1.00
C715   C     0.84811   0.41066   0.49583   0.00000  Uiso   1.00
C716   C     0.99955   0.33310   0.38676   0.00000  Uiso   1.00
C717   C     0.50737   0.16668   0.61421   0.00000  Uiso   1.00
C718   C     0.98864   0.16719   0.37769   0.00000  Uiso   1.00
C719   C     0.50825   0.33344   0.62223   0.00000  Uiso   1.00
C720   C     0.75449   0.08282   0.38696   0.00000  Uiso   1.00
C721   C     0.76041   0.41709   0.61415   0.00000  Uiso   1.00
C722   C     0.73939   0.41707   0.37729   0.00000  Uiso   1.00
C723   C     0.74179   0.08339   0.62236   0.00000  Uiso   1.00
C724   C     0.88348   0.16638   0.41432   0.00000  Uiso   1.00
C725   C     0.81206   0.44189   0.49879   0.00000  Uiso   1.00
C726   C     0.61709   0.33269   0.58571   0.00000  Uiso   1.00
C727   C     0.62729   0.31066   0.42241   0.00000  Uiso   1.00
C728   C     0.88015   0.18914   0.58086   0.00000  Uiso   1.00
C729   C     0.63231   0.19342   0.56709   0.00000  Uiso   1.00
C730   C     0.87297   0.29991   0.43029   0.00000  Uiso   1.00
C731   C     0.89819   0.35126   0.58888   0.00000  Uiso   1.00
C732   C     0.58552   0.13898   0.41270   0.00000  Uiso   1.00
C733   C     0.63444   0.41322   0.41428   0.00000  Uiso   1.00
C734   C     0.84832   0.09627   0.58851   0.00000  Uiso   1.00
C735   C     0.87740   0.06517   0.42418   0.00000  Uiso   1.00
C736   C     0.68655   0.05606   0.50093   0.00000  Uiso   1.00
C737   C     0.62454   0.43416   0.57876   0.00000  Uiso   1.00
C738   C     0.88556   0.44939   0.56253   0.00000  Uiso   1.00
C739   C     0.62556   0.05232   0.42589   0.00000  Uiso   1.00
C740   C     0.63991   0.09286   0.58779   0.00000  Uiso   1.00
C741   C     0.83220   0.38534   0.41425   0.00000  Uiso   1.00
C742   C     0.68651   0.44347   0.49948   0.00000  Uiso   1.00
C743   C     0.81294   0.05725   0.50072   0.00000  Uiso   1.00
C744   C     0.50168   0.28993   0.35959   0.00000  Uiso   1.00
H745   H     0.52781   0.34610   0.40480   0.00000  Uiso   1.00
H746   H     0.60190   0.30001   0.58923   0.00000  Uiso   1.00
H747   H     0.61377   0.27687   0.42467   0.00000  Uiso   1.00
H748   H     0.88794   0.17773   0.61393   0.00000  Uiso   1.00
H749   H     0.61759   0.22604   0.56315   0.00000  Uiso   1.00
H750   H     0.87229   0.26593   0.44224   0.00000  Uiso   1.00
H751   H     0.90606   0.31663   0.59525   0.00000  Uiso   1.00
H752   H     0.56477   0.11450   0.39458   0.00000  Uiso   1.00
H753   H     0.64891   0.44615   0.41026   0.00000  Uiso   1.00
H754   H     0.85475   0.06089   0.59365   0.00000  Uiso   1.00
H755   H     0.88870   0.07481   0.39131   0.00000  Uiso   1.00
H756   H     0.98933   0.15736   0.58427   0.00000  Uiso   1.00
H757   H     0.61511   0.42368   0.61192   0.00000  Uiso   1.00
H758   H     0.86742   0.48042   0.56014   0.00000  Uiso   1.00
H759   H     0.62487   0.01750   0.43554   0.00000  Uiso   1.00
H760   H     0.64996   0.05851   0.59244   0.00000  Uiso   1.00
H761   H     0.81040   0.36012   0.39877   0.00000  Uiso   1.00
H762   H     0.50031   0.16228   0.41101   0.00000  Uiso   1.00
H763   H     0.99480   0.33824   0.58966   0.00000  Uiso   1.00
H764   H     0.78670   0.09558   0.39548   0.00000  Uiso   1.00
H765   H     0.74258   0.40771   0.58399   0.00000  Uiso   1.00
H766   H     0.74942   0.41257   0.41124   0.00000  Uiso   1.00
H767   H     0.75204   0.08686   0.58811   0.00000  Uiso   1.00
H768   H     0.89861   0.19897   0.41012   0.00000  Uiso   1.00
N769   N     0.50000   0.25000   0.61907   0.00000  Uiso   1.00
N770   N     0.50000   0.25000   0.38093   0.00000  Uiso   1.00
N771   N     0.75000  -0.00000   0.61907   0.00000  Uiso   1.00
N772   N     0.75000   0.00000   0.38093   0.00000  Uiso   1.00
O773   O     0.54581   0.20419   0.53821   0.00000  Uiso   1.00
O774   O     0.70420   0.04581   0.46179   0.00000  Uiso   1.00
O775   O     0.70420   0.04581   0.53821   0.00000  Uiso   1.00
O776   O     0.79581   0.45419   0.46179   0.00000  Uiso   1.00
O777   O     0.70420   0.45419   0.46179   0.00000  Uiso   1.00
O778   O     0.79581   0.04581   0.53821   0.00000  Uiso   1.00
O779   O     0.79581   0.04581   0.46179   0.00000  Uiso   1.00
O780   O     0.70420   0.45419   0.53821   0.00000  Uiso   1.00
O781   O     0.96646   0.35573   0.38711   0.00000  Uiso   1.00
O782   O     0.53470   0.14026   0.62629   0.00000  Uiso   1.00
O783   O     0.96718   0.13670   0.35926   0.00000  Uiso   1.00
O784   O     0.95420   0.29581   0.46179   0.00000  Uiso   1.00
O785   O     0.52957   0.36461   0.63963   0.00000  Uiso   1.00
O786   O     0.72253   0.10493   0.39871   0.00000  Uiso   1.00
O787   O     0.78825   0.39122   0.62625   0.00000  Uiso   1.00
O788   O     0.71945   0.38601   0.35789   0.00000  Uiso   1.00
O789   O     0.72491   0.11636   0.64170   0.00000  Uiso   1.00
O790   O     0.86263   0.15020   0.38249   0.00000  Uiso   1.00
O791   O     0.63892   0.34762   0.61736   0.00000  Uiso   1.00
O792   O     0.65045   0.31779   0.38978   0.00000  Uiso   1.00
O793   O     0.87357   0.22940   0.57692   0.00000  Uiso   1.00
O794   O     0.66070   0.19121   0.59537   0.00000  Uiso   1.00
O795   O     0.95420   0.29581   0.53821   0.00000  Uiso   1.00
O796   O     0.87394   0.30490   0.38968   0.00000  Uiso   1.00
O797   O     0.89007   0.37640   0.62186   0.00000  Uiso   1.00
O798   O     0.59675   0.17335   0.39452   0.00000  Uiso   1.00
O799   O     0.61251   0.39750   0.38302   0.00000  Uiso   1.00
O800   O     0.83260   0.11964   0.61964   0.00000  Uiso   1.00
O801   O     0.87517   0.02476   0.43063   0.00000  Uiso   1.00
O802   O     0.62595   0.47475   0.57320   0.00000  Uiso   1.00
O803   O     0.91784   0.45082   0.58625   0.00000  Uiso   1.00
O804   O     0.62827   0.05989   0.38588   0.00000  Uiso   1.00
O805   O     0.62641   0.11459   0.62116   0.00000  Uiso   1.00
O806   O     0.54581   0.20419   0.46179   0.00000  Uiso   1.00
O807   O     0.84292   0.41819   0.39333   0.00000  Uiso   1.00
O808   O     0.95420   0.20419   0.46179   0.00000  Uiso   1.00
O809   O     0.54581   0.29581   0.53821   0.00000  Uiso   1.00
O810   O     0.54581   0.29581   0.46179   0.00000  Uiso   1.00
O811   O     0.95420   0.20419   0.53821   0.00000  Uiso   1.00
O812   O     0.79581   0.45419   0.53821   0.00000  Uiso   1.00
Zn813  Zn    0.50000   0.25000   0.55104   0.00000  Uiso   1.00
Zn814  Zn    0.50000   0.25000   0.44896   0.00000  Uiso   1.00
Zn815  Zn    0.75000   0.00000   0.55104   0.00000  Uiso   1.00
Zn816  Zn    0.75000   0.00000   0.44896   0.00000  Uiso   1.00
C817   C     0.06213   0.69181   0.49884   0.00000  Uiso   1.00
C818   C     0.49991   0.70998   0.64054   0.00000  Uiso   1.00
C819   C     0.49720   0.71007   0.35529   0.00000  Uiso   1.00
C820   C     0.00236   0.79009   0.64475   0.00000  Uiso   1.00
C821   C     0.24981   0.53995   0.35967   0.00000  Uiso   1.00
C822   C     0.25195   0.96010   0.64054   0.00000  Uiso   1.00
C823   C     0.24814   0.96005   0.35520   0.00000  Uiso   1.00
C824   C     0.24720   0.54008   0.64487   0.00000  Uiso   1.00
C825   C     0.38445   0.64392   0.45833   0.00000  Uiso   1.00
C826   C     0.11530   0.85651   0.54247   0.00000  Uiso   1.00
C827   C     0.12106   0.84571   0.46021   0.00000  Uiso   1.00
C828   C     0.43727   0.80709   0.50116   0.00000  Uiso   1.00
C829   C     0.37796   0.65668   0.54063   0.00000  Uiso   1.00
C830   C     0.12128   0.65377   0.53576   0.00000  Uiso   1.00
C831   C     0.37506   0.83912   0.46414   0.00000  Uiso   1.00
C832   C     0.39299   0.86605   0.54165   0.00000  Uiso   1.00
C833   C     0.10238   0.62924   0.45779   0.00000  Uiso   1.00
C834   C     0.13746   0.88965   0.45755   0.00000  Uiso   1.00
C835   C     0.35751   0.61469   0.54347   0.00000  Uiso   1.00
C836   C     0.36867   0.60004   0.46159   0.00000  Uiso   1.00
C837   C     0.13160   0.90042   0.54004   0.00000  Uiso   1.00
C838   C     0.37413   0.90766   0.53422   0.00000  Uiso   1.00
C839   C     0.43589   0.69486   0.49959   0.00000  Uiso   1.00
C840   C     0.12567   0.58948   0.46209   0.00000  Uiso   1.00
C841   C     0.13869   0.61125   0.54179   0.00000  Uiso   1.00
C842   C     0.35122   0.87823   0.45895   0.00000  Uiso   1.00
C843   C     0.10329   0.83325   0.50168   0.00000  Uiso   1.00
C844   C     0.39620   0.66790   0.49877   0.00000  Uiso   1.00
C845   C     0.39913   0.83558   0.50380   0.00000  Uiso   1.00
C846   C     0.09777   0.65982   0.49611   0.00000  Uiso   1.00
C847   C     0.34959   0.58850   0.50283   0.00000  Uiso   1.00
C848   C     0.14856   0.91367   0.49833   0.00000  Uiso   1.00
C849   C     0.14751   0.58343   0.50280   0.00000  Uiso   1.00
C850   C     0.06404   0.80543   0.50046   0.00000  Uiso   1.00
C851   C     0.34811   0.91066   0.49583   0.00000  Uiso   1.00
C852   C     0.49955   0.83310   0.38676   0.00000  Uiso   1.00
C853   C     0.00737   0.66668   0.61421   0.00000  Uiso   1.00
C854   C     0.48864   0.66719   0.37769   0.00000  Uiso   1.00
C855   C     0.00825   0.83344   0.62223   0.00000  Uiso   1.00
C856   C     0.25449   0.58282   0.38696   0.00000  Uiso   1.00
C857   C     0.26041   0.91709   0.61415   0.00000  Uiso   1.00
C858   C     0.23939   0.91707   0.37729   0.00000  Uiso   1.00
C859   C     0.24179   0.58339   0.62236   0.00000  Uiso   1.00
C860   C     0.38348   0.66638   0.41432   0.00000  Uiso   1.00
C861   C     0.31206   0.94189   0.49879   0.00000  Uiso   1.00
C862   C     0.11709   0.83269   0.58571   0.00000  Uiso   1.00
C863   C     0.12729   0.81066   0.42241   0.00000  Uiso   1.00
C864   C     0.38015   0.68914   0.58086   0.00000  Uiso   1.00
C865   C     0.13231   0.69342   0.56709   0.00000  Uiso   1.00
C866   C     0.37297   0.79991   0.43029   0.00000  Uiso   1.00
C867   C     0.39819   0.85126   0.58888   0.00000  Uiso   1.00
C868   C     0.08552   0.63898   0.41270   0.00000  Uiso   1.00
C869   C     0.13444   0.91322   0.41428   0.00000  Uiso   1.00
C870   C     0.34832   0.59627   0.58851   0.00000  Uiso   1.00
C871   C     0.37740   0.56517   0.42418   0.00000  Uiso   1.00
C872   C     0.18655   0.55606   0.50093   0.00000  Uiso   1.00
C873   C     0.12454   0.93416   0.57876   0.00000  Uiso   1.00
C874   C     0.38556   0.94939   0.56253   0.00000  Uiso   1.00
C875   C     0.12556   0.55232   0.42589   0.00000  Uiso   1.00
C876   C     0.13991   0.59286   0.58779   0.00000  Uiso   1.00
C877   C     0.33220   0.88534   0.41425   0.00000  Uiso   1.00
C878   C     0.18651   0.94347   0.49948   0.00000  Uiso   1.00
C879   C     0.31294   0.55725   0.50072   0.00000  Uiso   1.00
C880   C     0.00168   0.78993   0.35959   0.00000  Uiso   1.00
H881   H     0.02781   0.84610   0.40480   0.00000  Uiso   1.00
H882   H     0.10190   0.80001   0.58923   0.00000  Uiso   1.00
H883   H     0.11377   0.77687   0.42467   0.00000  Uiso   1.00
H884   H     0.38794   0.67773   0.61393   0.00000  Uiso   1.00
H885   H     0.11759   0.72604   0.56315   0.00000  Uiso   1.00
H886   H     0.37229   0.76593   0.44224   0.00000  Uiso   1.00
H887   H     0.40606   0.81663   0.59525   0.00000  Uiso   1.00
H888   H     0.06477   0.61450   0.39458   0.00000  Uiso   1.00
H889   H     0.14891   0.94615   0.41026   0.00000  Uiso   1.00
H890   H     0.35475   0.56089   0.59365   0.00000  Uiso   1.00
H891   H     0.38870   0.57481   0.39131   0.00000  Uiso   1.00
H892   H     0.48933   0.65736   0.58427   0.00000  Uiso   1.00
H893   H     0.11511   0.92368   0.61192   0.00000  Uiso   1.00
H894   H     0.36742   0.98042   0.56014   0.00000  Uiso   1.00
H895   H     0.12487   0.51750   0.43554   0.00000  Uiso   1.00
H896   H     0.14996   0.55851   0.59244   0.00000  Uiso   1.00
H897   H     0.31040   0.86012   0.39877   0.00000  Uiso   1.00
H898   H     0.00031   0.66228   0.41101   0.00000  Uiso   1.00
H899   H     0.49480   0.83824   0.58966   0.00000  Uiso   1.00
H900   H     0.28670   0.59558   0.39548   0.00000  Uiso   1.00
H901   H     0.24258   0.90771   0.58399   0.00000  Uiso   1.00
H902   H     0.24942   0.91257   0.41124   0.00000  Uiso   1.00
H903   H     0.25204   0.58686   0.58811   0.00000  Uiso   1.00
H904   H     0.39861   0.69897   0.41012   0.00000  Uiso   1.00
N905   N     0.00000   0.75000   0.61907   0.00000  Uiso   1.00
N906   N     0.00000   0.75000   0.38093   0.00000  Uiso   1.00
N907   N     0.25000   0.50000   0.61907   0.00000  Uiso   1.00
N908   N     0.25000   0.50000   0.38093   0.00000  Uiso   1.00
O909   O     0.04581   0.70419   0.53821   0.00000  Uiso   1.00
O910   O     0.20420   0.54581   0.46179   0.00000  Uiso   1.00
O911   O     0.20420   0.54581   0.53821   0.00000  Uiso   1.00
O912   O     0.29581   0.95419   0.46179   0.00000  Uiso   1.00
O913   O     0.20420   0.95419   0.46179   0.00000  Uiso   1.00
O914   O     0.29581   0.54581   0.53821   0.00000  Uiso   1.00
O915   O     0.29581   0.54581   0.46179   0.00000  Uiso   1.00
O916   O     0.20420   0.95419   0.53821   0.00000  Uiso   1.00
O917   O     0.46646   0.85573   0.38711   0.00000  Uiso   1.00
O918   O     0.03470   0.64026   0.62629   0.00000  Uiso   1.00
O919   O     0.46718   0.63670   0.35926   0.00000  Uiso   1.00
O920   O     0.45420   0.79581   0.46179   0.00000  Uiso   1.00
O921   O     0.02957   0.86461   0.63963   0.00000  Uiso   1.00
O922   O     0.22253   0.60493   0.39871   0.00000  Uiso   1.00
O923   O     0.28825   0.89122   0.62625   0.00000  Uiso   1.00
O924   O     0.21945   0.88601   0.35789   0.00000  Uiso   1.00
O925   O     0.22491   0.61636   0.64170   0.00000  Uiso   1.00
O926   O     0.36263   0.65020   0.38249   0.00000  Uiso   1.00
O927   O     0.13892   0.84762   0.61736   0.00000  Uiso   1.00
O928   O     0.15045   0.81779   0.38978   0.00000  Uiso   1.00
O929   O     0.37357   0.72940   0.57692   0.00000  Uiso   1.00
O930   O     0.16070   0.69121   0.59537   0.00000  Uiso   1.00
O931   O     0.45420   0.79581   0.53821   0.00000  Uiso   1.00
O932   O     0.37394   0.80490   0.38968   0.00000  Uiso   1.00
O933   O     0.39007   0.87640   0.62186   0.00000  Uiso   1.00
O934   O     0.09675   0.67335   0.39452   0.00000  Uiso   1.00
O935   O     0.11251   0.89750   0.38302   0.00000  Uiso   1.00
O936   O     0.33260   0.61964   0.61964   0.00000  Uiso   1.00
O937   O     0.37517   0.52476   0.43063   0.00000  Uiso   1.00
O938   O     0.12595   0.97475   0.57320   0.00000  Uiso   1.00
O939   O     0.41784   0.95082   0.58625   0.00000  Uiso   1.00
O940   O     0.12827   0.55989   0.38588   0.00000  Uiso   1.00
O941   O     0.12641   0.61459   0.62116   0.00000  Uiso   1.00
O942   O     0.04581   0.70419   0.46179   0.00000  Uiso   1.00
O943   O     0.34292   0.91819   0.39333   0.00000  Uiso   1.00
O944   O     0.45420   0.70419   0.46179   0.00000  Uiso   1.00
O945   O     0.04581   0.79581   0.53821   0.00000  Uiso   1.00
O946   O     0.04581   0.79581   0.46179   0.00000  Uiso   1.00
O947   O     0.45420   0.70419   0.53821   0.00000  Uiso   1.00
O948   O     0.29581   0.95419   0.53821   0.00000  Uiso   1.00
Zn949  Zn    0.00000   0.75000   0.55104   0.00000  Uiso   1.00
Zn950  Zn    0.00000   0.75000   0.44896   0.00000  Uiso   1.00
Zn951  Zn    0.25000   0.50000   0.55104   0.00000  Uiso   1.00
Zn952  Zn    0.25000   0.50000   0.44896   0.00000  Uiso   1.00
C953   C     0.56213   0.69181   0.49884   0.00000  Uiso   1.00
C954   C     0.99991   0.70998   0.64054   0.00000  Uiso   1.00
C955   C     0.99720   0.71007   0.35529   0.00000  Uiso   1.00
C956   C     0.50236   0.79009   0.64475   0.00000  Uiso   1.00
C957   C     0.74981   0.53995   0.35967   0.00000  Uiso   1.00
C958   C     0.75195   0.96010   0.64054   0.00000  Uiso   1.00
C959   C     0.74814   0.96005   0.35520   0.00000  Uiso   1.00
C960   C     0.74720   0.54008   0.64487   0.00000  Uiso   1.00
C961   C     0.88445   0.64392   0.45833   0.00000  Uiso   1.00
C962   C     0.61530   0.85651   0.54247   0.00000  Uiso   1.00
C963   C     0.62106   0.84571   0.46021   0.00000  Uiso   1.00
C964   C     0.93727   0.80709   0.50116   0.00000  Uiso   1.00
C965   C     0.87796   0.65668   0.54063   0.00000  Uiso   1.00
C966   C     0.62128   0.65377   0.53576   0.00000  Uiso   1.00
C967   C     0.87506   0.83912   0.46414   0.00000  Uiso   1.00
C968   C     0.89299   0.86605   0.54165   0.00000  Uiso   1.00
C969   C     0.60238   0.62924   0.45779   0.00000  Uiso   1.00
C970   C     0.63746   0.88965   0.45755   0.00000  Uiso   1.00
C971   C     0.85751   0.61469   0.54347   0.00000  Uiso   1.00
C972   C     0.86867   0.60004   0.46159   0.00000  Uiso   1.00
C973   C     0.63160   0.90042   0.54004   0.00000  Uiso   1.00
C974   C     0.87413   0.90766   0.53422   0.00000  Uiso   1.00
C975   C     0.93589   0.69486   0.49959   0.00000  Uiso   1.00
C976   C     0.62567   0.58948   0.46209   0.00000  Uiso   1.00
C977   C     0.63869   0.61125   0.54179   0.00000  Uiso   1.00
C978   C     0.85122   0.87823   0.45895   0.00000  Uiso   1.00
C979   C     0.60329   0.83325   0.50168   0.00000  Uiso   1.00
C980   C     0.89620   0.66790   0.49877   0.00000  Uiso   1.00
C981   C     0.89913   0.83558   0.50380   0.00000  Uiso   1.00
C982   C     0.59777   0.65982   0.49611   0.00000  Uiso   1.00
C983   C     0.84959   0.58850   0.50283   0.00000  Uiso   1.00
C984   C     0.64856   0.91367   0.49833   0.00000  Uiso   1.00
C985   C     0.64751   0.58343   0.50280   0.00000  Uiso   1.00
C986   C     0.56404   0.80543   0.50046   0.00000  Uiso   1.00
C987   C     0.84811   0.91066   0.49583   0.00000  Uiso   1.00
C988   C     0.99955   0.83310   0.38676   0.00000  Uiso   1.00
C989   C     0.50737   0.66668   0.61421   0.00000  Uiso   1.00
C990   C     0.98864   0.66719   0.37769   0.00000  Uiso   1.00
C991   C     0.50825   0.83344   0.62223   0.00000  Uiso   1.00
C992   C     0.75449   0.58282   0.38696   0.00000  Uiso   1.00
C993   C     0.76041   0.91709   0.61415   0.00000  Uiso   1.00
C994   C     0.73939   0.91707   0.37729   0.00000  Uiso   1.00
C995   C     0.74179   0.58339   0.62236   0.00000  Uiso   1.00
C996   C     0.88348   0.66638   0.41432   0.00000  Uiso   1.00
C997   C     0.81206   0.94189   0.49879   0.00000  Uiso   1.00
C998   C     0.61709   0.83269   0.58571   0.00000  Uiso   1.00
C999   C     0.62729   0.81066   0.42241   0.00000  Uiso   1.00
C1000  C     0.88015   0.68914   0.58086   0.00000  Uiso   1.00
C1001  C     0.63231   0.69342   0.56709   0.00000  Uiso   1.00
C1002  C     0.87297   0.79991   0.43029   0.00000  Uiso   1.00
C1003  C     0.89819   0.85126   0.58888   0.00000  Uiso   1.00
C1004  C     0.58552   0.63898   0.41270   0.00000  Uiso   1.00
C1005  C     0.63444   0.91322   0.41428   0.00000  Uiso   1.00
C1006  C     0.84832   0.59627   0.58851   0.00000  Uiso   1.00
C1007  C     0.87740   0.56517   0.42418   0.00000  Uiso   1.00
C1008  C     0.68655   0.55606   0.50093   0.00000  Uiso   1.00
C1009  C     0.62454   0.93416   0.57876   0.00000  Uiso   1.00
C1010  C     0.88556   0.94939   0.56253   0.00000  Uiso   1.00
C1011  C     0.62556   0.55232   0.42589   0.00000  Uiso   1.00
C1012  C     0.63991   0.59286   0.58779   0.00000  Uiso   1.00
C1013  C     0.83220   0.88534   0.41425   0.00000  Uiso   1.00
C1014  C     0.68651   0.94347   0.49948   0.00000  Uiso   1.00
C1015  C     0.81294   0.55725   0.50072   0.00000  Uiso   1.00
C1016  C     0.50168   0.78993   0.35959   0.00000  Uiso   1.00
H1017  H     0.52781   0.84610   0.40480   0.00000  Uiso   1.00
H1018  H     0.60190   0.80001   0.58923   0.00000  Uiso   1.00
H1019  H     0.61377   0.77687   0.42467   0.00000  Uiso   1.00
H1020  H     0.88794   0.67773   0.61393   0.00000  Uiso   1.00
H1021  H     0.61759   0.72604   0.56315   0.00000  Uiso   1.00
H1022  H     0.87229   0.76593   0.44224   0.00000  Uiso   1.00
H1023  H     0.90606   0.81663   0.59525   0.00000  Uiso   1.00
H1024  H     0.56477   0.61450   0.39458   0.00000  Uiso   1.00
H1025  H     0.64891   0.94615   0.41026   0.00000  Uiso   1.00
H1026  H     0.85475   0.56089   0.59365   0.00000  Uiso   1.00
H1027  H     0.88870   0.57481   0.39131   0.00000  Uiso   1.00
H1028  H     0.98933   0.65736   0.58427   0.00000  Uiso   1.00
H1029  H     0.61511   0.92368   0.61192   0.00000  Uiso   1.00
H1030  H     0.86742   0.98042   0.56014   0.00000  Uiso   1.00
H1031  H     0.62487   0.51750   0.43554   0.00000  Uiso   1.00
H1032  H     0.64996   0.55851   0.59244   0.00000  Uiso   1.00
H1033  H     0.81040   0.86012   0.39877   0.00000  Uiso   1.00
H1034  H     0.50031   0.66228   0.41101   0.00000  Uiso   1.00
H1035  H     0.99480   0.83824   0.58966   0.00000  Uiso   1.00
H1036  H     0.78670   0.59558   0.39548   0.00000  Uiso   1.00
H1037  H     0.74258   0.90771   0.58399   0.00000  Uiso   1.00
H1038  H     0.74942   0.91257   0.41124   0.00000  Uiso   1.00
H1039  H     0.75204   0.58686   0.58811   0.00000  Uiso   1.00
H1040  H     0.89861   0.69897   0.41012   0.00000  Uiso   1.00
N1041  N     0.50000   0.75000   0.61907   0.00000  Uiso   1.00
N1042  N     0.50000   0.75000   0.38093   0.00000  Uiso   1.00
N1043  N     0.75000   0.50000   0.61907   0.00000  Uiso   1.00
N1044  N     0.75000   0.50000   0.38093   0.00000  Uiso   1.00
O1045  O     0.54581   0.70419   0.53821   0.00000  Uiso   1.00
O1046  O     0.70420   0.54581   0.46179   0.00000  Uiso   1.00
O1047  O     0.70420   0.54581   0.53821   0.00000  Uiso   1.00
O1048  O     0.79581   0.95419   0.46179   0.00000  Uiso   1.00
O1049  O     0.70420   0.95419   0.46179   0.00000  Uiso   1.00
O1050  O     0.79581   0.54581   0.53821   0.00000  Uiso   1.00
O1051  O     0.79581   0.54581   0.46179   0.00000  Uiso   1.00
O1052  O     0.70420   0.95419   0.53821   0.00000  Uiso   1.00
O1053  O     0.96646   0.85573   0.38711   0.00000  Uiso   1.00
O1054  O     0.53470   0.64026   0.62629   0.00000  Uiso   1.00
O1055  O     0.96718   0.63670   0.35926   0.00000  Uiso   1.00
O1056  O     0.95420   0.79581   0.46179   0.00000  Uiso   1.00
O1057  O     0.52957   0.86461   0.63963   0.00000  Uiso   1.00
O1058  O     0.72253   0.60493   0.39871   0.00000  Uiso   1.00
O1059  O     0.78825   0.89122   0.62625   0.00000  Uiso   1.00
O1060  O     0.71945   0.88601   0.35789   0.00000  Uiso   1.00
O1061  O     0.72491   0.61636   0.64170   0.00000  Uiso   1.00
O1062  O     0.86263   0.65020   0.38249   0.00000  Uiso   1.00
O1063  O     0.63892   0.84762   0.61736   0.00000  Uiso   1.00
O1064  O     0.65045   0.81779   0.38978   0.00000  Uiso   1.00
O1065  O     0.87357   0.72940   0.57692   0.00000  Uiso   1.00
O1066  O     0.66070   0.69121   0.59537   0.00000  Uiso   1.00
O1067  O     0.95420   0.79581   0.53821   0.00000  Uiso   1.00
O1068  O     0.87394   0.80490   0.38968   0.00000  Uiso   1.00
O1069  O     0.89007   0.87640   0.62186   0.00000  Uiso   1.00
O1070  O     0.59675   0.67335   0.39452   0.00000  Uiso   1.00
O1071  O     0.61251   0.89750   0.38302   0.00000  Uiso   1.00
O1072  O     0.83260   0.61964   0.61964   0.00000  Uiso   1.00
O1073  O     0.87517   0.52476   0.43063   0.00000  Uiso   1.00
O1074  O     0.62595   0.97475   0.57320   0.00000  Uiso   1.00
O1075  O     0.91784   0.95082   0.58625   0.00000  Uiso   1.00
O1076  O     0.62827   0.55989   0.38588   0.00000  Uiso   1.00
O1077  O     0.62641   0.61459   0.62116   0.00000  Uiso   1.00
O1078  O     0.54581   0.70419   0.46179   0.00000  Uiso   1.00
O1079  O     0.84292   0.91819   0.39333   0.00000  Uiso   1.00
O1080  O     0.95420   0.70419   0.46179   0.00000  Uiso   1.00
O1081  O     0.54581   0.79581   0.53821   0.00000  Uiso   1.00
O1082  O     0.54581   0.79581   0.46179   0.00000  Uiso   1.00
O1083  O     0.95420   0.70419   0.53821   0.00000  Uiso   1.00
O1084  O     0.79581   0.95419   0.53821   0.00000  Uiso   1.00
Zn1085 Zn    0.50000   0.75000   0.55104   0.00000  Uiso   1.00
Zn1086 Zn    0.50000   0.75000   0.44896   0.00000  Uiso   1.00
Zn1087 Zn    0.75000   0.50000   0.55104   0.00000  Uiso   1.00
Zn1088 Zn    0.75000   0.50000   0.44896   0.00000  Uiso   1.00
C1089  C     0.06213   0.19181   0.83217   0.00000  Uiso   1.00
C1090  C     0.49991   0.20998   0.97388   0.00000  Uiso   1.00
C1091  C     0.49720   0.21007   0.68862   0.00000  Uiso   1.00
C1092  C     0.00236   0.29009   0.97809   0.00000  Uiso   1.00
C1093  C     0.24981   0.03995   0.69301   0.00000  Uiso   1.00
C1094  C     0.25195   0.46010   0.97388   0.00000  Uiso   1.00
C1095  C     0.24814   0.46005   0.68853   0.00000  Uiso   1.00
C1096  C     0.24720   0.04008   0.97821   0.00000  Uiso   1.00
C1097  C     0.38445   0.14392   0.79166   0.00000  Uiso   1.00
C1098  C     0.11530   0.35651   0.87580   0.00000  Uiso   1.00
C1099  C     0.12106   0.34571   0.79355   0.00000  Uiso   1.00
C1100  C     0.43727   0.30709   0.83450   0.00000  Uiso   1.00
C1101  C     0.37796   0.15668   0.87397   0.00000  Uiso   1.00
C1102  C     0.12128   0.15377   0.86910   0.00000  Uiso   1.00
C1103  C     0.37506   0.33912   0.79747   0.00000  Uiso   1.00
C1104  C     0.39299   0.36605   0.87498   0.00000  Uiso   1.00
C1105  C     0.10238   0.12924   0.79112   0.00000  Uiso   1.00
C1106  C     0.13746   0.38965   0.79089   0.00000  Uiso   1.00
C1107  C     0.35751   0.11469   0.87680   0.00000  Uiso   1.00
C1108  C     0.36867   0.10004   0.79492   0.00000  Uiso   1.00
C1109  C     0.13160   0.40042   0.87337   0.00000  Uiso   1.00
C1110  C     0.37413   0.40766   0.86755   0.00000  Uiso   1.00
C1111  C     0.43589   0.19486   0.83292   0.00000  Uiso   1.00
C1112  C     0.12567   0.08948   0.79543   0.00000  Uiso   1.00
C1113  C     0.13869   0.11125   0.87513   0.00000  Uiso   1.00
C1114  C     0.35122   0.37823   0.79228   0.00000  Uiso   1.00
C1115  C     0.10329   0.33325   0.83501   0.00000  Uiso   1.00
C1116  C     0.39620   0.16790   0.83210   0.00000  Uiso   1.00
C1117  C     0.39913   0.33558   0.83713   0.00000  Uiso   1.00
C1118  C     0.09777   0.15982   0.82944   0.00000  Uiso   1.00
C1119  C     0.34959   0.08850   0.83616   0.00000  Uiso   1.00
C1120  C     0.14856   0.41367   0.83166   0.00000  Uiso   1.00
C1121  C     0.14751   0.08343   0.83614   0.00000  Uiso   1.00
C1122  C     0.06404   0.30543   0.83380   0.00000  Uiso   1.00
C1123  C     0.34811   0.41066   0.82916   0.00000  Uiso   1.00
C1124  C     0.49955   0.33310   0.72009   0.00000  Uiso   1.00
C1125  C     0.00737   0.16668   0.94755   0.00000  Uiso   1.00
C1126  C     0.48864   0.16719   0.71102   0.00000  Uiso   1.00
C1127  C     0.00825   0.33344   0.95556   0.00000  Uiso   1.00
C1128  C     0.25449   0.08282   0.72030   0.00000  Uiso   1.00
C1129  C     0.26041   0.41709   0.94749   0.00000  Uiso   1.00
C1130  C     0.23939   0.41707   0.71063   0.00000  Uiso   1.00
C1131  C     0.24179   0.08339   0.95570   0.00000  Uiso   1.00
C1132  C     0.38348   0.16638   0.74765   0.00000  Uiso   1.00
C1133  C     0.31206   0.44189   0.83212   0.00000  Uiso   1.00
C1134  C     0.11709   0.33269   0.91904   0.00000  Uiso   1.00
C1135  C     0.12729   0.31066   0.75574   0.00000  Uiso   1.00
C1136  C     0.38015   0.18914   0.91419   0.00000  Uiso   1.00
C1137  C     0.13231   0.19342   0.90042   0.00000  Uiso   1.00
C1138  C     0.37297   0.29991   0.76362   0.00000  Uiso   1.00
C1139  C     0.39819   0.35126   0.92221   0.00000  Uiso   1.00
C1140  C     0.08552   0.13898   0.74603   0.00000  Uiso   1.00
C1141  C     0.13444   0.41322   0.74761   0.00000  Uiso   1.00
C1142  C     0.34832   0.09627   0.92184   0.00000  Uiso   1.00
C1143  C     0.37740   0.06517   0.75751   0.00000  Uiso   1.00
C1144  C     0.18655   0.05606   0.83427   0.00000  Uiso   1.00
C1145  C     0.12454   0.43416   0.91209   0.00000  Uiso   1.00
C1146  C     0.38556   0.44939   0.89586   0.00000  Uiso   1.00
C1147  C     0.12556   0.05232   0.75922   0.00000  Uiso   1.00
C1148  C     0.13991   0.09286   0.92113   0.00000  Uiso   1.00
C1149  C     0.33220   0.38534   0.74759   0.00000  Uiso   1.00
C1150  C     0.18651   0.44347   0.83281   0.00000  Uiso   1.00
C1151  C     0.31294   0.05725   0.83405   0.00000  Uiso   1.00
C1152  C     0.00168   0.28993   0.69292   0.00000  Uiso   1.00
H1153  H     0.02781   0.34610   0.73813   0.00000  Uiso   1.00
H1154  H     0.10190   0.30001   0.92256   0.00000  Uiso   1.00
H1155  H     0.11377   0.27687   0.75801   0.00000  Uiso   1.00
H1156  H     0.38794   0.17773   0.94727   0.00000  Uiso   1.00
H1157  H     0.11759   0.22604   0.89648   0.00000  Uiso   1.00
H1158  H     0.37229   0.26593   0.77558   0.00000  Uiso   1.00
H1159  H     0.40606   0.31663   0.92858   0.00000  Uiso   1.00
H1160  H     0.06477   0.11450   0.72791   0.00000  Uiso   1.00
H1161  H     0.14891   0.44615   0.74360   0.00000  Uiso   1.00
H1162  H     0.35475   0.06089   0.92698   0.00000  Uiso   1.00
H1163  H     0.38870   0.07481   0.72464   0.00000  Uiso   1.00
H1164  H     0.48933   0.15736   0.91760   0.00000  Uiso   1.00
H1165  H     0.11511   0.42368   0.94525   0.00000  Uiso   1.00
H1166  H     0.36742   0.48042   0.89347   0.00000  Uiso   1.00
H1167  H     0.12487   0.01750   0.76888   0.00000  Uiso   1.00
H1168  H     0.14996   0.05851   0.92577   0.00000  Uiso   1.00
H1169  H     0.31040   0.36012   0.73211   0.00000  Uiso   1.00
H1170  H     0.00031   0.16228   0.74435   0.00000  Uiso   1.00
H1171  H     0.49480   0.33824   0.92299   0.00000  Uiso   1.00
H1172  H     0.28670   0.09558   0.72882   0.00000  Uiso   1.00
H1173  H     0.24258   0.40771   0.91733   0.00000  Uiso   1.00
H1174  H     0.24942   0.41257   0.74458   0.00000  Uiso   1.00
H1175  H     0.25204   0.08686   0.92145   0.00000  Uiso   1.00
H1176  H     0.39861   0.19897   0.74346   0.00000  Uiso   1.00
N1177  N     0.00000   0.25000   0.95240   0.00000  Uiso   1.00
N1178  N     0.00000   0.25000   0.71427   0.00000  Uiso   1.00
N1179  N     0.25000  -0.00000   0.95240   0.00000  Uiso   1.00
N1180  N     0.25000   0.00000   0.71427   0.00000  Uiso   1.00
O1181  O     0.04581   0.20419   0.87154   0.00000  Uiso   1.00
O1182  O     0.20420   0.04581   0.79513   0.00000  Uiso   1.00
O1183  O     0.20420   0.04581   0.87154   0.00000  Uiso   1.00
O1184  O     0.29581   0.45419   0.79513   0.00000  Uiso   1.00
O1185  O     0.20420   0.45419   0.79513   0.00000  Uiso   1.00
O1186  O     0.29581   0.04581   0.87154   0.00000  Uiso   1.00
O1187  O     0.29581   0.04581   0.79513   0.00000  Uiso   1.00
O1188  O     0.20420   0.45419   0.87154   0.00000  Uiso   1.00
O1189  O     0.46646   0.35573   0.72044   0.00000  Uiso   1.00
O1190  O     0.03470   0.14026   0.95963   0.00000  Uiso   1.00
O1191  O     0.46718   0.13670   0.69260   0.00000  Uiso   1.00
O1192  O     0.45420   0.29581   0.79513   0.00000  Uiso   1.00
O1193  O     0.02957   0.36461   0.97297   0.00000  Uiso   1.00
O1194  O     0.22253   0.10493   0.73205   0.00000  Uiso   1.00
O1195  O     0.28825   0.39122   0.95959   0.00000  Uiso   1.00
O1196  O     0.21945   0.38601   0.69123   0.00000  Uiso   1.00
O1197  O     0.22491   0.11636   0.97503   0.00000  Uiso   1.00
O1198  O     0.36263   0.15020   0.71582   0.00000  Uiso   1.00
O1199  O     0.13892   0.34762   0.95070   0.00000  Uiso   1.00
O1200  O     0.15045   0.31779   0.72311   0.00000  Uiso   1.00
O1201  O     0.37357   0.22940   0.91025   0.00000  Uiso   1.00
O1202  O     0.16070   0.19121   0.92870   0.00000  Uiso   1.00
O1203  O     0.45420   0.29581   0.87154   0.00000  Uiso   1.00
O1204  O     0.37394   0.30490   0.72302   0.00000  Uiso   1.00
O1205  O     0.39007   0.37640   0.95519   0.00000  Uiso   1.00
O1206  O     0.09675   0.17335   0.72786   0.00000  Uiso   1.00
O1207  O     0.11251   0.39750   0.71635   0.00000  Uiso   1.00
O1208  O     0.33260   0.11964   0.95297   0.00000  Uiso   1.00
O1209  O     0.37517   0.02476   0.76396   0.00000  Uiso   1.00
O1210  O     0.12595   0.47475   0.90653   0.00000  Uiso   1.00
O1211  O     0.41784   0.45082   0.91959   0.00000  Uiso   1.00
O1212  O     0.12827   0.05989   0.71921   0.00000  Uiso   1.00
O1213  O     0.12641   0.11459   0.95450   0.00000  Uiso   1.00
O1214  O     0.04581   0.20419   0.79513   0.00000  Uiso   1.00
O1215  O     0.34292   0.41819   0.72666   0.00000  Uiso   1.00
O1216  O     0.45420   0.20419   0.79513   0.00000  Uiso   1.00
O1217  O     0.04581   0.29581   0.87154   0.00000  Uiso   1.00
O1218  O     0.04581   0.29581   0.79513   0.00000  Uiso   1.00
O1219  O     0.45420   0.20419   0.87154   0.00000  Uiso   1.00
O1220  O     0.29581   0.45419   0.87154   0.00000  Uiso   1.00
Zn1221 Zn    0.00000   0.25000   0.88437   0.00000  Uiso   1.00
Zn1222 Zn    0.00000   0.25000   0.78229   0.00000  Uiso   1.00
Zn1223 Zn    0.25000   0.00000   0.88437   0.00000  Uiso   1.00
Zn1224 Zn    0.25000   0.00000   0.78229   0.00000  Uiso   1.00
C1225  C     0.56213   0.19181   0.83217   0.00000  Uiso   1.00
C1226  C     0.99991   0.20998   0.97388   0.00000  Uiso   1.00
C1227  C     0.99720   0.21007   0.68862   0.00000  Uiso   1.00
C1228  C     0.50236   0.29009   0.97809   0.00000  Uiso   1.00
C1229  C     0.74981   0.03995   0.69301   0.00000  Uiso   1.00
C1230  C     0.75195   0.46010   0.97388   0.00000  Uiso   1.00
C1231  C     0.74814   0.46005   0.68853   0.00000  Uiso   1.00
C1232  C     0.74720   0.04008   0.97821   0.00000  Uiso   1.00
C1233  C     0.88445   0.14392   0.79166   0.00000  Uiso   1.00
C1234  C     0.61530   0.35651   0.87580   0.00000  Uiso   1.00
C1235  C     0.62106   0.34571   0.79355   0.00000  Uiso   1.00
C1236  C     0.93727   0.30709   0.83450   0.00000  Uiso   1.00
C1237  C     0.87796   0.15668   0.87397   0.00000  Uiso   1.00
C1238  C     0.62128   0.15377   0.86910   0.00000  Uiso   1.00
C1239  C     0.87506   0.33912   0.79747   0.00000  Uiso   1.00
C1240  C     0.89299   0.36605   0.87498   0.00000  Uiso   1.00
C1241  C     0.60238   0.12924   0.79112   0.00000  Uiso   1.00
C1242  C     0.63746   0.38965   0.79089   0.00000  Uiso   1.00
C1243  C     0.85751   0.11469   0.87680   0.00000  Uiso   1.00
C1244  C     0.86867   0.10004   0.79492   0.00000  Uiso   1.00
C1245  C     0.63160   0.40042   0.87337   0.00000  Uiso   1.00
C1246  C     0.87413   0.40766   0.86755   0.00000  Uiso   1.00
C1247  C     0.93589   0.19486   0.83292   0.00000  Uiso   1.00
C1248  C     0.62567   0.08948   0.79543   0.00000  Uiso   1.00
C1249  C     0.63869   0.11125   0.87513   0.00000  Uiso   1.00
C1250  C     0.85122   0.37823   0.79228   0.00000  Uiso   1.00
C1251  C     0.60329   0.33325   0.83501   0.00000  Uiso   1.00
C1252  C     0.89620   0.16790   0.83210   0.00000  Uiso   1.00
C1253  C     0.89913   0.33558   0.83713   0.00000  Uiso   1.00
C1254  C     0.59777   0.15982   0.82944   0.00000  Uiso   1.00
C1255  C     0.84959   0.08850   0.83616   0.00000  Uiso   1.00
C1256  C     0.64856   0.41367   0.83166   0.00000  Uiso   1.00
C1257  C     0.64751   0.08343   0.83614   0.00000  Uiso   1.00
C1258  C     0.56404   0.30543   0.83380   0.00000  Uiso   1.00
C1259  C     0.84811   0.41066   0.82916   0.00000  Uiso   1.00
C1260  C     0.99955   0.33310   0.72009   0.00000  Uiso   1.00
C1261  C     0.50737   0.16668   0.94755   0.00000  Uiso   1.00
C1262  C     0.98864   0.16719   0.71102   0.00000  Uiso   1.00
C1263  C     0.50825   0.33344   0.95556   0.00000  Uiso   1.00
C1264  C     0.75449   0.08282   0.72030   0.00000  Uiso   1.00
C1265  C     0.76041   0.41709   0.94749   0.00000  Uiso   1.00
C1266  C     0.73939   0.41707   0.71063   0.00000  Uiso   1.00
C1267  C     0.74179   0.08339   0.95570   0.00000  Uiso   1.00
C1268  C     0.88348   0.16638   0.74765   0.00000  Uiso   1.00
C1269  C     0.81206   0.44189   0.83212   0.00000  Uiso   1.00
C1270  C     0.61709   0.33269   0.91904   0.00000  Uiso   1.00
C1271  C     0.62729   0.31066   0.75574   0.00000  Uiso   1.00
C1272  C     0.88015   0.18914   0.91419   0.00000  Uiso   1.00
C1273  C     0.63231   0.19342   0.90042   0.00000  Uiso   1.00
C1274  C     0.87297   0.29991   0.76362   0.00000  Uiso   1.00
C1275  C     0.89819   0.35126   0.92221   0.00000  Uiso   1.00
C1276  C     0.58552   0.13898   0.74603   0.00000  Uiso   1.00
C1277  C     0.63444   0.41322   0.74761   0.00000  Uiso   1.00
C1278  C     0.84832   0.09627   0.92184   0.00000  Uiso   1.00
C1279  C     0.87740   0.06517   0.75751   0.00000  Uiso   1.00
C1280  C     0.68655   0.05606   0.83427   0.00000  Uiso   1.00
C1281  C     0.62454   0.43416   0.91209   0.00000  Uiso   1.00
C1282  C     0.88556   0.44939   0.89586   0.00000  Uiso   1.00
C1283  C     0.62556   0.05232   0.75922   0.00000  Uiso   1.00
C1284  C     0.63991   0.09286   0.92113   0.00000  Uiso   1.00
C1285  C     0.83220   0.38534   0.74759   0.00000  Uiso   1.00
C1286  C     0.68651   0.44347   0.83281   0.00000  Uiso   1.00
C1287  C     0.81294   0.05725   0.83405   0.00000  Uiso   1.00
C1288  C     0.50168   0.28993   0.69292   0.00000  Uiso   1.00
H1289  H     0.52781   0.34610   0.73813   0.00000  Uiso   1.00
H1290  H     0.60190   0.30001   0.92256   0.00000  Uiso   1.00
H1291  H     0.61377   0.27687   0.75801   0.00000  Uiso   1.00
H1292  H     0.88794   0.17773   0.94727   0.00000  Uiso   1.00
H1293  H     0.61759   0.22604   0.89648   0.00000  Uiso   1.00
H1294  H     0.87229   0.26593   0.77558   0.00000  Uiso   1.00
H1295  H     0.90606   0.31663   0.92858   0.00000  Uiso   1.00
H1296  H     0.56477   0.11450   0.72791   0.00000  Uiso   1.00
H1297  H     0.64891   0.44615   0.74360   0.00000  Uiso   1.00
H1298  H     0.85475   0.06089   0.92698   0.00000  Uiso   1.00
H1299  H     0.88870   0.07481   0.72464   0.00000  Uiso   1.00
H1300  H     0.98933   0.15736   0.91760   0.00000  Uiso   1.00
H1301  H     0.61511   0.42368   0.94525   0.00000  Uiso   1.00
H1302  H     0.86742   0.48042   0.89347   0.00000  Uiso   1.00
H1303  H     0.62487   0.01750   0.76888   0.00000  Uiso   1.00
H1304  H     0.64996   0.05851   0.92577   0.00000  Uiso   1.00
H1305  H     0.81040   0.36012   0.73211   0.00000  Uiso   1.00
H1306  H     0.50031   0.16228   0.74435   0.00000  Uiso   1.00
H1307  H     0.99480   0.33824   0.92299   0.00000  Uiso   1.00
H1308  H     0.78670   0.09558   0.72882   0.00000  Uiso   1.00
H1309  H     0.74258   0.40771   0.91733   0.00000  Uiso   1.00
H1310  H     0.74942   0.41257   0.74458   0.00000  Uiso   1.00
H1311  H     0.75204   0.08686   0.92145   0.00000  Uiso   1.00
H1312  H     0.89861   0.19897   0.74346   0.00000  Uiso   1.00
N1313  N     0.50000   0.25000   0.95240   0.00000  Uiso   1.00
N1314  N     0.50000   0.25000   0.71427   0.00000  Uiso   1.00
N1315  N     0.75000  -0.00000   0.95240   0.00000  Uiso   1.00
N1316  N     0.75000   0.00000   0.71427   0.00000  Uiso   1.00
O1317  O     0.54581   0.20419   0.87154   0.00000  Uiso   1.00
O1318  O     0.70420   0.04581   0.79513   0.00000  Uiso   1.00
O1319  O     0.70420   0.04581   0.87154   0.00000  Uiso   1.00
O1320  O     0.79581   0.45419   0.79513   0.00000  Uiso   1.00
O1321  O     0.70420   0.45419   0.79513   0.00000  Uiso   1.00
O1322  O     0.79581   0.04581   0.87154   0.00000  Uiso   1.00
O1323  O     0.79581   0.04581   0.79513   0.00000  Uiso   1.00
O1324  O     0.70420   0.45419   0.87154   0.00000  Uiso   1.00
O1325  O     0.96646   0.35573   0.72044   0.00000  Uiso   1.00
O1326  O     0.53470   0.14026   0.95963   0.00000  Uiso   1.00
O1327  O     0.96718   0.13670   0.69260   0.00000  Uiso   1.00
O1328  O     0.95420   0.29581   0.79513   0.00000  Uiso   1.00
O1329  O     0.52957   0.36461   0.97297   0.00000  Uiso   1.00
O1330  O     0.72253   0.10493   0.73205   0.00000  Uiso   1.00
O1331  O     0.78825   0.39122   0.95959   0.00000  Uiso   1.00
O1332  O     0.71945   0.38601   0.69123   0.00000  Uiso   1.00
O1333  O     0.72491   0.11636   0.97503   0.00000  Uiso   1.00
O1334  O     0.86263   0.15020   0.71582   0.00000  Uiso   1.00
O1335  O     0.63892   0.34762   0.95070   0.00000  Uiso   1.00
O1336  O     0.65045   0.31779   0.72311   0.00000  Uiso   1.00
O1337  O     0.87357   0.22940   0.91025   0.00000  Uiso   1.00
O1338  O     0.66070   0.19121   0.92870   0.00000  Uiso   1.00
O1339  O     0.95420   0.29581   0.87154   0.00000  Uiso   1.00
O1340  O     0.87394   0.30490   0.72302   0.00000  Uiso   1.00
O1341  O     0.89007   0.37640   0.95519   0.00000  Uiso   1.00
O1342  O     0.59675   0.17335   0.72786   0.00000  Uiso   1.00
O1343  O     0.61251   0.39750   0.71635   0.00000  Uiso   1.00
O1344  O     0.83260   0.11964   0.95297   0.00000  Uiso   1.00
O1345  O     0.87517   0.02476   0.76396   0.00000  Uiso   1.00
O1346  O     0.62595   0.47475   0.90653   0.00000  Uiso   1.00
O1347  O     0.91784   0.45082   0.91959   0.00000  Uiso   1.00
O1348  O     0.62827   0.05989   0.71921   0.00000  Uiso   1.00
O1349  O     0.62641   0.11459   0.95450   0.00000  Uiso   1.00
O1350  O     0.54581   0.20419   0.79513   0.00000  Uiso   1.00
O1351  O     0.84292   0.41819   0.72666   0.00000  Uiso   1.00
O1352  O     0.95420   0.20419   0.79513   0.00000  Uiso   1.00
O1353  O     0.54581   0.29581   0.87154   0.00000  Uiso   1.00
O1354  O     0.54581   0.29581   0.79513   0.00000  Uiso   1.00
O1355  O     0.95420   0.20419   0.87154   0.00000  Uiso   1.00
O1356  O     0.79581   0.45419   0.87154   0.00000  Uiso   1.00
Zn1357 Zn    0.50000   0.25000   0.88437   0.00000  Uiso   1.00
Zn1358 Zn    0.50000   0.25000   0.78229   0.00000  Uiso   1.00
Zn1359 Zn    0.75000   0.00000   0.88437   0.00000  Uiso   1.00
Zn1360 Zn    0.75000   0.00000   0.78229   0.00000  Uiso   1.00
C1361  C     0.06213   0.69181   0.83217   0.00000  Uiso   1.00
C1362  C     0.49991   0.70998   0.97388   0.00000  Uiso   1.00
C1363  C     0.49720   0.71007   0.68862   0.00000  Uiso   1.00
C1364  C     0.00236   0.79009   0.97809   0.00000  Uiso   1.00
C1365  C     0.24981   0.53995   0.69301   0.00000  Uiso   1.00
C1366  C     0.25195   0.96010   0.97388   0.00000  Uiso   1.00
C1367  C     0.24814   0.96005   0.68853   0.00000  Uiso   1.00
C1368  C     0.24720   0.54008   0.97821   0.00000  Uiso   1.00
C1369  C     0.38445   0.64392   0.79166   0.00000  Uiso   1.00
C1370  C     0.11530   0.85651   0.87580   0.00000  Uiso   1.00
C1371  C     0.12106   0.84571   0.79355   0.00000  Uiso   1.00
C1372  C     0.43727   0.80709   0.83450   0.00000  Uiso   1.00
C1373  C     0.37796   0.65668   0.87397   0.00000  Uiso   1.00
C1374  C     0.12128   0.65377   0.86910   0.00000  Uiso   1.00
C1375  C     0.37506   0.83912   0.79747   0.00000  Uiso   1.00
C1376  C     0.39299   0.86605   0.87498   0.00000  Uiso   1.00
C1377  C     0.10238   0.62924   0.79112   0.00000  Uiso   1.00
C1378  C     0.13746   0.88965   0.79089   0.00000  Uiso   1.00
C1379  C     0.35751   0.61469   0.87680   0.00000  Uiso   1.00
C1380  C     0.36867   0.60004   0.79492   0.00000  Uiso   1.00
C1381  C     0.13160   0.90042   0.87337   0.00000  Uiso   1.00
C1382  C     0.37413   0.90766   0.86755   0.00000  Uiso   1.00
C1383  C     0.43589   0.69486   0.83292   0.00000  Uiso   1.00
C1384  C     0.12567   0.58948   0.79543   0.00000  Uiso   1.00
C1385  C     0.13869   0.61125   0.87513   0.00000  Uiso   1.00
C1386  C     0.35122   0.87823   0.79228   0.00000  Uiso   1.00
C1387  C     0.10329   0.83325   0.83501   0.00000  Uiso   1.00
C1388  C     0.39620   0.66790   0.83210   0.00000  Uiso   1.00
C1389  C     0.39913   0.83558   0.83713   0.00000  Uiso   1.00
C1390  C     0.09777   0.65982   0.82944   0.00000  Uiso   1.00
C1391  C     0.34959   0.58850   0.83616   0.00000  Uiso   1.00
C1392  C     0.14856   0.91367   0.83166   0.00000  Uiso   1.00
C1393  C     0.14751   0.58343   0.83614   0.00000  Uiso   1.00
C1394  C     0.06404   0.80543   0.83380   0.00000  Uiso   1.00
C1395  C     0.34811   0.91066   0.82916   0.00000  Uiso   1.00
C1396  C     0.49955   0.83310   0.72009   0.00000  Uiso   1.00
C1397  C     0.00737   0.66668   0.94755   0.00000  Uiso   1.00
C1398  C     0.48864   0.66719   0.71102   0.00000  Uiso   1.00
C1399  C     0.00825   0.83344   0.95556   0.00000  Uiso   1.00
C1400  C     0.25449   0.58282   0.72030   0.00000  Uiso   1.00
C1401  C     0.26041   0.91709   0.94749   0.00000  Uiso   1.00
C1402  C     0.23939   0.91707   0.71063   0.00000  Uiso   1.00
C1403  C     0.24179   0.58339   0.95570   0.00000  Uiso   1.00
C1404  C     0.38348   0.66638   0.74765   0.00000  Uiso   1.00
C1405  C     0.31206   0.94189   0.83212   0.00000  Uiso   1.00
C1406  C     0.11709   0.83269   0.91904   0.00000  Uiso   1.00
C1407  C     0.12729   0.81066   0.75574   0.00000  Uiso   1.00
C1408  C     0.38015   0.68914   0.91419   0.00000  Uiso   1.00
C1409  C     0.13231   0.69342   0.90042   0.00000  Uiso   1.00
C1410  C     0.37297   0.79991   0.76362   0.00000  Uiso   1.00
C1411  C     0.39819   0.85126   0.92221   0.00000  Uiso   1.00
C1412  C     0.08552   0.63898   0.74603   0.00000  Uiso   1.00
C1413  C     0.13444   0.91322   0.74761   0.00000  Uiso   1.00
C1414  C     0.34832   0.59627   0.92184   0.00000  Uiso   1.00
C1415  C     0.37740   0.56517   0.75751   0.00000  Uiso   1.00
C1416  C     0.18655   0.55606   0.83427   0.00000  Uiso   1.00
C1417  C     0.12454   0.93416   0.91209   0.00000  Uiso   1.00
C1418  C     0.38556   0.94939   0.89586   0.00000  Uiso   1.00
C1419  C     0.12556   0.55232   0.75922   0.00000  Uiso   1.00
C1420  C     0.13991   0.59286   0.92113   0.00000  Uiso   1.00
C1421  C     0.33220   0.88534   0.74759   0.00000  Uiso   1.00
C1422  C     0.18651   0.94347   0.83281   0.00000  Uiso   1.00
C1423  C     0.31294   0.55725   0.83405   0.00000  Uiso   1.00
C1424  C     0.00168   0.78993   0.69292   0.00000  Uiso   1.00
H1425  H     0.02781   0.84610   0.73813   0.00000  Uiso   1.00
H1426  H     0.10190   0.80001   0.92256   0.00000  Uiso   1.00
H1427  H     0.11377   0.77687   0.75801   0.00000  Uiso   1.00
H1428  H     0.38794   0.67773   0.94727   0.00000  Uiso   1.00
H1429  H     0.11759   0.72604   0.89648   0.00000  Uiso   1.00
H1430  H     0.37229   0.76593   0.77558   0.00000  Uiso   1.00
H1431  H     0.40606   0.81663   0.92858   0.00000  Uiso   1.00
H1432  H     0.06477   0.61450   0.72791   0.00000  Uiso   1.00
H1433  H     0.14891   0.94615   0.74360   0.00000  Uiso   1.00
H1434  H     0.35475   0.56089   0.92698   0.00000  Uiso   1.00
H1435  H     0.38870   0.57481   0.72464   0.00000  Uiso   1.00
H1436  H     0.48933   0.65736   0.91760   0.00000  Uiso   1.00
H1437  H     0.11511   0.92368   0.94525   0.00000  Uiso   1.00
H1438  H     0.36742   0.98042   0.89347   0.00000  Uiso   1.00
H1439  H     0.12487   0.51750   0.76888   0.00000  Uiso   1.00
H1440  H     0.14996   0.55851   0.92577   0.00000  Uiso   1.00
H1441  H     0.31040   0.86012   0.73211   0.00000  Uiso   1.00
H1442  H     0.00031   0.66228   0.74435   0.00000  Uiso   1.00
H1443  H     0.49480   0.83824   0.92299   0.00000  Uiso   1.00
H1444  H     0.28670   0.59558   0.72882   0.00000  Uiso   1.00
H1445  H     0.24258   0.90771   0.91733   0.00000  Uiso   1.00
H1446  H     0.24942   0.91257   0.74458   0.00000  Uiso   1.00
H1447  H     0.25204   0.58686   0.92145   0.00000  Uiso   1.00
H1448  H     0.39861   0.69897   0.74346   0.00000  Uiso   1.00
N1449  N     0.00000   0.75000   0.95240   0.00000  Uiso   1.00
N1450  N     0.00000   0.75000   0.71427   0.00000  Uiso   1.00
N1451  N     0.25000   0.50000   0.95240   0.00000  Uiso   1.00
N1452  N     0.25000   0.50000   0.71427   0.00000  Uiso   1.00
O1453  O     0.04581   0.70419   0.87154   0.00000  Uiso   1.00
O1454  O     0.20420   0.54581   0.79513   0.00000  Uiso   1.00
O1455  O     0.20420   0.54581   0.87154   0.00000  Uiso   1.00
O1456  O     0.29581   0.95419   0.79513   0.00000  Uiso   1.00
O1457  O     0.20420   0.95419   0.79513   0.00000  Uiso   1.00
O1458  O     0.29581   0.54581   0.87154   0.00000  Uiso   1.00
O1459  O     0.29581   0.54581   0.79513   0.00000  Uiso   1.00
O1460  O     0.20420   0.95419   0.87154   0.00000  Uiso   1.00
O1461  O     0.46646   0.85573   0.72044   0.00000  Uiso   1.00
O1462  O     0.03470   0.64026   0.95963   0.00000  Uiso   1.00
O1463  O     0.46718   0.63670   0.69260   0.00000  Uiso   1.00
O1464  O     0.45420   0.79581   0.79513   0.00000  Uiso   1.00
O1465  O     0.02957   0.86461   0.97297   0.00000  Uiso   1.00
O1466  O     0.22253   0.60493   0.73205   0.00000  Uiso   1.00
O1467  O     0.28825   0.89122   0.95959   0.00000  Uiso   1.00
O1468  O     0.21945   0.88601   0.69123   0.00000  Uiso   1.00
O1469  O     0.22491   0.61636   0.97503   0.00000  Uiso   1.00
O1470  O     0.36263   0.65020   0.71582   0.00000  Uiso   1.00
O1471  O     0.13892   0.84762   0.95070   0.00000  Uiso   1.00
O1472  O     0.15045   0.81779   0.72311   0.00000  Uiso   1.00
O1473  O     0.37357   0.72940   0.91025   0.00000  Uiso   1.00
O1474  O     0.16070   0.69121   0.92870   0.00000  Uiso   1.00
O1475  O     0.45420   0.79581   0.87154   0.00000  Uiso   1.00
O1476  O     0.37394   0.80490   0.72302   0.00000  Uiso   1.00
O1477  O     0.39007   0.87640   0.95519   0.00000  Uiso   1.00
O1478  O     0.09675   0.67335   0.72786   0.00000  Uiso   1.00
O1479  O     0.11251   0.89750   0.71635   0.00000  Uiso   1.00
O1480  O     0.33260   0.61964   0.95297   0.00000  Uiso   1.00
O1481  O     0.37517   0.52476   0.76396   0.00000  Uiso   1.00
O1482  O     0.12595   0.97475   0.90653   0.00000  Uiso   1.00
O1483  O     0.41784   0.95082   0.91959   0.00000  Uiso   1.00
O1484  O     0.12827   0.55989   0.71921   0.00000  Uiso   1.00
O1485  O     0.12641   0.61459   0.95450   0.00000  Uiso   1.00
O1486  O     0.04581   0.70419   0.79513   0.00000  Uiso   1.00
O1487  O     0.34292   0.91819   0.72666   0.00000  Uiso   1.00
O1488  O     0.45420   0.70419   0.79513   0.00000  Uiso   1.00
O1489  O     0.04581   0.79581   0.87154   0.00000  Uiso   1.00
O1490  O     0.04581   0.79581   0.79513   0.00000  Uiso   1.00
O1491  O     0.45420   0.70419   0.87154   0.00000  Uiso   1.00
O1492  O     0.29581   0.95419   0.87154   0.00000  Uiso   1.00
Zn1493 Zn    0.00000   0.75000   0.88437   0.00000  Uiso   1.00
Zn1494 Zn    0.00000   0.75000   0.78229   0.00000  Uiso   1.00
Zn1495 Zn    0.25000   0.50000   0.88437   0.00000  Uiso   1.00
Zn1496 Zn    0.25000   0.50000   0.78229   0.00000  Uiso   1.00
C1497  C     0.56213   0.69181   0.83217   0.00000  Uiso   1.00
C1498  C     0.99991   0.70998   0.97388   0.00000  Uiso   1.00
C1499  C     0.99720   0.71007   0.68862   0.00000  Uiso   1.00
C1500  C     0.50236   0.79009   0.97809   0.00000  Uiso   1.00
C1501  C     0.74981   0.53995   0.69301   0.00000  Uiso   1.00
C1502  C     0.75195   0.96010   0.97388   0.00000  Uiso   1.00
C1503  C     0.74814   0.96005   0.68853   0.00000  Uiso   1.00
C1504  C     0.74720   0.54008   0.97821   0.00000  Uiso   1.00
C1505  C     0.88445   0.64392   0.79166   0.00000  Uiso   1.00
C1506  C     0.61530   0.85651   0.87580   0.00000  Uiso   1.00
C1507  C     0.62106   0.84571   0.79355   0.00000  Uiso   1.00
C1508  C     0.93727   0.80709   0.83450   0.00000  Uiso   1.00
C1509  C     0.87796   0.65668   0.87397   0.00000  Uiso   1.00
C1510  C     0.62128   0.65377   0.86910   0.00000  Uiso   1.00
C1511  C     0.87506   0.83912   0.79747   0.00000  Uiso   1.00
C1512  C     0.89299   0.86605   0.87498   0.00000  Uiso   1.00
C1513  C     0.60238   0.62924   0.79112   0.00000  Uiso   1.00
C1514  C     0.63746   0.88965   0.79089   0.00000  Uiso   1.00
C1515  C     0.85751   0.61469   0.87680   0.00000  Uiso   1.00
C1516  C     0.86867   0.60004   0.79492   0.00000  Uiso   1.00
C1517  C     0.63160   0.90042   0.87337   0.00000  Uiso   1.00
C1518  C     0.87413   0.90766   0.86755   0.00000  Uiso   1.00
C1519  C     0.93589   0.69486   0.83292   0.00000  Uiso   1.00
C1520  C     0.62567   0.58948   0.79543   0.00000  Uiso   1.00
C1521  C     0.63869   0.61125   0.87513   0.00000  Uiso   1.00
C1522  C     0.85122   0.87823   0.79228   0.00000  Uiso   1.00
C1523  C     0.60329   0.83325   0.83501   0.00000  Uiso   1.00
C1524  C     0.89620   0.66790   0.83210   0.00000  Uiso   1.00
C1525  C     0.89913   0.83558   0.83713   0.00000  Uiso   1.00
C1526  C     0.59777   0.65982   0.82944   0.00000  Uiso   1.00
C1527  C     0.84959   0.58850   0.83616   0.00000  Uiso   1.00
C1528  C     0.64856   0.91367   0.83166   0.00000  Uiso   1.00
C1529  C     0.64751   0.58343   0.83614   0.00000  Uiso   1.00
C1530  C     0.56404   0.80543   0.83380   0.00000  Uiso   1.00
C1531  C     0.84811   0.91066   0.82916   0.00000  Uiso   1.00
C1532  C     0.99955   0.83310   0.72009   0.00000  Uiso   1.00
C1533  C     0.50737   0.66668   0.94755   0.00000  Uiso   1.00
C1534  C     0.98864   0.66719   0.71102   0.00000  Uiso   1.00
C1535  C     0.50825   0.83344   0.95556   0.00000  Uiso   1.00
C1536  C     0.75449   0.58282   0.72030   0.00000  Uiso   1.00
C1537  C     0.76041   0.91709   0.94749   0.00000  Uiso   1.00
C1538  C     0.73939   0.91707   0.71063   0.00000  Uiso   1.00
C1539  C     0.74179   0.58339   0.95570   0.00000  Uiso   1.00
C1540  C     0.88348   0.66638   0.74765   0.00000  Uiso   1.00
C1541  C     0.81206   0.94189   0.83212   0.00000  Uiso   1.00
C1542  C     0.61709   0.83269   0.91904   0.00000  Uiso   1.00
C1543  C     0.62729   0.81066   0.75574   0.00000  Uiso   1.00
C1544  C     0.88015   0.68914   0.91419   0.00000  Uiso   1.00
C1545  C     0.63231   0.69342   0.90042   0.00000  Uiso   1.00
C1546  C     0.87297   0.79991   0.76362   0.00000  Uiso   1.00
C1547  C     0.89819   0.85126   0.92221   0.00000  Uiso   1.00
C1548  C     0.58552   0.63898   0.74603   0.00000  Uiso   1.00
C1549  C     0.63444   0.91322   0.74761   0.00000  Uiso   1.00
C1550  C     0.84832   0.59627   0.92184   0.00000  Uiso   1.00
C1551  C     0.87740   0.56517   0.75751   0.00000  Uiso   1.00
C1552  C     0.68655   0.55606   0.83427   0.00000  Uiso   1.00
C1553  C     0.62454   0.93416   0.91209   0.00000  Uiso   1.00
C1554  C     0.88556   0.94939   0.89586   0.00000  Uiso   1.00
C1555  C     0.62556   0.55232   0.75922   0.00000  Uiso   1.00
C1556  C     0.63991   0.59286   0.92113   0.00000  Uiso   1.00
C1557  C     0.83220   0.88534   0.74759   0.00000  Uiso   1.00
C1558  C     0.68651   0.94347   0.83281   0.00000  Uiso   1.00
C1559  C     0.81294   0.55725   0.83405   0.00000  Uiso   1.00
C1560  C     0.50168   0.78993   0.69292   0.00000  Uiso   1.00
H1561  H     0.52781   0.84610   0.73813   0.00000  Uiso   1.00
H1562  H     0.60190   0.80001   0.92256   0.00000  Uiso   1.00
H1563  H     0.61377   0.77687   0.75801   0.00000  Uiso   1.00
H1564  H     0.88794   0.67773   0.94727   0.00000  Uiso   1.00
H1565  H     0.61759   0.72604   0.89648   0.00000  Uiso   1.00
H1566  H     0.87229   0.76593   0.77558   0.00000  Uiso   1.00
H1567  H     0.90606   0.81663   0.92858   0.00000  Uiso   1.00
H1568  H     0.56477   0.61450   0.72791   0.00000  Uiso   1.00
H1569  H     0.64891   0.94615   0.74360   0.00000  Uiso   1.00
H1570  H     0.85475   0.56089   0.92698   0.00000  Uiso   1.00
H1571  H     0.88870   0.57481   0.72464   0.00000  Uiso   1.00
H1572  H     0.98933   0.65736   0.91760   0.00000  Uiso   1.00
H1573  H     0.61511   0.92368   0.94525   0.00000  Uiso   1.00
H1574  H     0.86742   0.98042   0.89347   0.00000  Uiso   1.00
H1575  H     0.62487   0.51750   0.76888   0.00000  Uiso   1.00
H1576  H     0.64996   0.55851   0.92577   0.00000  Uiso   1.00
H1577  H     0.81040   0.86012   0.73211   0.00000  Uiso   1.00
H1578  H     0.50031   0.66228   0.74435   0.00000  Uiso   1.00
H1579  H     0.99480   0.83824   0.92299   0.00000  Uiso   1.00
H1580  H     0.78670   0.59558   0.72882   0.00000  Uiso   1.00
H1581  H     0.74258   0.90771   0.91733   0.00000  Uiso   1.00
H1582  H     0.74942   0.91257   0.74458   0.00000  Uiso   1.00
H1583  H     0.75204   0.58686   0.92145   0.00000  Uiso   1.00
H1584  H     0.89861   0.69897   0.74346   0.00000  Uiso   1.00
N1585  N     0.50000   0.75000   0.95240   0.00000  Uiso   1.00
N1586  N     0.50000   0.75000   0.71427   0.00000  Uiso   1.00
N1587  N     0.75000   0.50000   0.95240   0.00000  Uiso   1.00
N1588  N     0.75000   0.50000   0.71427   0.00000  Uiso   1.00
O1589  O     0.54581   0.70419   0.87154   0.00000  Uiso   1.00
O1590  O     0.70420   0.54581   0.79513   0.00000  Uiso   1.00
O1591  O     0.70420   0.54581   0.87154   0.00000  Uiso   1.00
O1592  O     0.79581   0.95419   0.79513   0.00000  Uiso   1.00
O1593  O     0.70420   0.95419   0.79513   0.00000  Uiso   1.00
O1594  O     0.79581   0.54581   0.87154   0.00000  Uiso   1.00
O1595  O     0.79581   0.54581   0.79513   0.00000  Uiso   1.00
O1596  O     0.70420   0.95419   0.87154   0.00000  Uiso   1.00
O1597  O     0.96646   0.85573   0.72044   0.00000  Uiso   1.00
O1598  O     0.53470   0.64026   0.95963   0.00000  Uiso   1.00
O1599  O     0.96718   0.63670   0.69260   0.00000  Uiso   1.00
O1600  O     0.95420   0.79581   0.79513   0.00000  Uiso   1.00
O1601  O     0.52957   0.86461   0.97297   0.00000  Uiso   1.00
O1602  O     0.72253   0.60493   0.73205   0.00000  Uiso   1.00
O1603  O     0.78825   0.89122   0.95959   0.00000  Uiso   1.00
O1604  O     0.71945   0.88601   0.69123   0.00000  Uiso   1.00
O1605  O     0.72491   0.61636   0.97503   0.00000  Uiso   1.00
O1606  O     0.86263   0.65020   0.71582   0.00000  Uiso   1.00
O1607  O     0.63892   0.84762   0.95070   0.00000  Uiso   1.00
O1608  O     0.65045   0.81779   0.72311   0.00000  Uiso   1.00
O1609  O     0.87357   0.72940   0.91025   0.00000  Uiso   1.00
O1610  O     0.66070   0.69121   0.92870   0.00000  Uiso   1.00
O1611  O     0.95420   0.79581   0.87154   0.00000  Uiso   1.00
O1612  O     0.87394   0.80490   0.72302   0.00000  Uiso   1.00
O1613  O     0.89007   0.87640   0.95519   0.00000  Uiso   1.00
O1614  O     0.59675   0.67335   0.72786   0.00000  Uiso   1.00
O1615  O     0.61251   0.89750   0.71635   0.00000  Uiso   1.00
O1616  O     0.83260   0.61964   0.95297   0.00000  Uiso   1.00
O1617  O     0.87517   0.52476   0.76396   0.00000  Uiso   1.00
O1618  O     0.62595   0.97475   0.90653   0.00000  Uiso   1.00
O1619  O     0.91784   0.95082   0.91959   0.00000  Uiso   1.00
O1620  O     0.62827   0.55989   0.71921   0.00000  Uiso   1.00
O1621  O     0.62641   0.61459   0.95450   0.00000  Uiso   1.00
O1622  O     0.54581   0.70419   0.79513   0.00000  Uiso   1.00
O1623  O     0.84292   0.91819   0.72666   0.00000  Uiso   1.00
O1624  O     0.95420   0.70419   0.79513   0.00000  Uiso   1.00
O1625  O     0.54581   0.79581   0.87154   0.00000  Uiso   1.00
O1626  O     0.54581   0.79581   0.79513   0.00000  Uiso   1.00
O1627  O     0.95420   0.70419   0.87154   0.00000  Uiso   1.00
O1628  O     0.79581   0.95419   0.87154   0.00000  Uiso   1.00
Zn1629 Zn    0.50000   0.75000   0.88437   0.00000  Uiso   1.00
Zn1630 Zn    0.50000   0.75000   0.78229   0.00000  Uiso   1.00
Zn1631 Zn    0.75000   0.50000   0.88437   0.00000  Uiso   1.00
Zn1632 Zn    0.75000   0.50000   0.78229   0.00000  Uiso   1.00
loop_
_geom_bond_atom_site_label_1
_geom_bond_atom_site_label_2
_geom_bond_distance
_geom_bond_site_symmetry_2
_ccdc_geom_bond_type
C1     O126    1.285   .     A
C1     C30     1.451   .     S
C1     O93     1.301   .     A
C2     N225    1.374   .     A
C2     C547    1.427   .     S
C2     C173    1.481   .     S
C3     N226    1.372   .     A
C3     C38     1.483   .     S
C3     C1090   1.427   1_554 S
C4     C39     1.486   .     S
C4     C608    1.429   .     S
C4     N89     1.376   .     S
C5     N92     1.369   .     A
C5     C40     1.473   .     S
C5     C1096   1.431   1_554 S
C6     N363    1.373   .     A
C6     C41     1.480   .     S
C6     C551    1.427   .     S
C7     C42     1.482   .     S
C7     C1094   1.427   1_554 S
C7     N364    1.372   .     S
C8     C43     1.487   .     S
C8     C549    1.431   .     S
C8     N91     1.378   .     S
C9     C20     1.389   .     A
C9     C44     1.497   .     S
C9     C28     1.409   .     A
C10    C27     1.410   .     A
C10    C46     1.498   .     S
C10    C21     1.393   .     A
C11    C18     1.395   .     A
C11    C47     1.497   .     S
C11    C27     1.406   .     A
C12    C29     1.447   .     S
C12    O115    1.282   .     A
C12    O104    1.301   .     A
C13    C28     1.411   .     A
C13    C19     1.393   .     A
C13    C48     1.492   .     S
C14    C49     1.495   .     S
C14    C30     1.407   .     A
C14    C25     1.391   .     A
C15    C50     1.494   .     S
C15    C29     1.405   .     A
C15    C26     1.390   .     A
C16    C51     1.500   .     S
C16    C29     1.413   .     A
C16    C22     1.393   .     A
C17    C30     1.420   .     A
C17    C52     1.483   .     S
C17    C24     1.393   .     A
C18    C53     1.497   .     S
C18    C32     1.413   .     A
C19    C31     1.419   .     A
C19    C54     1.492   .     S
C20    C55     1.496   .     S
C20    C31     1.407   .     A
C21    C32     1.410   .     A
C21    C57     1.495   .     S
C22    C35     1.405   .     A
C22    C58     1.496   .     S
C23    O131    1.297   .     A
C23    C28     1.451   .     S
C23    O128    1.290   .     A
C24    C33     1.408   .     A
C24    C59     1.494   .     S
C25    C60     1.497   .     S
C25    C33     1.407   .     A
C26    C61     1.481   .     S
C26    C35     1.418   .     A
C27    C34     1.453   .     S
C31    C63     1.450   .     S
C32    C62     1.455   .     S
C33    C56     1.451   .     S
C34    O129    1.290   .     A
C34    O130    1.299   .     A
C35    C45     1.446   .     S
C36    O101    1.221   .     D
C36    C200    1.474   .     S
C36    H201    1.082   .     S
C37    O102    1.221   .     D
C37    C138    1.481   1_455 S
C37    H212    1.074   1_455 S
C38    O103    1.221   .     D
C38    H218    1.073   .     S
C39    O105    1.221   .     D
C39    H219    1.072   1_455 S
C40    H84     1.084   .     S
C40    O106    1.220   .     D
C41    O107    1.221   .     D
C41    H85     1.076   .     S
C42    H86     1.072   .     S
C42    O108    1.221   .     D
C43    H87     1.070   .     S
C43    O109    1.220   .     D
C44    H88     1.079   .     S
C44    O110    1.221   .     D
C45    O132    1.300   .     A
C45    O96     1.282   .     A
C46    H66     1.079   .     S
C46    O111    1.221   .     D
C47    H67     1.084   .     S
C47    O112    1.221   .     D
C48    H68     1.084   .     S
C48    O113    1.221   .     D
C49    O114    1.221   .     D
C49    H69     1.081   .     S
C50    H70     1.083   .     S
C50    O116    1.221   .     D
C51    H71     1.081   .     S
C51    O117    1.221   .     D
C52    H72     1.085   .     S
C52    O118    1.221   .     D
C53    H73     1.079   .     S
C53    O119    1.221   .     D
C54    O120    1.220   .     D
C54    H74     1.085   .     S
C55    O121    1.222   .     D
C55    H75     1.083   .     S
C56    O95     1.288   .     A
C56    O94     1.297   .     A
C57    O122    1.221   .     D
C57    H77     1.082   .     S
C58    O123    1.221   .     D
C58    H78     1.083   .     S
C59    H79     1.083   .     S
C59    O124    1.221   .     D
C60    O125    1.221   .     D
C60    H80     1.080   .     S
C61    O127    1.221   .     D
C61    H81     1.085   .     S
C62    O97     1.291   .     A
C62    O100    1.299   .     A
C63    O98     1.285   .     A
C63    O99     1.301   .     A
C64    C172    1.474   1_455 S
C64    C1092   1.429   1_554 S
C64    N90     1.370   .     S
H65    C172    1.082   1_455 S
H76    C173    1.074   .     S
H82    C174    1.073   1_455 S
H83    C175    1.072   .     S
N89    C138    1.374   1_455 A
N89    Zn133   2.017   .     S
N90    C139    1.372   1_455 A
N90    Zn134   2.017   .     S
N91    C278    1.373   1_545 A
N91    Zn135   2.017   .     S
N92    Zn136   2.017   .     S
N92    C279    1.372   1_545 S
O93    Zn133   1.980   .     S
O94    Zn136   1.980   .     S
O95    Zn135   2.014   .     S
O96    Zn408   2.014   .     S
O97    Zn408   1.993   .     S
O98    Zn135   1.993   .     S
O99    Zn136   1.971   .     S
O100   Zn407   1.971   .     S
O104   Zn270   1.980   .     S
O115   Zn269   2.014   .     S
O126   Zn134   2.014   .     S
O128   Zn270   1.993   .     S
O129   Zn133   1.993   .     S
O130   Zn134   1.971   .     S
O131   Zn269   1.971   .     S
O132   Zn407   1.980   .     S
Zn133  O267    1.971   1_455 S
Zn133  O251    2.014   1_455 S
Zn134  O264    1.993   1_455 S
Zn134  O240    1.980   1_455 S
Zn135  O372    1.971   1_545 S
Zn135  O404    1.980   1_545 S
Zn136  O369    1.993   1_545 S
Zn136  O368    2.014   1_545 S
C137   O262    1.285   .     A
C137   C166    1.451   .     S
C137   O229    1.301   .     A
C138   N89     1.374   1_655 A
C138   C683    1.427   .     S
C138   C37     1.481   1_655 S
C139   N90     1.372   1_655 A
C139   C174    1.483   .     S
C139   C1226   1.427   1_554 S
C140   C175    1.486   .     S
C140   C744    1.429   .     S
C140   N225    1.376   .     S
C141   N228    1.369   .     A
C141   C176    1.473   .     S
C141   C1232   1.431   1_554 S
C142   N499    1.373   .     A
C142   C177    1.480   .     S
C142   C687    1.427   .     S
C143   C178    1.482   .     S
C143   C1230   1.427   1_554 S
C143   N500    1.372   .     S
C144   C179    1.487   .     S
C144   C685    1.431   .     S
C144   N227    1.378   .     S
C145   C156    1.389   .     A
C145   C180    1.497   .     S
C145   C164    1.409   .     A
C146   C163    1.410   .     A
C146   C182    1.498   .     S
C146   C157    1.393   .     A
C147   C154    1.395   .     A
C147   C183    1.497   .     S
C147   C163    1.406   .     A
C148   C165    1.447   .     S
C148   O251    1.282   .     A
C148   O240    1.301   .     A
C149   C164    1.411   .     A
C149   C155    1.393   .     A
C149   C184    1.492   .     S
C150   C185    1.495   .     S
C150   C166    1.407   .     A
C150   C161    1.391   .     A
C151   C186    1.494   .     S
C151   C165    1.405   .     A
C151   C162    1.390   .     A
C152   C187    1.500   .     S
C152   C165    1.413   .     A
C152   C158    1.393   .     A
C153   C166    1.420   .     A
C153   C188    1.483   .     S
C153   C160    1.393   .     A
C154   C189    1.497   .     S
C154   C168    1.413   .     A
C155   C167    1.419   .     A
C155   C190    1.492   .     S
C156   C191    1.496   .     S
C156   C167    1.407   .     A
C157   C168    1.410   .     A
C157   C193    1.495   .     S
C158   C171    1.405   .     A
C158   C194    1.496   .     S
C159   O267    1.297   .     A
C159   C164    1.451   .     S
C159   O264    1.290   .     A
C160   C169    1.408   .     A
C160   C195    1.494   .     S
C161   C196    1.497   .     S
C161   C169    1.407   .     A
C162   C197    1.481   .     S
C162   C171    1.418   .     A
C163   C170    1.453   .     S
C167   C199    1.450   .     S
C168   C198    1.455   .     S
C169   C192    1.451   .     S
C170   O265    1.290   .     A
C170   O266    1.299   .     A
C171   C181    1.446   .     S
C172   O237    1.221   .     D
C172   C64     1.474   1_655 S
C172   H65     1.082   1_655 S
C173   O238    1.221   .     D
C174   O239    1.221   .     D
C174   H82     1.073   1_655 S
C175   O241    1.221   .     D
C176   H220    1.084   .     S
C176   O242    1.220   .     D
C177   O243    1.221   .     D
C177   H221    1.076   .     S
C178   H222    1.072   .     S
C178   O244    1.221   .     D
C179   H223    1.070   .     S
C179   O245    1.220   .     D
C180   H224    1.079   .     S
C180   O246    1.221   .     D
C181   O268    1.300   .     A
C181   O232    1.282   .     A
C182   H202    1.079   .     S
C182   O247    1.221   .     D
C183   H203    1.084   .     S
C183   O248    1.221   .     D
C184   H204    1.084   .     S
C184   O249    1.221   .     D
C185   O250    1.221   .     D
C185   H205    1.081   .     S
C186   H206    1.083   .     S
C186   O252    1.221   .     D
C187   H207    1.081   .     S
C187   O253    1.221   .     D
C188   H208    1.085   .     S
C188   O254    1.221   .     D
C189   H209    1.079   .     S
C189   O255    1.221   .     D
C190   O256    1.220   .     D
C190   H210    1.085   .     S
C191   O257    1.222   .     D
C191   H211    1.083   .     S
C192   O231    1.288   .     A
C192   O230    1.297   .     A
C193   O258    1.221   .     D
C193   H213    1.082   .     S
C194   O259    1.221   .     D
C194   H214    1.083   .     S
C195   H215    1.083   .     S
C195   O260    1.221   .     D
C196   O261    1.221   .     D
C196   H216    1.080   .     S
C197   O263    1.221   .     D
C197   H217    1.085   .     S
C198   O233    1.291   .     A
C198   O236    1.299   .     A
C199   O234    1.285   .     A
C199   O235    1.301   .     A
C200   C1228   1.429   1_554 S
C200   N226    1.370   .     S
H212   C37     1.074   1_655 S
H219   C39     1.072   1_655 S
N225   Zn269   2.017   .     S
N226   Zn270   2.017   .     S
N227   C414    1.373   1_545 A
N227   Zn271   2.017   .     S
N228   Zn272   2.017   .     S
N228   C415    1.372   1_545 S
O229   Zn269   1.980   .     S
O230   Zn272   1.980   .     S
O231   Zn271   2.014   .     S
O232   Zn544   2.014   .     S
O233   Zn544   1.993   .     S
O234   Zn271   1.993   .     S
O235   Zn272   1.971   .     S
O236   Zn543   1.971   .     S
O240   Zn134   1.980   1_655 S
O251   Zn133   2.014   1_655 S
O262   Zn270   2.014   .     S
O264   Zn134   1.993   1_655 S
O265   Zn269   1.993   .     S
O266   Zn270   1.971   .     S
O267   Zn133   1.971   1_655 S
O268   Zn543   1.980   .     S
Zn271  O508    1.971   1_545 S
Zn271  O540    1.980   1_545 S
Zn272  O505    1.993   1_545 S
Zn272  O504    2.014   1_545 S
C273   O398    1.285   .     A
C273   C302    1.451   .     S
C273   O365    1.301   .     A
C274   N497    1.374   .     A
C274   C819    1.427   .     S
C274   C445    1.481   .     S
C275   N498    1.372   .     A
C275   C310    1.483   .     S
C275   C1362   1.427   1_554 S
C276   C311    1.486   .     S
C276   C880    1.429   .     S
C276   N361    1.376   .     S
C277   N364    1.369   .     A
C277   C312    1.473   .     S
C277   C1368   1.431   1_554 S
C278   N91     1.373   1_565 A
C278   C313    1.480   .     S
C278   C823    1.427   .     S
C279   C314    1.482   .     S
C279   C1366   1.427   1_554 S
C279   N92     1.372   1_565 S
C280   C315    1.487   .     S
C280   C821    1.431   .     S
C280   N363    1.378   .     S
C281   C292    1.389   .     A
C281   C316    1.497   .     S
C281   C300    1.409   .     A
C282   C299    1.410   .     A
C282   C318    1.498   .     S
C282   C293    1.393   .     A
C283   C290    1.395   .     A
C283   C319    1.497   .     S
C283   C299    1.406   .     A
C284   C301    1.447   .     S
C284   O387    1.282   .     A
C284   O376    1.301   .     A
C285   C300    1.411   .     A
C285   C291    1.393   .     A
C285   C320    1.492   .     S
C286   C321    1.495   .     S
C286   C302    1.407   .     A
C286   C297    1.391   .     A
C287   C322    1.494   .     S
C287   C301    1.405   .     A
C287   C298    1.390   .     A
C288   C323    1.500   .     S
C288   C301    1.413   .     A
C288   C294    1.393   .     A
C289   C302    1.420   .     A
C289   C324    1.483   .     S
C289   C296    1.393   .     A
C290   C325    1.497   .     S
C290   C304    1.413   .     A
C291   C303    1.419   .     A
C291   C326    1.492   .     S
C292   C327    1.496   .     S
C292   C303    1.407   .     A
C293   C304    1.410   .     A
C293   C329    1.495   .     S
C294   C307    1.405   .     A
C294   C330    1.496   .     S
C295   O403    1.297   .     A
C295   C300    1.451   .     S
C295   O400    1.290   .     A
C296   C305    1.408   .     A
C296   C331    1.494   .     S
C297   C332    1.497   .     S
C297   C305    1.407   .     A
C298   C333    1.481   .     S
C298   C307    1.418   .     A
C299   C306    1.453   .     S
C303   C335    1.450   .     S
C304   C334    1.455   .     S
C305   C328    1.451   .     S
C306   O401    1.290   .     A
C306   O402    1.299   .     A
C307   C317    1.446   .     S
C308   O373    1.221   .     D
C308   C472    1.474   .     S
C308   H473    1.082   .     S
C309   O374    1.221   .     D
C309   C410    1.481   1_455 S
C309   H484    1.074   1_455 S
C310   O375    1.221   .     D
C310   H490    1.073   .     S
C311   O377    1.221   .     D
C311   H491    1.072   1_455 S
C312   H356    1.084   .     S
C312   O378    1.220   .     D
C313   O379    1.221   .     D
C313   H357    1.076   .     S
C314   H358    1.072   .     S
C314   O380    1.221   .     D
C315   H359    1.070   .     S
C315   O381    1.220   .     D
C316   H360    1.079   .     S
C316   O382    1.221   .     D
C317   O404    1.300   .     A
C317   O368    1.282   .     A
C318   H338    1.079   .     S
C318   O383    1.221   .     D
C319   H339    1.084   .     S
C319   O384    1.221   .     D
C320   H340    1.084   .     S
C320   O385    1.221   .     D
C321   O386    1.221   .     D
C321   H341    1.081   .     S
C322   H342    1.083   .     S
C322   O388    1.221   .     D
C323   H343    1.081   .     S
C323   O389    1.221   .     D
C324   H344    1.085   .     S
C324   O390    1.221   .     D
C325   H345    1.079   .     S
C325   O391    1.221   .     D
C326   O392    1.220   .     D
C326   H346    1.085   .     S
C327   O393    1.222   .     D
C327   H347    1.083   .     S
C328   O367    1.288   .     A
C328   O366    1.297   .     A
C329   O394    1.221   .     D
C329   H349    1.082   .     S
C330   O395    1.221   .     D
C330   H350    1.083   .     S
C331   H351    1.083   .     S
C331   O396    1.221   .     D
C332   O397    1.221   .     D
C332   H352    1.080   .     S
C333   O399    1.221   .     D
C333   H353    1.085   .     S
C334   O369    1.291   .     A
C334   O372    1.299   .     A
C335   O370    1.285   .     A
C335   O371    1.301   .     A
C336   C444    1.474   1_455 S
C336   C1364   1.429   1_554 S
C336   N362    1.370   .     S
H337   C444    1.082   1_455 S
H348   C445    1.074   .     S
H354   C446    1.073   1_455 S
H355   C447    1.072   .     S
N361   C410    1.374   1_455 A
N361   Zn405   2.017   .     S
N362   C411    1.372   1_455 A
N362   Zn406   2.017   .     S
N363   Zn407   2.017   .     S
N364   Zn408   2.017   .     S
O365   Zn405   1.980   .     S
O366   Zn408   1.980   .     S
O367   Zn407   2.014   .     S
O368   Zn136   2.014   1_565 S
O369   Zn136   1.993   1_565 S
O370   Zn407   1.993   .     S
O371   Zn408   1.971   .     S
O372   Zn135   1.971   1_565 S
O376   Zn542   1.980   .     S
O387   Zn541   2.014   .     S
O398   Zn406   2.014   .     S
O400   Zn542   1.993   .     S
O401   Zn405   1.993   .     S
O402   Zn406   1.971   .     S
O403   Zn541   1.971   .     S
O404   Zn135   1.980   1_565 S
Zn405  O539    1.971   1_455 S
Zn405  O523    2.014   1_455 S
Zn406  O536    1.993   1_455 S
Zn406  O512    1.980   1_455 S
C409   O534    1.285   .     A
C409   C438    1.451   .     S
C409   O501    1.301   .     A
C410   N361    1.374   1_655 A
C410   C955    1.427   .     S
C410   C309    1.481   1_655 S
C411   N362    1.372   1_655 A
C411   C446    1.483   .     S
C411   C1498   1.427   1_554 S
C412   C447    1.486   .     S
C412   C1016   1.429   .     S
C412   N497    1.376   .     S
C413   N500    1.369   .     A
C413   C448    1.473   .     S
C413   C1504   1.431   1_554 S
C414   N227    1.373   1_565 A
C414   C449    1.480   .     S
C414   C959    1.427   .     S
C415   C450    1.482   .     S
C415   C1502   1.427   1_554 S
C415   N228    1.372   1_565 S
C416   C451    1.487   .     S
C416   C957    1.431   .     S
C416   N499    1.378   .     S
C417   C428    1.389   .     A
C417   C452    1.497   .     S
C417   C436    1.409   .     A
C418   C435    1.410   .     A
C418   C454    1.498   .     S
C418   C429    1.393   .     A
C419   C426    1.395   .     A
C419   C455    1.497   .     S
C419   C435    1.406   .     A
C420   C437    1.447   .     S
C420   O523    1.282   .     A
C420   O512    1.301   .     A
C421   C436    1.411   .     A
C421   C427    1.393   .     A
C421   C456    1.492   .     S
C422   C457    1.495   .     S
C422   C438    1.407   .     A
C422   C433    1.391   .     A
C423   C458    1.494   .     S
C423   C437    1.405   .     A
C423   C434    1.390   .     A
C424   C459    1.500   .     S
C424   C437    1.413   .     A
C424   C430    1.393   .     A
C425   C438    1.420   .     A
C425   C460    1.483   .     S
C425   C432    1.393   .     A
C426   C461    1.497   .     S
C426   C440    1.413   .     A
C427   C439    1.419   .     A
C427   C462    1.492   .     S
C428   C463    1.496   .     S
C428   C439    1.407   .     A
C429   C440    1.410   .     A
C429   C465    1.495   .     S
C430   C443    1.405   .     A
C430   C466    1.496   .     S
C431   O539    1.297   .     A
C431   C436    1.451   .     S
C431   O536    1.290   .     A
C432   C441    1.408   .     A
C432   C467    1.494   .     S
C433   C468    1.497   .     S
C433   C441    1.407   .     A
C434   C469    1.481   .     S
C434   C443    1.418   .     A
C435   C442    1.453   .     S
C439   C471    1.450   .     S
C440   C470    1.455   .     S
C441   C464    1.451   .     S
C442   O537    1.290   .     A
C442   O538    1.299   .     A
C443   C453    1.446   .     S
C444   O509    1.221   .     D
C444   C336    1.474   1_655 S
C444   H337    1.082   1_655 S
C445   O510    1.221   .     D
C446   O511    1.221   .     D
C446   H354    1.073   1_655 S
C447   O513    1.221   .     D
C448   H492    1.084   .     S
C448   O514    1.220   .     D
C449   O515    1.221   .     D
C449   H493    1.076   .     S
C450   H494    1.072   .     S
C450   O516    1.221   .     D
C451   H495    1.070   .     S
C451   O517    1.220   .     D
C452   H496    1.079   .     S
C452   O518    1.221   .     D
C453   O540    1.300   .     A
C453   O504    1.282   .     A
C454   H474    1.079   .     S
C454   O519    1.221   .     D
C455   H475    1.084   .     S
C455   O520    1.221   .     D
C456   H476    1.084   .     S
C456   O521    1.221   .     D
C457   O522    1.221   .     D
C457   H477    1.081   .     S
C458   H478    1.083   .     S
C458   O524    1.221   .     D
C459   H479    1.081   .     S
C459   O525    1.221   .     D
C460   H480    1.085   .     S
C460   O526    1.221   .     D
C461   H481    1.079   .     S
C461   O527    1.221   .     D
C462   O528    1.220   .     D
C462   H482    1.085   .     S
C463   O529    1.222   .     D
C463   H483    1.083   .     S
C464   O503    1.288   .     A
C464   O502    1.297   .     A
C465   O530    1.221   .     D
C465   H485    1.082   .     S
C466   O531    1.221   .     D
C466   H486    1.083   .     S
C467   H487    1.083   .     S
C467   O532    1.221   .     D
C468   O533    1.221   .     D
C468   H488    1.080   .     S
C469   O535    1.221   .     D
C469   H489    1.085   .     S
C470   O505    1.291   .     A
C470   O508    1.299   .     A
C471   O506    1.285   .     A
C471   O507    1.301   .     A
C472   C1500   1.429   1_554 S
C472   N498    1.370   .     S
H484   C309    1.074   1_655 S
H491   C311    1.072   1_655 S
N497   Zn541   2.017   .     S
N498   Zn542   2.017   .     S
N499   Zn543   2.017   .     S
N500   Zn544   2.017   .     S
O501   Zn541   1.980   .     S
O502   Zn544   1.980   .     S
O503   Zn543   2.014   .     S
O504   Zn272   2.014   1_565 S
O505   Zn272   1.993   1_565 S
O506   Zn543   1.993   .     S
O507   Zn544   1.971   .     S
O508   Zn271   1.971   1_565 S
O512   Zn406   1.980   1_655 S
O523   Zn405   2.014   1_655 S
O534   Zn542   2.014   .     S
O536   Zn406   1.993   1_655 S
O537   Zn541   1.993   .     S
O538   Zn542   1.971   .     S
O539   Zn405   1.971   1_655 S
O540   Zn271   1.980   1_565 S
C545   O670    1.285   .     A
C545   C574    1.451   .     S
C545   O637    1.301   .     A
C546   N769    1.374   .     A
C546   C1091   1.427   .     S
C546   C717    1.481   .     S
C547   N770    1.372   .     A
C547   C582    1.483   .     S
C548   C583    1.486   .     S
C548   C1152   1.429   .     S
C548   N633    1.376   .     S
C549   N636    1.369   .     A
C549   C584    1.473   .     S
C550   N907    1.373   .     A
C550   C585    1.480   .     S
C550   C1095   1.427   .     S
C551   C586    1.482   .     S
C551   N908    1.372   .     S
C552   C587    1.487   .     S
C552   C1093   1.431   .     S
C552   N635    1.378   .     S
C553   C564    1.389   .     A
C553   C588    1.497   .     S
C553   C572    1.409   .     A
C554   C571    1.410   .     A
C554   C590    1.498   .     S
C554   C565    1.393   .     A
C555   C562    1.395   .     A
C555   C591    1.497   .     S
C555   C571    1.406   .     A
C556   C573    1.447   .     S
C556   O659    1.282   .     A
C556   O648    1.301   .     A
C557   C572    1.411   .     A
C557   C563    1.393   .     A
C557   C592    1.492   .     S
C558   C593    1.495   .     S
C558   C574    1.407   .     A
C558   C569    1.391   .     A
C559   C594    1.494   .     S
C559   C573    1.405   .     A
C559   C570    1.390   .     A
C560   C595    1.500   .     S
C560   C573    1.413   .     A
C560   C566    1.393   .     A
C561   C574    1.420   .     A
C561   C596    1.483   .     S
C561   C568    1.393   .     A
C562   C597    1.497   .     S
C562   C576    1.413   .     A
C563   C575    1.419   .     A
C563   C598    1.492   .     S
C564   C599    1.496   .     S
C564   C575    1.407   .     A
C565   C576    1.410   .     A
C565   C601    1.495   .     S
C566   C579    1.405   .     A
C566   C602    1.496   .     S
C567   O675    1.297   .     A
C567   C572    1.451   .     S
C567   O672    1.290   .     A
C568   C577    1.408   .     A
C568   C603    1.494   .     S
C569   C604    1.497   .     S
C569   C577    1.407   .     A
C570   C605    1.481   .     S
C570   C579    1.418   .     A
C571   C578    1.453   .     S
C575   C607    1.450   .     S
C576   C606    1.455   .     S
C577   C600    1.451   .     S
C578   O673    1.290   .     A
C578   O674    1.299   .     A
C579   C589    1.446   .     S
C580   O645    1.221   .     D
C580   C744    1.474   .     S
C580   H745    1.082   .     S
C581   O646    1.221   .     D
C581   C682    1.481   1_455 S
C581   H756    1.074   1_455 S
C582   O647    1.221   .     D
C582   H762    1.073   .     S
C583   O649    1.221   .     D
C583   H763    1.072   1_455 S
C584   H628    1.084   .     S
C584   O650    1.220   .     D
C585   O651    1.221   .     D
C585   H629    1.076   .     S
C586   H630    1.072   .     S
C586   O652    1.221   .     D
C587   H631    1.070   .     S
C587   O653    1.220   .     D
C588   H632    1.079   .     S
C588   O654    1.221   .     D
C589   O676    1.300   .     A
C589   O640    1.282   .     A
C590   H610    1.079   .     S
C590   O655    1.221   .     D
C591   H611    1.084   .     S
C591   O656    1.221   .     D
C592   H612    1.084   .     S
C592   O657    1.221   .     D
C593   O658    1.221   .     D
C593   H613    1.081   .     S
C594   H614    1.083   .     S
C594   O660    1.221   .     D
C595   H615    1.081   .     S
C595   O661    1.221   .     D
C596   H616    1.085   .     S
C596   O662    1.221   .     D
C597   H617    1.079   .     S
C597   O663    1.221   .     D
C598   O664    1.220   .     D
C598   H618    1.085   .     S
C599   O665    1.222   .     D
C599   H619    1.083   .     S
C600   O639    1.288   .     A
C600   O638    1.297   .     A
C601   O666    1.221   .     D
C601   H621    1.082   .     S
C602   O667    1.221   .     D
C602   H622    1.083   .     S
C603   H623    1.083   .     S
C603   O668    1.221   .     D
C604   O669    1.221   .     D
C604   H624    1.080   .     S
C605   O671    1.221   .     D
C605   H625    1.085   .     S
C606   O641    1.291   .     A
C606   O644    1.299   .     A
C607   O642    1.285   .     A
C607   O643    1.301   .     A
C608   C716    1.474   1_455 S
C608   N634    1.370   .     S
H609   C716    1.082   1_455 S
H620   C717    1.074   .     S
H626   C718    1.073   1_455 S
H627   C719    1.072   .     S
N633   C682    1.374   1_455 A
N633   Zn677   2.017   .     S
N634   C683    1.372   1_455 A
N634   Zn678   2.017   .     S
N635   C822    1.373   1_545 A
N635   Zn679   2.017   .     S
N636   Zn680   2.017   .     S
N636   C823    1.372   1_545 S
O637   Zn677   1.980   .     S
O638   Zn680   1.980   .     S
O639   Zn679   2.014   .     S
O640   Zn952   2.014   .     S
O641   Zn952   1.993   .     S
O642   Zn679   1.993   .     S
O643   Zn680   1.971   .     S
O644   Zn951   1.971   .     S
O648   Zn814   1.980   .     S
O659   Zn813   2.014   .     S
O670   Zn678   2.014   .     S
O672   Zn814   1.993   .     S
O673   Zn677   1.993   .     S
O674   Zn678   1.971   .     S
O675   Zn813   1.971   .     S
O676   Zn951   1.980   .     S
Zn677  O811    1.971   1_455 S
Zn677  O795    2.014   1_455 S
Zn678  O808    1.993   1_455 S
Zn678  O784    1.980   1_455 S
Zn679  O916    1.971   1_545 S
Zn679  O948    1.980   1_545 S
Zn680  O913    1.993   1_545 S
Zn680  O912    2.014   1_545 S
C681   O806    1.285   .     A
C681   C710    1.451   .     S
C681   O773    1.301   .     A
C682   N633    1.374   1_655 A
C682   C1227   1.427   .     S
C682   C581    1.481   1_655 S
C683   N634    1.372   1_655 A
C683   C718    1.483   .     S
C684   C719    1.486   .     S
C684   C1288   1.429   .     S
C684   N769    1.376   .     S
C685   N772    1.369   .     A
C685   C720    1.473   .     S
C686   N1043   1.373   .     A
C686   C721    1.480   .     S
C686   C1231   1.427   .     S
C687   C722    1.482   .     S
C687   N1044   1.372   .     S
C688   C723    1.487   .     S
C688   C1229   1.431   .     S
C688   N771    1.378   .     S
C689   C700    1.389   .     A
C689   C724    1.497   .     S
C689   C708    1.409   .     A
C690   C707    1.410   .     A
C690   C726    1.498   .     S
C690   C701    1.393   .     A
C691   C698    1.395   .     A
C691   C727    1.497   .     S
C691   C707    1.406   .     A
C692   C709    1.447   .     S
C692   O795    1.282   .     A
C692   O784    1.301   .     A
C693   C708    1.411   .     A
C693   C699    1.393   .     A
C693   C728    1.492   .     S
C694   C729    1.495   .     S
C694   C710    1.407   .     A
C694   C705    1.391   .     A
C695   C730    1.494   .     S
C695   C709    1.405   .     A
C695   C706    1.390   .     A
C696   C731    1.500   .     S
C696   C709    1.413   .     A
C696   C702    1.393   .     A
C697   C710    1.420   .     A
C697   C732    1.483   .     S
C697   C704    1.393   .     A
C698   C733    1.497   .     S
C698   C712    1.413   .     A
C699   C711    1.419   .     A
C699   C734    1.492   .     S
C700   C735    1.496   .     S
C700   C711    1.407   .     A
C701   C712    1.410   .     A
C701   C737    1.495   .     S
C702   C715    1.405   .     A
C702   C738    1.496   .     S
C703   O811    1.297   .     A
C703   C708    1.451   .     S
C703   O808    1.290   .     A
C704   C713    1.408   .     A
C704   C739    1.494   .     S
C705   C740    1.497   .     S
C705   C713    1.407   .     A
C706   C741    1.481   .     S
C706   C715    1.418   .     A
C707   C714    1.453   .     S
C711   C743    1.450   .     S
C712   C742    1.455   .     S
C713   C736    1.451   .     S
C714   O809    1.290   .     A
C714   O810    1.299   .     A
C715   C725    1.446   .     S
C716   O781    1.221   .     D
C716   C608    1.474   1_655 S
C716   H609    1.082   1_655 S
C717   O782    1.221   .     D
C718   O783    1.221   .     D
C718   H626    1.073   1_655 S
C719   O785    1.221   .     D
C720   H764    1.084   .     S
C720   O786    1.220   .     D
C721   O787    1.221   .     D
C721   H765    1.076   .     S
C722   H766    1.072   .     S
C722   O788    1.221   .     D
C723   H767    1.070   .     S
C723   O789    1.220   .     D
C724   H768    1.079   .     S
C724   O790    1.221   .     D
C725   O812    1.300   .     A
C725   O776    1.282   .     A
C726   H746    1.079   .     S
C726   O791    1.221   .     D
C727   H747    1.084   .     S
C727   O792    1.221   .     D
C728   H748    1.084   .     S
C728   O793    1.221   .     D
C729   O794    1.221   .     D
C729   H749    1.081   .     S
C730   H750    1.083   .     S
C730   O796    1.221   .     D
C731   H751    1.081   .     S
C731   O797    1.221   .     D
C732   H752    1.085   .     S
C732   O798    1.221   .     D
C733   H753    1.079   .     S
C733   O799    1.221   .     D
C734   O800    1.220   .     D
C734   H754    1.085   .     S
C735   O801    1.222   .     D
C735   H755    1.083   .     S
C736   O775    1.288   .     A
C736   O774    1.297   .     A
C737   O802    1.221   .     D
C737   H757    1.082   .     S
C738   O803    1.221   .     D
C738   H758    1.083   .     S
C739   H759    1.083   .     S
C739   O804    1.221   .     D
C740   O805    1.221   .     D
C740   H760    1.080   .     S
C741   O807    1.221   .     D
C741   H761    1.085   .     S
C742   O777    1.291   .     A
C742   O780    1.299   .     A
C743   O778    1.285   .     A
C743   O779    1.301   .     A
C744   N770    1.370   .     S
H756   C581    1.074   1_655 S
H763   C583    1.072   1_655 S
N769   Zn813   2.017   .     S
N770   Zn814   2.017   .     S
N771   C958    1.373   1_545 A
N771   Zn815   2.017   .     S
N772   Zn816   2.017   .     S
N772   C959    1.372   1_545 S
O773   Zn813   1.980   .     S
O774   Zn816   1.980   .     S
O775   Zn815   2.014   .     S
O776   Zn1088  2.014   .     S
O777   Zn1088  1.993   .     S
O778   Zn815   1.993   .     S
O779   Zn816   1.971   .     S
O780   Zn1087  1.971   .     S
O784   Zn678   1.980   1_655 S
O795   Zn677   2.014   1_655 S
O806   Zn814   2.014   .     S
O808   Zn678   1.993   1_655 S
O809   Zn813   1.993   .     S
O810   Zn814   1.971   .     S
O811   Zn677   1.971   1_655 S
O812   Zn1087  1.980   .     S
Zn815  O1052   1.971   1_545 S
Zn815  O1084   1.980   1_545 S
Zn816  O1049   1.993   1_545 S
Zn816  O1048   2.014   1_545 S
C817   O942    1.285   .     A
C817   C846    1.451   .     S
C817   O909    1.301   .     A
C818   N1041   1.374   .     A
C818   C1363   1.427   .     S
C818   C989    1.481   .     S
C819   N1042   1.372   .     A
C819   C854    1.483   .     S
C820   C855    1.486   .     S
C820   C1424   1.429   .     S
C820   N905    1.376   .     S
C821   N908    1.369   .     A
C821   C856    1.473   .     S
C822   N635    1.373   1_565 A
C822   C857    1.480   .     S
C822   C1367   1.427   .     S
C823   C858    1.482   .     S
C823   N636    1.372   1_565 S
C824   C859    1.487   .     S
C824   C1365   1.431   .     S
C824   N907    1.378   .     S
C825   C836    1.389   .     A
C825   C860    1.497   .     S
C825   C844    1.409   .     A
C826   C843    1.410   .     A
C826   C862    1.498   .     S
C826   C837    1.393   .     A
C827   C834    1.395   .     A
C827   C863    1.497   .     S
C827   C843    1.406   .     A
C828   C845    1.447   .     S
C828   O931    1.282   .     A
C828   O920    1.301   .     A
C829   C844    1.411   .     A
C829   C835    1.393   .     A
C829   C864    1.492   .     S
C830   C865    1.495   .     S
C830   C846    1.407   .     A
C830   C841    1.391   .     A
C831   C866    1.494   .     S
C831   C845    1.405   .     A
C831   C842    1.390   .     A
C832   C867    1.500   .     S
C832   C845    1.413   .     A
C832   C838    1.393   .     A
C833   C846    1.420   .     A
C833   C868    1.483   .     S
C833   C840    1.393   .     A
C834   C869    1.497   .     S
C834   C848    1.413   .     A
C835   C847    1.419   .     A
C835   C870    1.492   .     S
C836   C871    1.496   .     S
C836   C847    1.407   .     A
C837   C848    1.410   .     A
C837   C873    1.495   .     S
C838   C851    1.405   .     A
C838   C874    1.496   .     S
C839   O947    1.297   .     A
C839   C844    1.451   .     S
C839   O944    1.290   .     A
C840   C849    1.408   .     A
C840   C875    1.494   .     S
C841   C876    1.497   .     S
C841   C849    1.407   .     A
C842   C877    1.481   .     S
C842   C851    1.418   .     A
C843   C850    1.453   .     S
C847   C879    1.450   .     S
C848   C878    1.455   .     S
C849   C872    1.451   .     S
C850   O945    1.290   .     A
C850   O946    1.299   .     A
C851   C861    1.446   .     S
C852   O917    1.221   .     D
C852   C1016   1.474   .     S
C852   H1017   1.082   .     S
C853   O918    1.221   .     D
C853   C954    1.481   1_455 S
C853   H1028   1.074   1_455 S
C854   O919    1.221   .     D
C854   H1034   1.073   .     S
C855   O921    1.221   .     D
C855   H1035   1.072   1_455 S
C856   H900    1.084   .     S
C856   O922    1.220   .     D
C857   O923    1.221   .     D
C857   H901    1.076   .     S
C858   H902    1.072   .     S
C858   O924    1.221   .     D
C859   H903    1.070   .     S
C859   O925    1.220   .     D
C860   H904    1.079   .     S
C860   O926    1.221   .     D
C861   O948    1.300   .     A
C861   O912    1.282   .     A
C862   H882    1.079   .     S
C862   O927    1.221   .     D
C863   H883    1.084   .     S
C863   O928    1.221   .     D
C864   H884    1.084   .     S
C864   O929    1.221   .     D
C865   O930    1.221   .     D
C865   H885    1.081   .     S
C866   H886    1.083   .     S
C866   O932    1.221   .     D
C867   H887    1.081   .     S
C867   O933    1.221   .     D
C868   H888    1.085   .     S
C868   O934    1.221   .     D
C869   H889    1.079   .     S
C869   O935    1.221   .     D
C870   O936    1.220   .     D
C870   H890    1.085   .     S
C871   O937    1.222   .     D
C871   H891    1.083   .     S
C872   O911    1.288   .     A
C872   O910    1.297   .     A
C873   O938    1.221   .     D
C873   H893    1.082   .     S
C874   O939    1.221   .     D
C874   H894    1.083   .     S
C875   H895    1.083   .     S
C875   O940    1.221   .     D
C876   O941    1.221   .     D
C876   H896    1.080   .     S
C877   O943    1.221   .     D
C877   H897    1.085   .     S
C878   O913    1.291   .     A
C878   O916    1.299   .     A
C879   O914    1.285   .     A
C879   O915    1.301   .     A
C880   C988    1.474   1_455 S
C880   N906    1.370   .     S
H881   C988    1.082   1_455 S
H892   C989    1.074   .     S
H898   C990    1.073   1_455 S
H899   C991    1.072   .     S
N905   C954    1.374   1_455 A
N905   Zn949   2.017   .     S
N906   C955    1.372   1_455 A
N906   Zn950   2.017   .     S
N907   Zn951   2.017   .     S
N908   Zn952   2.017   .     S
O909   Zn949   1.980   .     S
O910   Zn952   1.980   .     S
O911   Zn951   2.014   .     S
O912   Zn680   2.014   1_565 S
O913   Zn680   1.993   1_565 S
O914   Zn951   1.993   .     S
O915   Zn952   1.971   .     S
O916   Zn679   1.971   1_565 S
O920   Zn1086  1.980   .     S
O931   Zn1085  2.014   .     S
O942   Zn950   2.014   .     S
O944   Zn1086  1.993   .     S
O945   Zn949   1.993   .     S
O946   Zn950   1.971   .     S
O947   Zn1085  1.971   .     S
O948   Zn679   1.980   1_565 S
Zn949  O1083   1.971   1_455 S
Zn949  O1067   2.014   1_455 S
Zn950  O1080   1.993   1_455 S
Zn950  O1056   1.980   1_455 S
C953   O1078   1.285   .     A
C953   C982    1.451   .     S
C953   O1045   1.301   .     A
C954   N905    1.374   1_655 A
C954   C1499   1.427   .     S
C954   C853    1.481   1_655 S
C955   N906    1.372   1_655 A
C955   C990    1.483   .     S
C956   C991    1.486   .     S
C956   C1560   1.429   .     S
C956   N1041   1.376   .     S
C957   N1044   1.369   .     A
C957   C992    1.473   .     S
C958   N771    1.373   1_565 A
C958   C993    1.480   .     S
C958   C1503   1.427   .     S
C959   C994    1.482   .     S
C959   N772    1.372   1_565 S
C960   C995    1.487   .     S
C960   C1501   1.431   .     S
C960   N1043   1.378   .     S
C961   C972    1.389   .     A
C961   C996    1.497   .     S
C961   C980    1.409   .     A
C962   C979    1.410   .     A
C962   C998    1.498   .     S
C962   C973    1.393   .     A
C963   C970    1.395   .     A
C963   C999    1.497   .     S
C963   C979    1.406   .     A
C964   C981    1.447   .     S
C964   O1067   1.282   .     A
C964   O1056   1.301   .     A
C965   C980    1.411   .     A
C965   C971    1.393   .     A
C965   C1000   1.492   .     S
C966   C1001   1.495   .     S
C966   C982    1.407   .     A
C966   C977    1.391   .     A
C967   C1002   1.494   .     S
C967   C981    1.405   .     A
C967   C978    1.390   .     A
C968   C1003   1.500   .     S
C968   C981    1.413   .     A
C968   C974    1.393   .     A
C969   C982    1.420   .     A
C969   C1004   1.483   .     S
C969   C976    1.393   .     A
C970   C1005   1.497   .     S
C970   C984    1.413   .     A
C971   C983    1.419   .     A
C971   C1006   1.492   .     S
C972   C1007   1.496   .     S
C972   C983    1.407   .     A
C973   C984    1.410   .     A
C973   C1009   1.495   .     S
C974   C987    1.405   .     A
C974   C1010   1.496   .     S
C975   O1083   1.297   .     A
C975   C980    1.451   .     S
C975   O1080   1.290   .     A
C976   C985    1.408   .     A
C976   C1011   1.494   .     S
C977   C1012   1.497   .     S
C977   C985    1.407   .     A
C978   C1013   1.481   .     S
C978   C987    1.418   .     A
C979   C986    1.453   .     S
C983   C1015   1.450   .     S
C984   C1014   1.455   .     S
C985   C1008   1.451   .     S
C986   O1081   1.290   .     A
C986   O1082   1.299   .     A
C987   C997    1.446   .     S
C988   O1053   1.221   .     D
C988   C880    1.474   1_655 S
C988   H881    1.082   1_655 S
C989   O1054   1.221   .     D
C990   O1055   1.221   .     D
C990   H898    1.073   1_655 S
C991   O1057   1.221   .     D
C992   H1036   1.084   .     S
C992   O1058   1.220   .     D
C993   O1059   1.221   .     D
C993   H1037   1.076   .     S
C994   H1038   1.072   .     S
C994   O1060   1.221   .     D
C995   H1039   1.070   .     S
C995   O1061   1.220   .     D
C996   H1040   1.079   .     S
C996   O1062   1.221   .     D
C997   O1084   1.300   .     A
C997   O1048   1.282   .     A
C998   H1018   1.079   .     S
C998   O1063   1.221   .     D
C999   H1019   1.084   .     S
C999   O1064   1.221   .     D
C1000  H1020   1.084   .     S
C1000  O1065   1.221   .     D
C1001  O1066   1.221   .     D
C1001  H1021   1.081   .     S
C1002  H1022   1.083   .     S
C1002  O1068   1.221   .     D
C1003  H1023   1.081   .     S
C1003  O1069   1.221   .     D
C1004  H1024   1.085   .     S
C1004  O1070   1.221   .     D
C1005  H1025   1.079   .     S
C1005  O1071   1.221   .     D
C1006  O1072   1.220   .     D
C1006  H1026   1.085   .     S
C1007  O1073   1.222   .     D
C1007  H1027   1.083   .     S
C1008  O1047   1.288   .     A
C1008  O1046   1.297   .     A
C1009  O1074   1.221   .     D
C1009  H1029   1.082   .     S
C1010  O1075   1.221   .     D
C1010  H1030   1.083   .     S
C1011  H1031   1.083   .     S
C1011  O1076   1.221   .     D
C1012  O1077   1.221   .     D
C1012  H1032   1.080   .     S
C1013  O1079   1.221   .     D
C1013  H1033   1.085   .     S
C1014  O1049   1.291   .     A
C1014  O1052   1.299   .     A
C1015  O1050   1.285   .     A
C1015  O1051   1.301   .     A
C1016  N1042   1.370   .     S
H1028  C853    1.074   1_655 S
H1035  C855    1.072   1_655 S
N1041  Zn1085  2.017   .     S
N1042  Zn1086  2.017   .     S
N1043  Zn1087  2.017   .     S
N1044  Zn1088  2.017   .     S
O1045  Zn1085  1.980   .     S
O1046  Zn1088  1.980   .     S
O1047  Zn1087  2.014   .     S
O1048  Zn816   2.014   1_565 S
O1049  Zn816   1.993   1_565 S
O1050  Zn1087  1.993   .     S
O1051  Zn1088  1.971   .     S
O1052  Zn815   1.971   1_565 S
O1056  Zn950   1.980   1_655 S
O1067  Zn949   2.014   1_655 S
O1078  Zn1086  2.014   .     S
O1080  Zn950   1.993   1_655 S
O1081  Zn1085  1.993   .     S
O1082  Zn1086  1.971   .     S
O1083  Zn949   1.971   1_655 S
O1084  Zn815   1.980   1_565 S
C1089  O1214   1.285   .     A
C1089  C1118   1.451   .     S
C1089  O1181   1.301   .     A
C1090  N1313   1.374   .     A
C1090  C3      1.427   1_556 S
C1090  C1261   1.481   .     S
C1091  N1314   1.372   .     A
C1091  C1126   1.483   .     S
C1092  C1127   1.486   .     S
C1092  C64     1.429   1_556 S
C1092  N1177   1.376   .     S
C1093  N1180   1.369   .     A
C1093  C1128   1.473   .     S
C1094  N1451   1.373   .     A
C1094  C1129   1.480   .     S
C1094  C7      1.427   1_556 S
C1095  C1130   1.482   .     S
C1095  N1452   1.372   .     S
C1096  C1131   1.487   .     S
C1096  C5      1.431   1_556 S
C1096  N1179   1.378   .     S
C1097  C1108   1.389   .     A
C1097  C1132   1.497   .     S
C1097  C1116   1.409   .     A
C1098  C1115   1.410   .     A
C1098  C1134   1.498   .     S
C1098  C1109   1.393   .     A
C1099  C1106   1.395   .     A
C1099  C1135   1.497   .     S
C1099  C1115   1.406   .     A
C1100  C1117   1.447   .     S
C1100  O1203   1.282   .     A
C1100  O1192   1.301   .     A
C1101  C1116   1.411   .     A
C1101  C1107   1.393   .     A
C1101  C1136   1.492   .     S
C1102  C1137   1.495   .     S
C1102  C1118   1.407   .     A
C1102  C1113   1.391   .     A
C1103  C1138   1.494   .     S
C1103  C1117   1.405   .     A
C1103  C1114   1.390   .     A
C1104  C1139   1.500   .     S
C1104  C1117   1.413   .     A
C1104  C1110   1.393   .     A
C1105  C1118   1.420   .     A
C1105  C1140   1.483   .     S
C1105  C1112   1.393   .     A
C1106  C1141   1.497   .     S
C1106  C1120   1.413   .     A
C1107  C1119   1.419   .     A
C1107  C1142   1.492   .     S
C1108  C1143   1.496   .     S
C1108  C1119   1.407   .     A
C1109  C1120   1.410   .     A
C1109  C1145   1.495   .     S
C1110  C1123   1.405   .     A
C1110  C1146   1.496   .     S
C1111  O1219   1.297   .     A
C1111  C1116   1.451   .     S
C1111  O1216   1.290   .     A
C1112  C1121   1.408   .     A
C1112  C1147   1.494   .     S
C1113  C1148   1.497   .     S
C1113  C1121   1.407   .     A
C1114  C1149   1.481   .     S
C1114  C1123   1.418   .     A
C1115  C1122   1.453   .     S
C1119  C1151   1.450   .     S
C1120  C1150   1.455   .     S
C1121  C1144   1.451   .     S
C1122  O1217   1.290   .     A
C1122  O1218   1.299   .     A
C1123  C1133   1.446   .     S
C1124  O1189   1.221   .     D
C1124  C1288   1.474   .     S
C1124  H1289   1.082   .     S
C1125  O1190   1.221   .     D
C1125  C1226   1.481   1_455 S
C1125  H1300   1.074   1_455 S
C1126  O1191   1.221   .     D
C1126  H1306   1.073   .     S
C1127  O1193   1.221   .     D
C1127  H1307   1.072   1_455 S
C1128  H1172   1.084   .     S
C1128  O1194   1.220   .     D
C1129  O1195   1.221   .     D
C1129  H1173   1.076   .     S
C1130  H1174   1.072   .     S
C1130  O1196   1.221   .     D
C1131  H1175   1.070   .     S
C1131  O1197   1.220   .     D
C1132  H1176   1.079   .     S
C1132  O1198   1.221   .     D
C1133  O1220   1.300   .     A
C1133  O1184   1.282   .     A
C1134  H1154   1.079   .     S
C1134  O1199   1.221   .     D
C1135  H1155   1.084   .     S
C1135  O1200   1.221   .     D
C1136  H1156   1.084   .     S
C1136  O1201   1.221   .     D
C1137  O1202   1.221   .     D
C1137  H1157   1.081   .     S
C1138  H1158   1.083   .     S
C1138  O1204   1.221   .     D
C1139  H1159   1.081   .     S
C1139  O1205   1.221   .     D
C1140  H1160   1.085   .     S
C1140  O1206   1.221   .     D
C1141  H1161   1.079   .     S
C1141  O1207   1.221   .     D
C1142  O1208   1.220   .     D
C1142  H1162   1.085   .     S
C1143  O1209   1.222   .     D
C1143  H1163   1.083   .     S
C1144  O1183   1.288   .     A
C1144  O1182   1.297   .     A
C1145  O1210   1.221   .     D
C1145  H1165   1.082   .     S
C1146  O1211   1.221   .     D
C1146  H1166   1.083   .     S
C1147  H1167   1.083   .     S
C1147  O1212   1.221   .     D
C1148  O1213   1.221   .     D
C1148  H1168   1.080   .     S
C1149  O1215   1.221   .     D
C1149  H1169   1.085   .     S
C1150  O1185   1.291   .     A
C1150  O1188   1.299   .     A
C1151  O1186   1.285   .     A
C1151  O1187   1.301   .     A
C1152  C1260   1.474   1_455 S
C1152  N1178   1.370   .     S
H1153  C1260   1.082   1_455 S
H1164  C1261   1.074   .     S
H1170  C1262   1.073   1_455 S
H1171  C1263   1.072   .     S
N1177  C1226   1.374   1_455 A
N1177  Zn1221  2.017   .     S
N1178  C1227   1.372   1_455 A
N1178  Zn1222  2.017   .     S
N1179  C1366   1.373   1_545 A
N1179  Zn1223  2.017   .     S
N1180  Zn1224  2.017   .     S
N1180  C1367   1.372   1_545 S
O1181  Zn1221  1.980   .     S
O1182  Zn1224  1.980   .     S
O1183  Zn1223  2.014   .     S
O1184  Zn1496  2.014   .     S
O1185  Zn1496  1.993   .     S
O1186  Zn1223  1.993   .     S
O1187  Zn1224  1.971   .     S
O1188  Zn1495  1.971   .     S
O1192  Zn1358  1.980   .     S
O1203  Zn1357  2.014   .     S
O1214  Zn1222  2.014   .     S
O1216  Zn1358  1.993   .     S
O1217  Zn1221  1.993   .     S
O1218  Zn1222  1.971   .     S
O1219  Zn1357  1.971   .     S
O1220  Zn1495  1.980   .     S
Zn1221 O1355   1.971   1_455 S
Zn1221 O1339   2.014   1_455 S
Zn1222 O1352   1.993   1_455 S
Zn1222 O1328   1.980   1_455 S
Zn1223 O1460   1.971   1_545 S
Zn1223 O1492   1.980   1_545 S
Zn1224 O1457   1.993   1_545 S
Zn1224 O1456   2.014   1_545 S
C1225  O1350   1.285   .     A
C1225  C1254   1.451   .     S
C1225  O1317   1.301   .     A
C1226  N1177   1.374   1_655 A
C1226  C139    1.427   1_556 S
C1226  C1125   1.481   1_655 S
C1227  N1178   1.372   1_655 A
C1227  C1262   1.483   .     S
C1228  C1263   1.486   .     S
C1228  C200    1.429   1_556 S
C1228  N1313   1.376   .     S
C1229  N1316   1.369   .     A
C1229  C1264   1.473   .     S
C1230  N1587   1.373   .     A
C1230  C1265   1.480   .     S
C1230  C143    1.427   1_556 S
C1231  C1266   1.482   .     S
C1231  N1588   1.372   .     S
C1232  C1267   1.487   .     S
C1232  C141    1.431   1_556 S
C1232  N1315   1.378   .     S
C1233  C1244   1.389   .     A
C1233  C1268   1.497   .     S
C1233  C1252   1.409   .     A
C1234  C1251   1.410   .     A
C1234  C1270   1.498   .     S
C1234  C1245   1.393   .     A
C1235  C1242   1.395   .     A
C1235  C1271   1.497   .     S
C1235  C1251   1.406   .     A
C1236  C1253   1.447   .     S
C1236  O1339   1.282   .     A
C1236  O1328   1.301   .     A
C1237  C1252   1.411   .     A
C1237  C1243   1.393   .     A
C1237  C1272   1.492   .     S
C1238  C1273   1.495   .     S
C1238  C1254   1.407   .     A
C1238  C1249   1.391   .     A
C1239  C1274   1.494   .     S
C1239  C1253   1.405   .     A
C1239  C1250   1.390   .     A
C1240  C1275   1.500   .     S
C1240  C1253   1.413   .     A
C1240  C1246   1.393   .     A
C1241  C1254   1.420   .     A
C1241  C1276   1.483   .     S
C1241  C1248   1.393   .     A
C1242  C1277   1.497   .     S
C1242  C1256   1.413   .     A
C1243  C1255   1.419   .     A
C1243  C1278   1.492   .     S
C1244  C1279   1.496   .     S
C1244  C1255   1.407   .     A
C1245  C1256   1.410   .     A
C1245  C1281   1.495   .     S
C1246  C1259   1.405   .     A
C1246  C1282   1.496   .     S
C1247  O1355   1.297   .     A
C1247  C1252   1.451   .     S
C1247  O1352   1.290   .     A
C1248  C1257   1.408   .     A
C1248  C1283   1.494   .     S
C1249  C1284   1.497   .     S
C1249  C1257   1.407   .     A
C1250  C1285   1.481   .     S
C1250  C1259   1.418   .     A
C1251  C1258   1.453   .     S
C1255  C1287   1.450   .     S
C1256  C1286   1.455   .     S
C1257  C1280   1.451   .     S
C1258  O1353   1.290   .     A
C1258  O1354   1.299   .     A
C1259  C1269   1.446   .     S
C1260  O1325   1.221   .     D
C1260  C1152   1.474   1_655 S
C1260  H1153   1.082   1_655 S
C1261  O1326   1.221   .     D
C1262  O1327   1.221   .     D
C1262  H1170   1.073   1_655 S
C1263  O1329   1.221   .     D
C1264  H1308   1.084   .     S
C1264  O1330   1.220   .     D
C1265  O1331   1.221   .     D
C1265  H1309   1.076   .     S
C1266  H1310   1.072   .     S
C1266  O1332   1.221   .     D
C1267  H1311   1.070   .     S
C1267  O1333   1.220   .     D
C1268  H1312   1.079   .     S
C1268  O1334   1.221   .     D
C1269  O1356   1.300   .     A
C1269  O1320   1.282   .     A
C1270  H1290   1.079   .     S
C1270  O1335   1.221   .     D
C1271  H1291   1.084   .     S
C1271  O1336   1.221   .     D
C1272  H1292   1.084   .     S
C1272  O1337   1.221   .     D
C1273  O1338   1.221   .     D
C1273  H1293   1.081   .     S
C1274  H1294   1.083   .     S
C1274  O1340   1.221   .     D
C1275  H1295   1.081   .     S
C1275  O1341   1.221   .     D
C1276  H1296   1.085   .     S
C1276  O1342   1.221   .     D
C1277  H1297   1.079   .     S
C1277  O1343   1.221   .     D
C1278  O1344   1.220   .     D
C1278  H1298   1.085   .     S
C1279  O1345   1.222   .     D
C1279  H1299   1.083   .     S
C1280  O1319   1.288   .     A
C1280  O1318   1.297   .     A
C1281  O1346   1.221   .     D
C1281  H1301   1.082   .     S
C1282  O1347   1.221   .     D
C1282  H1302   1.083   .     S
C1283  H1303   1.083   .     S
C1283  O1348   1.221   .     D
C1284  O1349   1.221   .     D
C1284  H1304   1.080   .     S
C1285  O1351   1.221   .     D
C1285  H1305   1.085   .     S
C1286  O1321   1.291   .     A
C1286  O1324   1.299   .     A
C1287  O1322   1.285   .     A
C1287  O1323   1.301   .     A
C1288  N1314   1.370   .     S
H1300  C1125   1.074   1_655 S
H1307  C1127   1.072   1_655 S
N1313  Zn1357  2.017   .     S
N1314  Zn1358  2.017   .     S
N1315  C1502   1.373   1_545 A
N1315  Zn1359  2.017   .     S
N1316  Zn1360  2.017   .     S
N1316  C1503   1.372   1_545 S
O1317  Zn1357  1.980   .     S
O1318  Zn1360  1.980   .     S
O1319  Zn1359  2.014   .     S
O1320  Zn1632  2.014   .     S
O1321  Zn1632  1.993   .     S
O1322  Zn1359  1.993   .     S
O1323  Zn1360  1.971   .     S
O1324  Zn1631  1.971   .     S
O1328  Zn1222  1.980   1_655 S
O1339  Zn1221  2.014   1_655 S
O1350  Zn1358  2.014   .     S
O1352  Zn1222  1.993   1_655 S
O1353  Zn1357  1.993   .     S
O1354  Zn1358  1.971   .     S
O1355  Zn1221  1.971   1_655 S
O1356  Zn1631  1.980   .     S
Zn1359 O1596   1.971   1_545 S
Zn1359 O1628   1.980   1_545 S
Zn1360 O1593   1.993   1_545 S
Zn1360 O1592   2.014   1_545 S
C1361  O1486   1.285   .     A
C1361  C1390   1.451   .     S
C1361  O1453   1.301   .     A
C1362  N1585   1.374   .     A
C1362  C275    1.427   1_556 S
C1362  C1533   1.481   .     S
C1363  N1586   1.372   .     A
C1363  C1398   1.483   .     S
C1364  C1399   1.486   .     S
C1364  C336    1.429   1_556 S
C1364  N1449   1.376   .     S
C1365  N1452   1.369   .     A
C1365  C1400   1.473   .     S
C1366  N1179   1.373   1_565 A
C1366  C1401   1.480   .     S
C1366  C279    1.427   1_556 S
C1367  C1402   1.482   .     S
C1367  N1180   1.372   1_565 S
C1368  C1403   1.487   .     S
C1368  C277    1.431   1_556 S
C1368  N1451   1.378   .     S
C1369  C1380   1.389   .     A
C1369  C1404   1.497   .     S
C1369  C1388   1.409   .     A
C1370  C1387   1.410   .     A
C1370  C1406   1.498   .     S
C1370  C1381   1.393   .     A
C1371  C1378   1.395   .     A
C1371  C1407   1.497   .     S
C1371  C1387   1.406   .     A
C1372  C1389   1.447   .     S
C1372  O1475   1.282   .     A
C1372  O1464   1.301   .     A
C1373  C1388   1.411   .     A
C1373  C1379   1.393   .     A
C1373  C1408   1.492   .     S
C1374  C1409   1.495   .     S
C1374  C1390   1.407   .     A
C1374  C1385   1.391   .     A
C1375  C1410   1.494   .     S
C1375  C1389   1.405   .     A
C1375  C1386   1.390   .     A
C1376  C1411   1.500   .     S
C1376  C1389   1.413   .     A
C1376  C1382   1.393   .     A
C1377  C1390   1.420   .     A
C1377  C1412   1.483   .     S
C1377  C1384   1.393   .     A
C1378  C1413   1.497   .     S
C1378  C1392   1.413   .     A
C1379  C1391   1.419   .     A
C1379  C1414   1.492   .     S
C1380  C1415   1.496   .     S
C1380  C1391   1.407   .     A
C1381  C1392   1.410   .     A
C1381  C1417   1.495   .     S
C1382  C1395   1.405   .     A
C1382  C1418   1.496   .     S
C1383  O1491   1.297   .     A
C1383  C1388   1.451   .     S
C1383  O1488   1.290   .     A
C1384  C1393   1.408   .     A
C1384  C1419   1.494   .     S
C1385  C1420   1.497   .     S
C1385  C1393   1.407   .     A
C1386  C1421   1.481   .     S
C1386  C1395   1.418   .     A
C1387  C1394   1.453   .     S
C1391  C1423   1.450   .     S
C1392  C1422   1.455   .     S
C1393  C1416   1.451   .     S
C1394  O1489   1.290   .     A
C1394  O1490   1.299   .     A
C1395  C1405   1.446   .     S
C1396  O1461   1.221   .     D
C1396  C1560   1.474   .     S
C1396  H1561   1.082   .     S
C1397  O1462   1.221   .     D
C1397  C1498   1.481   1_455 S
C1397  H1572   1.074   1_455 S
C1398  O1463   1.221   .     D
C1398  H1578   1.073   .     S
C1399  O1465   1.221   .     D
C1399  H1579   1.072   1_455 S
C1400  H1444   1.084   .     S
C1400  O1466   1.220   .     D
C1401  O1467   1.221   .     D
C1401  H1445   1.076   .     S
C1402  H1446   1.072   .     S
C1402  O1468   1.221   .     D
C1403  H1447   1.070   .     S
C1403  O1469   1.220   .     D
C1404  H1448   1.079   .     S
C1404  O1470   1.221   .     D
C1405  O1492   1.300   .     A
C1405  O1456   1.282   .     A
C1406  H1426   1.079   .     S
C1406  O1471   1.221   .     D
C1407  H1427   1.084   .     S
C1407  O1472   1.221   .     D
C1408  H1428   1.084   .     S
C1408  O1473   1.221   .     D
C1409  O1474   1.221   .     D
C1409  H1429   1.081   .     S
C1410  H1430   1.083   .     S
C1410  O1476   1.221   .     D
C1411  H1431   1.081   .     S
C1411  O1477   1.221   .     D
C1412  H1432   1.085   .     S
C1412  O1478   1.221   .     D
C1413  H1433   1.079   .     S
C1413  O1479   1.221   .     D
C1414  O1480   1.220   .     D
C1414  H1434   1.085   .     S
C1415  O1481   1.222   .     D
C1415  H1435   1.083   .     S
C1416  O1455   1.288   .     A
C1416  O1454   1.297   .     A
C1417  O1482   1.221   .     D
C1417  H1437   1.082   .     S
C1418  O1483   1.221   .     D
C1418  H1438   1.083   .     S
C1419  H1439   1.083   .     S
C1419  O1484   1.221   .     D
C1420  O1485   1.221   .     D
C1420  H1440   1.080   .     S
C1421  O1487   1.221   .     D
C1421  H1441   1.085   .     S
C1422  O1457   1.291   .     A
C1422  O1460   1.299   .     A
C1423  O1458   1.285   .     A
C1423  O1459   1.301   .     A
C1424  C1532   1.474   1_455 S
C1424  N1450   1.370   .     S
H1425  C1532   1.082   1_455 S
H1436  C1533   1.074   .     S
H1442  C1534   1.073   1_455 S
H1443  C1535   1.072   .     S
N1449  C1498   1.374   1_455 A
N1449  Zn1493  2.017   .     S
N1450  C1499   1.372   1_455 A
N1450  Zn1494  2.017   .     S
N1451  Zn1495  2.017   .     S
N1452  Zn1496  2.017   .     S
O1453  Zn1493  1.980   .     S
O1454  Zn1496  1.980   .     S
O1455  Zn1495  2.014   .     S
O1456  Zn1224  2.014   1_565 S
O1457  Zn1224  1.993   1_565 S
O1458  Zn1495  1.993   .     S
O1459  Zn1496  1.971   .     S
O1460  Zn1223  1.971   1_565 S
O1464  Zn1630  1.980   .     S
O1475  Zn1629  2.014   .     S
O1486  Zn1494  2.014   .     S
O1488  Zn1630  1.993   .     S
O1489  Zn1493  1.993   .     S
O1490  Zn1494  1.971   .     S
O1491  Zn1629  1.971   .     S
O1492  Zn1223  1.980   1_565 S
Zn1493 O1627   1.971   1_455 S
Zn1493 O1611   2.014   1_455 S
Zn1494 O1624   1.993   1_455 S
Zn1494 O1600   1.980   1_455 S
C1497  O1622   1.285   .     A
C1497  C1526   1.451   .     S
C1497  O1589   1.301   .     A
C1498  N1449   1.374   1_655 A
C1498  C411    1.427   1_556 S
C1498  C1397   1.481   1_655 S
C1499  N1450   1.372   1_655 A
C1499  C1534   1.483   .     S
C1500  C1535   1.486   .     S
C1500  C472    1.429   1_556 S
C1500  N1585   1.376   .     S
C1501  N1588   1.369   .     A
C1501  C1536   1.473   .     S
C1502  N1315   1.373   1_565 A
C1502  C1537   1.480   .     S
C1502  C415    1.427   1_556 S
C1503  C1538   1.482   .     S
C1503  N1316   1.372   1_565 S
C1504  C1539   1.487   .     S
C1504  C413    1.431   1_556 S
C1504  N1587   1.378   .     S
C1505  C1516   1.389   .     A
C1505  C1540   1.497   .     S
C1505  C1524   1.409   .     A
C1506  C1523   1.410   .     A
C1506  C1542   1.498   .     S
C1506  C1517   1.393   .     A
C1507  C1514   1.395   .     A
C1507  C1543   1.497   .     S
C1507  C1523   1.406   .     A
C1508  C1525   1.447   .     S
C1508  O1611   1.282   .     A
C1508  O1600   1.301   .     A
C1509  C1524   1.411   .     A
C1509  C1515   1.393   .     A
C1509  C1544   1.492   .     S
C1510  C1545   1.495   .     S
C1510  C1526   1.407   .     A
C1510  C1521   1.391   .     A
C1511  C1546   1.494   .     S
C1511  C1525   1.405   .     A
C1511  C1522   1.390   .     A
C1512  C1547   1.500   .     S
C1512  C1525   1.413   .     A
C1512  C1518   1.393   .     A
C1513  C1526   1.420   .     A
C1513  C1548   1.483   .     S
C1513  C1520   1.393   .     A
C1514  C1549   1.497   .     S
C1514  C1528   1.413   .     A
C1515  C1527   1.419   .     A
C1515  C1550   1.492   .     S
C1516  C1551   1.496   .     S
C1516  C1527   1.407   .     A
C1517  C1528   1.410   .     A
C1517  C1553   1.495   .     S
C1518  C1531   1.405   .     A
C1518  C1554   1.496   .     S
C1519  O1627   1.297   .     A
C1519  C1524   1.451   .     S
C1519  O1624   1.290   .     A
C1520  C1529   1.408   .     A
C1520  C1555   1.494   .     S
C1521  C1556   1.497   .     S
C1521  C1529   1.407   .     A
C1522  C1557   1.481   .     S
C1522  C1531   1.418   .     A
C1523  C1530   1.453   .     S
C1527  C1559   1.450   .     S
C1528  C1558   1.455   .     S
C1529  C1552   1.451   .     S
C1530  O1625   1.290   .     A
C1530  O1626   1.299   .     A
C1531  C1541   1.446   .     S
C1532  O1597   1.221   .     D
C1532  C1424   1.474   1_655 S
C1532  H1425   1.082   1_655 S
C1533  O1598   1.221   .     D
C1534  O1599   1.221   .     D
C1534  H1442   1.073   1_655 S
C1535  O1601   1.221   .     D
C1536  H1580   1.084   .     S
C1536  O1602   1.220   .     D
C1537  O1603   1.221   .     D
C1537  H1581   1.076   .     S
C1538  H1582   1.072   .     S
C1538  O1604   1.221   .     D
C1539  H1583   1.070   .     S
C1539  O1605   1.220   .     D
C1540  H1584   1.079   .     S
C1540  O1606   1.221   .     D
C1541  O1628   1.300   .     A
C1541  O1592   1.282   .     A
C1542  H1562   1.079   .     S
C1542  O1607   1.221   .     D
C1543  H1563   1.084   .     S
C1543  O1608   1.221   .     D
C1544  H1564   1.084   .     S
C1544  O1609   1.221   .     D
C1545  O1610   1.221   .     D
C1545  H1565   1.081   .     S
C1546  H1566   1.083   .     S
C1546  O1612   1.221   .     D
C1547  H1567   1.081   .     S
C1547  O1613   1.221   .     D
C1548  H1568   1.085   .     S
C1548  O1614   1.221   .     D
C1549  H1569   1.079   .     S
C1549  O1615   1.221   .     D
C1550  O1616   1.220   .     D
C1550  H1570   1.085   .     S
C1551  O1617   1.222   .     D
C1551  H1571   1.083   .     S
C1552  O1591   1.288   .     A
C1552  O1590   1.297   .     A
C1553  O1618   1.221   .     D
C1553  H1573   1.082   .     S
C1554  O1619   1.221   .     D
C1554  H1574   1.083   .     S
C1555  H1575   1.083   .     S
C1555  O1620   1.221   .     D
C1556  O1621   1.221   .     D
C1556  H1576   1.080   .     S
C1557  O1623   1.221   .     D
C1557  H1577   1.085   .     S
C1558  O1593   1.291   .     A
C1558  O1596   1.299   .     A
C1559  O1594   1.285   .     A
C1559  O1595   1.301   .     A
C1560  N1586   1.370   .     S
H1572  C1397   1.074   1_655 S
H1579  C1399   1.072   1_655 S
N1585  Zn1629  2.017   .     S
N1586  Zn1630  2.017   .     S
N1587  Zn1631  2.017   .     S
N1588  Zn1632  2.017   .     S
O1589  Zn1629  1.980   .     S
O1590  Zn1632  1.980   .     S
O1591  Zn1631  2.014   .     S
O1592  Zn1360  2.014   1_565 S
O1593  Zn1360  1.993   1_565 S
O1594  Zn1631  1.993   .     S
O1595  Zn1632  1.971   .     S
O1596  Zn1359  1.971   1_565 S
O1600  Zn1494  1.980   1_655 S
O1611  Zn1493  2.014   1_655 S
O1622  Zn1630  2.014   .     S
O1624  Zn1494  1.993   1_655 S
O1625  Zn1629  1.993   .     S
O1626  Zn1630  1.971   .     S
O1627  Zn1493  1.971   1_655 S
O1628  Zn1359  1.980   1_565 S
