data_str_m3_o10_o17_pcu_sym.222
_audit_creation_date              2020-01-03
_audit_creation_method            'Materials Studio'
_symmetry_space_group_name_H-M    'P1'
_symmetry_Int_Tables_number       1
_symmetry_cell_setting            triclinic
loop_
_symmetry_equiv_pos_as_xyz
  x,y,z
_cell_length_a                    23.3214
_cell_length_b                    25.6513
_cell_length_c                    29.7906
_cell_angle_alpha                 91.1511
_cell_angle_beta                  85.9294
_cell_angle_gamma                 93.6696
loop_
_atom_site_label
_atom_site_type_symbol
_atom_site_fract_x
_atom_site_fract_y
_atom_site_fract_z
_atom_site_U_iso_or_equiv
_atom_site_adp_type
_atom_site_occupancy
C1     C     0.18192   0.26489   0.24874   0.00000  Uiso   1.00
C2     C     0.15142   0.06844   0.25126   0.00000  Uiso   1.00
C3     C     0.20958   0.25853   0.47981   0.00000  Uiso   1.00
C4     C     0.12375   0.07481   0.02019   0.00000  Uiso   1.00
C5     C     0.18995   0.31941   0.24811   0.00000  Uiso   1.00
C6     C     0.14338   0.01392   0.25189   0.00000  Uiso   1.00
C7     C     0.16758   0.16747   0.33628   0.00000  Uiso   1.00
C8     C     0.16576   0.16586   0.16372   0.00000  Uiso   1.00
C9     C     0.15069   0.11642   0.09327   0.00000  Uiso   1.00
C10    C     0.18264   0.21691   0.40673   0.00000  Uiso   1.00
C11    C     0.16376   0.16374   0.11619   0.00000  Uiso   1.00
C12    C     0.16957   0.16959   0.38381   0.00000  Uiso   1.00
C13    C     0.17807   0.21009   0.09421   0.00000  Uiso   1.00
C14    C     0.15526   0.12324   0.40579   0.00000  Uiso   1.00
C15    C     0.18162   0.21079   0.04801   0.00000  Uiso   1.00
C16    C     0.15171   0.12255   0.45199   0.00000  Uiso   1.00
C17    C     0.16521   0.16545   0.02352   0.00000  Uiso   1.00
C18    C     0.16812   0.16788   0.47648   0.00000  Uiso   1.00
C19    C     0.14595   0.11799   0.04609   0.00000  Uiso   1.00
C20    C     0.18738   0.21534   0.45391   0.00000  Uiso   1.00
C21    C     0.20366   0.25613   0.02651   0.00000  Uiso   1.00
C22    C     0.12968   0.07721   0.47349   0.00000  Uiso   1.00
H23    H     0.18933   0.24531   0.11340   0.00000  Uiso   1.00
H24    H     0.14400   0.08802   0.38660   0.00000  Uiso   1.00
H25    H     0.21861   0.28946   0.04652   0.00000  Uiso   1.00
H26    H     0.11473   0.04388   0.45348   0.00000  Uiso   1.00
H27    H     0.23394   0.00310   0.24458   0.00000  Uiso   1.00
H28    H     0.09939   0.33023   0.25542   0.00000  Uiso   1.00
H29    H     0.00454   0.12749   0.21601   0.00000  Uiso   1.00
H30    H     0.32879   0.20584   0.28399   0.00000  Uiso   1.00
N31    N     0.31678   0.15265   0.23783   0.00000  Uiso   1.00
N32    N     0.01656   0.18068   0.26217   0.00000  Uiso   1.00
O33    O     0.12975   0.24619   0.25299   0.00000  Uiso   1.00
O34    O     0.20358   0.08714   0.24702   0.00000  Uiso   1.00
O35    O     0.22613   0.23721   0.24519   0.00000  Uiso   1.00
O36    O     0.10720   0.09613   0.25482   0.00000  Uiso   1.00
O37    O     0.11847   0.17117   0.31998   0.00000  Uiso   1.00
O38    O     0.21486   0.16216   0.18003   0.00000  Uiso   1.00
O39    O     0.21485   0.16219   0.31218   0.00000  Uiso   1.00
O40    O     0.11848   0.17115   0.18783   0.00000  Uiso   1.00
Zn41   Zn    0.10231   0.17266   0.25521   0.00000  Uiso   1.00
Zn42   Zn    0.23102   0.16067   0.24479   0.00000  Uiso   1.00
C43    C     0.15018   0.06537   0.11841   0.00000  Uiso   1.00
H44    H     0.17137   0.06959   0.15050   0.00000  Uiso   1.00
H45    H     0.10553   0.04954   0.12695   0.00000  Uiso   1.00
H46    H     0.17581   0.03699   0.09841   0.00000  Uiso   1.00
C47    C     0.18315   0.26797   0.38159   0.00000  Uiso   1.00
H48    H     0.16196   0.26374   0.34950   0.00000  Uiso   1.00
H49    H     0.15752   0.29634   0.40159   0.00000  Uiso   1.00
H50    H     0.22781   0.28380   0.37305   0.00000  Uiso   1.00
C51    C     0.24620   0.30458   0.46032   0.00000  Uiso   1.00
H52    H     0.27121   0.32552   0.48631   0.00000  Uiso   1.00
H53    H     0.27867   0.29093   0.43445   0.00000  Uiso   1.00
H54    H     0.21936   0.00047   0.44676   0.00000  Uiso   1.00
C55    C     0.08713   0.02875   0.03968   0.00000  Uiso   1.00
H56    H     0.06212   0.00781   0.01369   0.00000  Uiso   1.00
H57    H     0.11397   0.33286   0.05324   0.00000  Uiso   1.00
H58    H     0.05466   0.04241   0.06555   0.00000  Uiso   1.00
C59    C     0.51525   0.26489   0.24874   0.00000  Uiso   1.00
C60    C     0.48475   0.06844   0.25126   0.00000  Uiso   1.00
C61    C     0.54291   0.25853   0.47981   0.00000  Uiso   1.00
C62    C     0.45709   0.07481   0.02019   0.00000  Uiso   1.00
C63    C     0.52329   0.31941   0.24811   0.00000  Uiso   1.00
C64    C     0.47671   0.01392   0.25189   0.00000  Uiso   1.00
C65    C     0.50091   0.16747   0.33628   0.00000  Uiso   1.00
C66    C     0.49909   0.16586   0.16372   0.00000  Uiso   1.00
C67    C     0.48402   0.11642   0.09327   0.00000  Uiso   1.00
C68    C     0.51598   0.21691   0.40673   0.00000  Uiso   1.00
C69    C     0.49710   0.16374   0.11619   0.00000  Uiso   1.00
C70    C     0.50290   0.16959   0.38381   0.00000  Uiso   1.00
C71    C     0.51140   0.21009   0.09421   0.00000  Uiso   1.00
C72    C     0.48860   0.12324   0.40579   0.00000  Uiso   1.00
C73    C     0.51495   0.21079   0.04801   0.00000  Uiso   1.00
C74    C     0.48505   0.12255   0.45199   0.00000  Uiso   1.00
C75    C     0.49855   0.16545   0.02352   0.00000  Uiso   1.00
C76    C     0.50145   0.16788   0.47648   0.00000  Uiso   1.00
C77    C     0.47928   0.11799   0.04609   0.00000  Uiso   1.00
C78    C     0.52072   0.21534   0.45391   0.00000  Uiso   1.00
C79    C     0.53699   0.25613   0.02651   0.00000  Uiso   1.00
C80    C     0.46301   0.07721   0.47349   0.00000  Uiso   1.00
H81    H     0.52267   0.24531   0.11340   0.00000  Uiso   1.00
H82    H     0.47733   0.08802   0.38660   0.00000  Uiso   1.00
H83    H     0.55194   0.28946   0.04652   0.00000  Uiso   1.00
H84    H     0.44806   0.04388   0.45348   0.00000  Uiso   1.00
H85    H     0.56728   0.00310   0.24458   0.00000  Uiso   1.00
H86    H     0.43272   0.33023   0.25542   0.00000  Uiso   1.00
H87    H     0.33787   0.12749   0.21601   0.00000  Uiso   1.00
H88    H     0.66213   0.20584   0.28399   0.00000  Uiso   1.00
N89    N     0.65011   0.15265   0.23783   0.00000  Uiso   1.00
N90    N     0.34989   0.18068   0.26217   0.00000  Uiso   1.00
O91    O     0.46308   0.24619   0.25299   0.00000  Uiso   1.00
O92    O     0.53692   0.08714   0.24702   0.00000  Uiso   1.00
O93    O     0.55946   0.23721   0.24519   0.00000  Uiso   1.00
O94    O     0.44054   0.09613   0.25482   0.00000  Uiso   1.00
O95    O     0.45181   0.17117   0.31998   0.00000  Uiso   1.00
O96    O     0.54819   0.16216   0.18003   0.00000  Uiso   1.00
O97    O     0.54819   0.16219   0.31218   0.00000  Uiso   1.00
O98    O     0.45181   0.17115   0.18783   0.00000  Uiso   1.00
Zn99   Zn    0.43565   0.17266   0.25521   0.00000  Uiso   1.00
Zn100  Zn    0.56435   0.16067   0.24479   0.00000  Uiso   1.00
C101   C     0.48352   0.06537   0.11841   0.00000  Uiso   1.00
H102   H     0.50471   0.06959   0.15050   0.00000  Uiso   1.00
H103   H     0.43886   0.04954   0.12695   0.00000  Uiso   1.00
H104   H     0.50914   0.03699   0.09841   0.00000  Uiso   1.00
C105   C     0.51648   0.26797   0.38159   0.00000  Uiso   1.00
H106   H     0.49529   0.26374   0.34950   0.00000  Uiso   1.00
H107   H     0.49086   0.29634   0.40159   0.00000  Uiso   1.00
H108   H     0.56114   0.28380   0.37305   0.00000  Uiso   1.00
C109   C     0.57953   0.30458   0.46032   0.00000  Uiso   1.00
H110   H     0.60454   0.32552   0.48631   0.00000  Uiso   1.00
H111   H     0.61200   0.29093   0.43445   0.00000  Uiso   1.00
H112   H     0.55269   0.00047   0.44676   0.00000  Uiso   1.00
C113   C     0.42047   0.02875   0.03968   0.00000  Uiso   1.00
H114   H     0.39546   0.00781   0.01369   0.00000  Uiso   1.00
H115   H     0.44730   0.33286   0.05324   0.00000  Uiso   1.00
H116   H     0.38800   0.04241   0.06555   0.00000  Uiso   1.00
C117   C     0.84858   0.26489   0.24874   0.00000  Uiso   1.00
C118   C     0.81808   0.06844   0.25126   0.00000  Uiso   1.00
C119   C     0.87625   0.25853   0.47981   0.00000  Uiso   1.00
C120   C     0.79042   0.07481   0.02019   0.00000  Uiso   1.00
C121   C     0.85662   0.31941   0.24811   0.00000  Uiso   1.00
C122   C     0.81004   0.01392   0.25189   0.00000  Uiso   1.00
C123   C     0.83424   0.16747   0.33628   0.00000  Uiso   1.00
C124   C     0.83242   0.16586   0.16372   0.00000  Uiso   1.00
C125   C     0.81735   0.11642   0.09327   0.00000  Uiso   1.00
C126   C     0.84931   0.21691   0.40673   0.00000  Uiso   1.00
C127   C     0.83043   0.16374   0.11619   0.00000  Uiso   1.00
C128   C     0.83623   0.16959   0.38381   0.00000  Uiso   1.00
C129   C     0.84474   0.21009   0.09421   0.00000  Uiso   1.00
C130   C     0.82193   0.12324   0.40579   0.00000  Uiso   1.00
C131   C     0.84829   0.21079   0.04801   0.00000  Uiso   1.00
C132   C     0.81838   0.12255   0.45199   0.00000  Uiso   1.00
C133   C     0.83188   0.16545   0.02352   0.00000  Uiso   1.00
C134   C     0.83479   0.16788   0.47648   0.00000  Uiso   1.00
C135   C     0.81262   0.11799   0.04609   0.00000  Uiso   1.00
C136   C     0.85405   0.21534   0.45391   0.00000  Uiso   1.00
C137   C     0.87032   0.25613   0.02651   0.00000  Uiso   1.00
C138   C     0.79634   0.07721   0.47349   0.00000  Uiso   1.00
H139   H     0.85600   0.24531   0.11340   0.00000  Uiso   1.00
H140   H     0.81067   0.08802   0.38660   0.00000  Uiso   1.00
H141   H     0.88527   0.28946   0.04652   0.00000  Uiso   1.00
H142   H     0.78139   0.04388   0.45348   0.00000  Uiso   1.00
H143   H     0.90061   0.00310   0.24458   0.00000  Uiso   1.00
H144   H     0.76606   0.33023   0.25542   0.00000  Uiso   1.00
H145   H     0.67121   0.12749   0.21601   0.00000  Uiso   1.00
H146   H     0.99546   0.20584   0.28399   0.00000  Uiso   1.00
N147   N     0.98344   0.15265   0.23783   0.00000  Uiso   1.00
N148   N     0.68322   0.18068   0.26217   0.00000  Uiso   1.00
O149   O     0.79642   0.24619   0.25299   0.00000  Uiso   1.00
O150   O     0.87025   0.08714   0.24702   0.00000  Uiso   1.00
O151   O     0.89280   0.23721   0.24519   0.00000  Uiso   1.00
O152   O     0.77387   0.09613   0.25482   0.00000  Uiso   1.00
O153   O     0.78514   0.17117   0.31998   0.00000  Uiso   1.00
O154   O     0.88153   0.16216   0.18003   0.00000  Uiso   1.00
O155   O     0.88152   0.16219   0.31218   0.00000  Uiso   1.00
O156   O     0.78515   0.17115   0.18783   0.00000  Uiso   1.00
Zn157  Zn    0.76898   0.17266   0.25521   0.00000  Uiso   1.00
Zn158  Zn    0.89769   0.16067   0.24479   0.00000  Uiso   1.00
C159   C     0.81685   0.06537   0.11841   0.00000  Uiso   1.00
H160   H     0.83804   0.06959   0.15050   0.00000  Uiso   1.00
H161   H     0.77219   0.04954   0.12695   0.00000  Uiso   1.00
H162   H     0.84248   0.03699   0.09841   0.00000  Uiso   1.00
C163   C     0.84982   0.26797   0.38159   0.00000  Uiso   1.00
H164   H     0.82863   0.26374   0.34950   0.00000  Uiso   1.00
H165   H     0.82419   0.29634   0.40159   0.00000  Uiso   1.00
H166   H     0.89447   0.28380   0.37305   0.00000  Uiso   1.00
C167   C     0.91287   0.30458   0.46032   0.00000  Uiso   1.00
H168   H     0.93788   0.32552   0.48631   0.00000  Uiso   1.00
H169   H     0.94534   0.29093   0.43445   0.00000  Uiso   1.00
H170   H     0.88603   0.00047   0.44676   0.00000  Uiso   1.00
C171   C     0.75380   0.02875   0.03968   0.00000  Uiso   1.00
H172   H     0.72879   0.00781   0.01369   0.00000  Uiso   1.00
H173   H     0.78064   0.33286   0.05324   0.00000  Uiso   1.00
H174   H     0.72133   0.04241   0.06555   0.00000  Uiso   1.00
C175   C     0.18192   0.59823   0.24874   0.00000  Uiso   1.00
C176   C     0.15142   0.40177   0.25126   0.00000  Uiso   1.00
C177   C     0.20958   0.59186   0.47981   0.00000  Uiso   1.00
C178   C     0.12375   0.40814   0.02019   0.00000  Uiso   1.00
C179   C     0.18995   0.65274   0.24811   0.00000  Uiso   1.00
C180   C     0.14338   0.34726   0.25189   0.00000  Uiso   1.00
C181   C     0.16758   0.50080   0.33628   0.00000  Uiso   1.00
C182   C     0.16576   0.49920   0.16372   0.00000  Uiso   1.00
C183   C     0.15069   0.44976   0.09327   0.00000  Uiso   1.00
C184   C     0.18264   0.55024   0.40673   0.00000  Uiso   1.00
C185   C     0.16376   0.49707   0.11619   0.00000  Uiso   1.00
C186   C     0.16957   0.50293   0.38381   0.00000  Uiso   1.00
C187   C     0.17807   0.54343   0.09421   0.00000  Uiso   1.00
C188   C     0.15526   0.45657   0.40579   0.00000  Uiso   1.00
C189   C     0.18162   0.54412   0.04801   0.00000  Uiso   1.00
C190   C     0.15171   0.45588   0.45199   0.00000  Uiso   1.00
C191   C     0.16521   0.49878   0.02352   0.00000  Uiso   1.00
C192   C     0.16812   0.50122   0.47648   0.00000  Uiso   1.00
C193   C     0.14595   0.45132   0.04609   0.00000  Uiso   1.00
C194   C     0.18738   0.54868   0.45391   0.00000  Uiso   1.00
C195   C     0.20366   0.58946   0.02651   0.00000  Uiso   1.00
C196   C     0.12968   0.41054   0.47349   0.00000  Uiso   1.00
H197   H     0.18933   0.57864   0.11340   0.00000  Uiso   1.00
H198   H     0.14400   0.42136   0.38660   0.00000  Uiso   1.00
H199   H     0.21861   0.62279   0.04652   0.00000  Uiso   1.00
H200   H     0.11473   0.37721   0.45348   0.00000  Uiso   1.00
H201   H     0.23394   0.33644   0.24458   0.00000  Uiso   1.00
H202   H     0.09939   0.66356   0.25542   0.00000  Uiso   1.00
H203   H     0.00454   0.46083   0.21601   0.00000  Uiso   1.00
H204   H     0.32879   0.53917   0.28399   0.00000  Uiso   1.00
N205   N     0.31678   0.48598   0.23783   0.00000  Uiso   1.00
N206   N     0.01656   0.51402   0.26217   0.00000  Uiso   1.00
O207   O     0.12975   0.57952   0.25299   0.00000  Uiso   1.00
O208   O     0.20358   0.42048   0.24702   0.00000  Uiso   1.00
O209   O     0.22613   0.57054   0.24519   0.00000  Uiso   1.00
O210   O     0.10720   0.42946   0.25482   0.00000  Uiso   1.00
O211   O     0.11847   0.50450   0.31998   0.00000  Uiso   1.00
O212   O     0.21486   0.49550   0.18003   0.00000  Uiso   1.00
O213   O     0.21485   0.49552   0.31218   0.00000  Uiso   1.00
O214   O     0.11848   0.50448   0.18783   0.00000  Uiso   1.00
Zn215  Zn    0.10231   0.50600   0.25521   0.00000  Uiso   1.00
Zn216  Zn    0.23102   0.49400   0.24479   0.00000  Uiso   1.00
C217   C     0.15018   0.39870   0.11841   0.00000  Uiso   1.00
H218   H     0.17137   0.40293   0.15050   0.00000  Uiso   1.00
H219   H     0.10553   0.38287   0.12695   0.00000  Uiso   1.00
H220   H     0.17581   0.37032   0.09841   0.00000  Uiso   1.00
C221   C     0.18315   0.60130   0.38159   0.00000  Uiso   1.00
H222   H     0.16196   0.59707   0.34950   0.00000  Uiso   1.00
H223   H     0.15752   0.62968   0.40159   0.00000  Uiso   1.00
H224   H     0.22781   0.61713   0.37305   0.00000  Uiso   1.00
C225   C     0.24620   0.63791   0.46032   0.00000  Uiso   1.00
H226   H     0.27121   0.65885   0.48631   0.00000  Uiso   1.00
H227   H     0.27867   0.62426   0.43445   0.00000  Uiso   1.00
H228   H     0.21936   0.33380   0.44676   0.00000  Uiso   1.00
C229   C     0.08713   0.36209   0.03968   0.00000  Uiso   1.00
H230   H     0.06212   0.34115   0.01369   0.00000  Uiso   1.00
H231   H     0.11397   0.66620   0.05324   0.00000  Uiso   1.00
H232   H     0.05466   0.37574   0.06555   0.00000  Uiso   1.00
C233   C     0.51525   0.59823   0.24874   0.00000  Uiso   1.00
C234   C     0.48475   0.40177   0.25126   0.00000  Uiso   1.00
C235   C     0.54291   0.59186   0.47981   0.00000  Uiso   1.00
C236   C     0.45709   0.40814   0.02019   0.00000  Uiso   1.00
C237   C     0.52329   0.65274   0.24811   0.00000  Uiso   1.00
C238   C     0.47671   0.34726   0.25189   0.00000  Uiso   1.00
C239   C     0.50091   0.50080   0.33628   0.00000  Uiso   1.00
C240   C     0.49909   0.49920   0.16372   0.00000  Uiso   1.00
C241   C     0.48402   0.44976   0.09327   0.00000  Uiso   1.00
C242   C     0.51598   0.55024   0.40673   0.00000  Uiso   1.00
C243   C     0.49710   0.49707   0.11619   0.00000  Uiso   1.00
C244   C     0.50290   0.50293   0.38381   0.00000  Uiso   1.00
C245   C     0.51140   0.54343   0.09421   0.00000  Uiso   1.00
C246   C     0.48860   0.45657   0.40579   0.00000  Uiso   1.00
C247   C     0.51495   0.54412   0.04801   0.00000  Uiso   1.00
C248   C     0.48505   0.45588   0.45199   0.00000  Uiso   1.00
C249   C     0.49855   0.49878   0.02352   0.00000  Uiso   1.00
C250   C     0.50145   0.50122   0.47648   0.00000  Uiso   1.00
C251   C     0.47928   0.45132   0.04609   0.00000  Uiso   1.00
C252   C     0.52072   0.54868   0.45391   0.00000  Uiso   1.00
C253   C     0.53699   0.58946   0.02651   0.00000  Uiso   1.00
C254   C     0.46301   0.41054   0.47349   0.00000  Uiso   1.00
H255   H     0.52267   0.57864   0.11340   0.00000  Uiso   1.00
H256   H     0.47733   0.42136   0.38660   0.00000  Uiso   1.00
H257   H     0.55194   0.62279   0.04652   0.00000  Uiso   1.00
H258   H     0.44806   0.37721   0.45348   0.00000  Uiso   1.00
H259   H     0.56728   0.33644   0.24458   0.00000  Uiso   1.00
H260   H     0.43272   0.66356   0.25542   0.00000  Uiso   1.00
H261   H     0.33787   0.46083   0.21601   0.00000  Uiso   1.00
H262   H     0.66213   0.53917   0.28399   0.00000  Uiso   1.00
N263   N     0.65011   0.48598   0.23783   0.00000  Uiso   1.00
N264   N     0.34989   0.51402   0.26217   0.00000  Uiso   1.00
O265   O     0.46308   0.57952   0.25299   0.00000  Uiso   1.00
O266   O     0.53692   0.42048   0.24702   0.00000  Uiso   1.00
O267   O     0.55946   0.57054   0.24519   0.00000  Uiso   1.00
O268   O     0.44054   0.42946   0.25482   0.00000  Uiso   1.00
O269   O     0.45181   0.50450   0.31998   0.00000  Uiso   1.00
O270   O     0.54819   0.49550   0.18003   0.00000  Uiso   1.00
O271   O     0.54819   0.49552   0.31218   0.00000  Uiso   1.00
O272   O     0.45181   0.50448   0.18783   0.00000  Uiso   1.00
Zn273  Zn    0.43565   0.50600   0.25521   0.00000  Uiso   1.00
Zn274  Zn    0.56435   0.49400   0.24479   0.00000  Uiso   1.00
C275   C     0.48352   0.39870   0.11841   0.00000  Uiso   1.00
H276   H     0.50471   0.40293   0.15050   0.00000  Uiso   1.00
H277   H     0.43886   0.38287   0.12695   0.00000  Uiso   1.00
H278   H     0.50914   0.37032   0.09841   0.00000  Uiso   1.00
C279   C     0.51648   0.60130   0.38159   0.00000  Uiso   1.00
H280   H     0.49529   0.59707   0.34950   0.00000  Uiso   1.00
H281   H     0.49086   0.62968   0.40159   0.00000  Uiso   1.00
H282   H     0.56114   0.61713   0.37305   0.00000  Uiso   1.00
C283   C     0.57953   0.63791   0.46032   0.00000  Uiso   1.00
H284   H     0.60454   0.65885   0.48631   0.00000  Uiso   1.00
H285   H     0.61200   0.62426   0.43445   0.00000  Uiso   1.00
H286   H     0.55269   0.33380   0.44676   0.00000  Uiso   1.00
C287   C     0.42047   0.36209   0.03968   0.00000  Uiso   1.00
H288   H     0.39546   0.34115   0.01369   0.00000  Uiso   1.00
H289   H     0.44730   0.66620   0.05324   0.00000  Uiso   1.00
H290   H     0.38800   0.37574   0.06555   0.00000  Uiso   1.00
C291   C     0.84858   0.59823   0.24874   0.00000  Uiso   1.00
C292   C     0.81808   0.40177   0.25126   0.00000  Uiso   1.00
C293   C     0.87625   0.59186   0.47981   0.00000  Uiso   1.00
C294   C     0.79042   0.40814   0.02019   0.00000  Uiso   1.00
C295   C     0.85662   0.65274   0.24811   0.00000  Uiso   1.00
C296   C     0.81004   0.34726   0.25189   0.00000  Uiso   1.00
C297   C     0.83424   0.50080   0.33628   0.00000  Uiso   1.00
C298   C     0.83242   0.49920   0.16372   0.00000  Uiso   1.00
C299   C     0.81735   0.44976   0.09327   0.00000  Uiso   1.00
C300   C     0.84931   0.55024   0.40673   0.00000  Uiso   1.00
C301   C     0.83043   0.49707   0.11619   0.00000  Uiso   1.00
C302   C     0.83623   0.50293   0.38381   0.00000  Uiso   1.00
C303   C     0.84474   0.54343   0.09421   0.00000  Uiso   1.00
C304   C     0.82193   0.45657   0.40579   0.00000  Uiso   1.00
C305   C     0.84829   0.54412   0.04801   0.00000  Uiso   1.00
C306   C     0.81838   0.45588   0.45199   0.00000  Uiso   1.00
C307   C     0.83188   0.49878   0.02352   0.00000  Uiso   1.00
C308   C     0.83479   0.50122   0.47648   0.00000  Uiso   1.00
C309   C     0.81262   0.45132   0.04609   0.00000  Uiso   1.00
C310   C     0.85405   0.54868   0.45391   0.00000  Uiso   1.00
C311   C     0.87032   0.58946   0.02651   0.00000  Uiso   1.00
C312   C     0.79634   0.41054   0.47349   0.00000  Uiso   1.00
H313   H     0.85600   0.57864   0.11340   0.00000  Uiso   1.00
H314   H     0.81067   0.42136   0.38660   0.00000  Uiso   1.00
H315   H     0.88527   0.62279   0.04652   0.00000  Uiso   1.00
H316   H     0.78139   0.37721   0.45348   0.00000  Uiso   1.00
H317   H     0.90061   0.33644   0.24458   0.00000  Uiso   1.00
H318   H     0.76606   0.66356   0.25542   0.00000  Uiso   1.00
H319   H     0.67121   0.46083   0.21601   0.00000  Uiso   1.00
H320   H     0.99546   0.53917   0.28399   0.00000  Uiso   1.00
N321   N     0.98344   0.48598   0.23783   0.00000  Uiso   1.00
N322   N     0.68322   0.51402   0.26217   0.00000  Uiso   1.00
O323   O     0.79642   0.57952   0.25299   0.00000  Uiso   1.00
O324   O     0.87025   0.42048   0.24702   0.00000  Uiso   1.00
O325   O     0.89280   0.57054   0.24519   0.00000  Uiso   1.00
O326   O     0.77387   0.42946   0.25482   0.00000  Uiso   1.00
O327   O     0.78514   0.50450   0.31998   0.00000  Uiso   1.00
O328   O     0.88153   0.49550   0.18003   0.00000  Uiso   1.00
O329   O     0.88152   0.49552   0.31218   0.00000  Uiso   1.00
O330   O     0.78515   0.50448   0.18783   0.00000  Uiso   1.00
Zn331  Zn    0.76898   0.50600   0.25521   0.00000  Uiso   1.00
Zn332  Zn    0.89769   0.49400   0.24479   0.00000  Uiso   1.00
C333   C     0.81685   0.39870   0.11841   0.00000  Uiso   1.00
H334   H     0.83804   0.40293   0.15050   0.00000  Uiso   1.00
H335   H     0.77219   0.38287   0.12695   0.00000  Uiso   1.00
H336   H     0.84248   0.37032   0.09841   0.00000  Uiso   1.00
C337   C     0.84982   0.60130   0.38159   0.00000  Uiso   1.00
H338   H     0.82863   0.59707   0.34950   0.00000  Uiso   1.00
H339   H     0.82419   0.62968   0.40159   0.00000  Uiso   1.00
H340   H     0.89447   0.61713   0.37305   0.00000  Uiso   1.00
C341   C     0.91287   0.63791   0.46032   0.00000  Uiso   1.00
H342   H     0.93788   0.65885   0.48631   0.00000  Uiso   1.00
H343   H     0.94534   0.62426   0.43445   0.00000  Uiso   1.00
H344   H     0.88603   0.33380   0.44676   0.00000  Uiso   1.00
C345   C     0.75380   0.36209   0.03968   0.00000  Uiso   1.00
H346   H     0.72879   0.34115   0.01369   0.00000  Uiso   1.00
H347   H     0.78064   0.66620   0.05324   0.00000  Uiso   1.00
H348   H     0.72133   0.37574   0.06555   0.00000  Uiso   1.00
C349   C     0.18192   0.93156   0.24874   0.00000  Uiso   1.00
C350   C     0.15142   0.73511   0.25126   0.00000  Uiso   1.00
C351   C     0.20958   0.92519   0.47981   0.00000  Uiso   1.00
C352   C     0.12375   0.74147   0.02019   0.00000  Uiso   1.00
C353   C     0.18995   0.98608   0.24811   0.00000  Uiso   1.00
C354   C     0.14338   0.68059   0.25189   0.00000  Uiso   1.00
C355   C     0.16758   0.83414   0.33628   0.00000  Uiso   1.00
C356   C     0.16576   0.83253   0.16372   0.00000  Uiso   1.00
C357   C     0.15069   0.78309   0.09327   0.00000  Uiso   1.00
C358   C     0.18264   0.88358   0.40673   0.00000  Uiso   1.00
C359   C     0.16376   0.83041   0.11619   0.00000  Uiso   1.00
C360   C     0.16957   0.83626   0.38381   0.00000  Uiso   1.00
C361   C     0.17807   0.87676   0.09421   0.00000  Uiso   1.00
C362   C     0.15526   0.78990   0.40579   0.00000  Uiso   1.00
C363   C     0.18162   0.87745   0.04801   0.00000  Uiso   1.00
C364   C     0.15171   0.78921   0.45199   0.00000  Uiso   1.00
C365   C     0.16521   0.83212   0.02352   0.00000  Uiso   1.00
C366   C     0.16812   0.83455   0.47648   0.00000  Uiso   1.00
C367   C     0.14595   0.78466   0.04609   0.00000  Uiso   1.00
C368   C     0.18738   0.88201   0.45391   0.00000  Uiso   1.00
C369   C     0.20366   0.92279   0.02651   0.00000  Uiso   1.00
C370   C     0.12968   0.74387   0.47349   0.00000  Uiso   1.00
H371   H     0.18933   0.91198   0.11340   0.00000  Uiso   1.00
H372   H     0.14400   0.75469   0.38660   0.00000  Uiso   1.00
H373   H     0.21861   0.95612   0.04652   0.00000  Uiso   1.00
H374   H     0.11473   0.71054   0.45348   0.00000  Uiso   1.00
H375   H     0.23394   0.66977   0.24458   0.00000  Uiso   1.00
H376   H     0.09939   0.99690   0.25542   0.00000  Uiso   1.00
H377   H     0.00454   0.79416   0.21601   0.00000  Uiso   1.00
H378   H     0.32879   0.87251   0.28399   0.00000  Uiso   1.00
N379   N     0.31678   0.81932   0.23783   0.00000  Uiso   1.00
N380   N     0.01656   0.84735   0.26217   0.00000  Uiso   1.00
O381   O     0.12975   0.91286   0.25299   0.00000  Uiso   1.00
O382   O     0.20358   0.75381   0.24702   0.00000  Uiso   1.00
O383   O     0.22613   0.90387   0.24519   0.00000  Uiso   1.00
O384   O     0.10720   0.76279   0.25482   0.00000  Uiso   1.00
O385   O     0.11847   0.83784   0.31998   0.00000  Uiso   1.00
O386   O     0.21486   0.82883   0.18003   0.00000  Uiso   1.00
O387   O     0.21485   0.82885   0.31218   0.00000  Uiso   1.00
O388   O     0.11848   0.83781   0.18783   0.00000  Uiso   1.00
Zn389  Zn    0.10231   0.83933   0.25521   0.00000  Uiso   1.00
Zn390  Zn    0.23102   0.82734   0.24479   0.00000  Uiso   1.00
C391   C     0.15018   0.73203   0.11841   0.00000  Uiso   1.00
H392   H     0.17137   0.73626   0.15050   0.00000  Uiso   1.00
H393   H     0.10553   0.71620   0.12695   0.00000  Uiso   1.00
H394   H     0.17581   0.70366   0.09841   0.00000  Uiso   1.00
C395   C     0.18315   0.93463   0.38159   0.00000  Uiso   1.00
H396   H     0.16196   0.93041   0.34950   0.00000  Uiso   1.00
H397   H     0.15752   0.96301   0.40159   0.00000  Uiso   1.00
H398   H     0.22781   0.95046   0.37305   0.00000  Uiso   1.00
C399   C     0.24620   0.97125   0.46032   0.00000  Uiso   1.00
H400   H     0.27121   0.99219   0.48631   0.00000  Uiso   1.00
H401   H     0.27867   0.95759   0.43445   0.00000  Uiso   1.00
H402   H     0.21936   0.66714   0.44676   0.00000  Uiso   1.00
C403   C     0.08713   0.69542   0.03968   0.00000  Uiso   1.00
H404   H     0.06212   0.67448   0.01369   0.00000  Uiso   1.00
H405   H     0.11397   0.99953   0.05324   0.00000  Uiso   1.00
H406   H     0.05466   0.70907   0.06555   0.00000  Uiso   1.00
C407   C     0.51525   0.93156   0.24874   0.00000  Uiso   1.00
C408   C     0.48475   0.73511   0.25126   0.00000  Uiso   1.00
C409   C     0.54291   0.92519   0.47981   0.00000  Uiso   1.00
C410   C     0.45709   0.74147   0.02019   0.00000  Uiso   1.00
C411   C     0.52329   0.98608   0.24811   0.00000  Uiso   1.00
C412   C     0.47671   0.68059   0.25189   0.00000  Uiso   1.00
C413   C     0.50091   0.83414   0.33628   0.00000  Uiso   1.00
C414   C     0.49909   0.83253   0.16372   0.00000  Uiso   1.00
C415   C     0.48402   0.78309   0.09327   0.00000  Uiso   1.00
C416   C     0.51598   0.88358   0.40673   0.00000  Uiso   1.00
C417   C     0.49710   0.83041   0.11619   0.00000  Uiso   1.00
C418   C     0.50290   0.83626   0.38381   0.00000  Uiso   1.00
C419   C     0.51140   0.87676   0.09421   0.00000  Uiso   1.00
C420   C     0.48860   0.78990   0.40579   0.00000  Uiso   1.00
C421   C     0.51495   0.87745   0.04801   0.00000  Uiso   1.00
C422   C     0.48505   0.78921   0.45199   0.00000  Uiso   1.00
C423   C     0.49855   0.83212   0.02352   0.00000  Uiso   1.00
C424   C     0.50145   0.83455   0.47648   0.00000  Uiso   1.00
C425   C     0.47928   0.78466   0.04609   0.00000  Uiso   1.00
C426   C     0.52072   0.88201   0.45391   0.00000  Uiso   1.00
C427   C     0.53699   0.92279   0.02651   0.00000  Uiso   1.00
C428   C     0.46301   0.74387   0.47349   0.00000  Uiso   1.00
H429   H     0.52267   0.91198   0.11340   0.00000  Uiso   1.00
H430   H     0.47733   0.75469   0.38660   0.00000  Uiso   1.00
H431   H     0.55194   0.95612   0.04652   0.00000  Uiso   1.00
H432   H     0.44806   0.71054   0.45348   0.00000  Uiso   1.00
H433   H     0.56728   0.66977   0.24458   0.00000  Uiso   1.00
H434   H     0.43272   0.99690   0.25542   0.00000  Uiso   1.00
H435   H     0.33787   0.79416   0.21601   0.00000  Uiso   1.00
H436   H     0.66213   0.87251   0.28399   0.00000  Uiso   1.00
N437   N     0.65011   0.81932   0.23783   0.00000  Uiso   1.00
N438   N     0.34989   0.84735   0.26217   0.00000  Uiso   1.00
O439   O     0.46308   0.91286   0.25299   0.00000  Uiso   1.00
O440   O     0.53692   0.75381   0.24702   0.00000  Uiso   1.00
O441   O     0.55946   0.90387   0.24519   0.00000  Uiso   1.00
O442   O     0.44054   0.76279   0.25482   0.00000  Uiso   1.00
O443   O     0.45181   0.83784   0.31998   0.00000  Uiso   1.00
O444   O     0.54819   0.82883   0.18003   0.00000  Uiso   1.00
O445   O     0.54819   0.82885   0.31218   0.00000  Uiso   1.00
O446   O     0.45181   0.83781   0.18783   0.00000  Uiso   1.00
Zn447  Zn    0.43565   0.83933   0.25521   0.00000  Uiso   1.00
Zn448  Zn    0.56435   0.82734   0.24479   0.00000  Uiso   1.00
C449   C     0.48352   0.73203   0.11841   0.00000  Uiso   1.00
H450   H     0.50471   0.73626   0.15050   0.00000  Uiso   1.00
H451   H     0.43886   0.71620   0.12695   0.00000  Uiso   1.00
H452   H     0.50914   0.70366   0.09841   0.00000  Uiso   1.00
C453   C     0.51648   0.93463   0.38159   0.00000  Uiso   1.00
H454   H     0.49529   0.93041   0.34950   0.00000  Uiso   1.00
H455   H     0.49086   0.96301   0.40159   0.00000  Uiso   1.00
H456   H     0.56114   0.95046   0.37305   0.00000  Uiso   1.00
C457   C     0.57953   0.97125   0.46032   0.00000  Uiso   1.00
H458   H     0.60454   0.99219   0.48631   0.00000  Uiso   1.00
H459   H     0.61200   0.95759   0.43445   0.00000  Uiso   1.00
H460   H     0.55269   0.66714   0.44676   0.00000  Uiso   1.00
C461   C     0.42047   0.69542   0.03968   0.00000  Uiso   1.00
H462   H     0.39546   0.67448   0.01369   0.00000  Uiso   1.00
H463   H     0.44730   0.99953   0.05324   0.00000  Uiso   1.00
H464   H     0.38800   0.70907   0.06555   0.00000  Uiso   1.00
C465   C     0.84858   0.93156   0.24874   0.00000  Uiso   1.00
C466   C     0.81808   0.73511   0.25126   0.00000  Uiso   1.00
C467   C     0.87625   0.92519   0.47981   0.00000  Uiso   1.00
C468   C     0.79042   0.74147   0.02019   0.00000  Uiso   1.00
C469   C     0.85662   0.98608   0.24811   0.00000  Uiso   1.00
C470   C     0.81004   0.68059   0.25189   0.00000  Uiso   1.00
C471   C     0.83424   0.83414   0.33628   0.00000  Uiso   1.00
C472   C     0.83242   0.83253   0.16372   0.00000  Uiso   1.00
C473   C     0.81735   0.78309   0.09327   0.00000  Uiso   1.00
C474   C     0.84931   0.88358   0.40673   0.00000  Uiso   1.00
C475   C     0.83043   0.83041   0.11619   0.00000  Uiso   1.00
C476   C     0.83623   0.83626   0.38381   0.00000  Uiso   1.00
C477   C     0.84474   0.87676   0.09421   0.00000  Uiso   1.00
C478   C     0.82193   0.78990   0.40579   0.00000  Uiso   1.00
C479   C     0.84829   0.87745   0.04801   0.00000  Uiso   1.00
C480   C     0.81838   0.78921   0.45199   0.00000  Uiso   1.00
C481   C     0.83188   0.83212   0.02352   0.00000  Uiso   1.00
C482   C     0.83479   0.83455   0.47648   0.00000  Uiso   1.00
C483   C     0.81262   0.78466   0.04609   0.00000  Uiso   1.00
C484   C     0.85405   0.88201   0.45391   0.00000  Uiso   1.00
C485   C     0.87032   0.92279   0.02651   0.00000  Uiso   1.00
C486   C     0.79634   0.74387   0.47349   0.00000  Uiso   1.00
H487   H     0.85600   0.91198   0.11340   0.00000  Uiso   1.00
H488   H     0.81067   0.75469   0.38660   0.00000  Uiso   1.00
H489   H     0.88527   0.95612   0.04652   0.00000  Uiso   1.00
H490   H     0.78139   0.71054   0.45348   0.00000  Uiso   1.00
H491   H     0.90061   0.66977   0.24458   0.00000  Uiso   1.00
H492   H     0.76606   0.99690   0.25542   0.00000  Uiso   1.00
H493   H     0.67121   0.79416   0.21601   0.00000  Uiso   1.00
H494   H     0.99546   0.87251   0.28399   0.00000  Uiso   1.00
N495   N     0.98344   0.81932   0.23783   0.00000  Uiso   1.00
N496   N     0.68322   0.84735   0.26217   0.00000  Uiso   1.00
O497   O     0.79642   0.91286   0.25299   0.00000  Uiso   1.00
O498   O     0.87025   0.75381   0.24702   0.00000  Uiso   1.00
O499   O     0.89280   0.90387   0.24519   0.00000  Uiso   1.00
O500   O     0.77387   0.76279   0.25482   0.00000  Uiso   1.00
O501   O     0.78514   0.83784   0.31998   0.00000  Uiso   1.00
O502   O     0.88153   0.82883   0.18003   0.00000  Uiso   1.00
O503   O     0.88152   0.82885   0.31218   0.00000  Uiso   1.00
O504   O     0.78515   0.83781   0.18783   0.00000  Uiso   1.00
Zn505  Zn    0.76898   0.83933   0.25521   0.00000  Uiso   1.00
Zn506  Zn    0.89769   0.82734   0.24479   0.00000  Uiso   1.00
C507   C     0.81685   0.73203   0.11841   0.00000  Uiso   1.00
H508   H     0.83804   0.73626   0.15050   0.00000  Uiso   1.00
H509   H     0.77219   0.71620   0.12695   0.00000  Uiso   1.00
H510   H     0.84248   0.70366   0.09841   0.00000  Uiso   1.00
C511   C     0.84982   0.93463   0.38159   0.00000  Uiso   1.00
H512   H     0.82863   0.93041   0.34950   0.00000  Uiso   1.00
H513   H     0.82419   0.96301   0.40159   0.00000  Uiso   1.00
H514   H     0.89447   0.95046   0.37305   0.00000  Uiso   1.00
C515   C     0.91287   0.97125   0.46032   0.00000  Uiso   1.00
H516   H     0.93788   0.99219   0.48631   0.00000  Uiso   1.00
H517   H     0.94534   0.95759   0.43445   0.00000  Uiso   1.00
H518   H     0.88603   0.66714   0.44676   0.00000  Uiso   1.00
C519   C     0.75380   0.69542   0.03968   0.00000  Uiso   1.00
H520   H     0.72879   0.67448   0.01369   0.00000  Uiso   1.00
H521   H     0.78064   0.99953   0.05324   0.00000  Uiso   1.00
H522   H     0.72133   0.70907   0.06555   0.00000  Uiso   1.00
C523   C     0.18192   0.26489   0.74874   0.00000  Uiso   1.00
C524   C     0.15142   0.06844   0.75126   0.00000  Uiso   1.00
C525   C     0.20958   0.25853   0.97981   0.00000  Uiso   1.00
C526   C     0.12375   0.07481   0.52019   0.00000  Uiso   1.00
C527   C     0.18995   0.31941   0.74811   0.00000  Uiso   1.00
C528   C     0.14338   0.01392   0.75189   0.00000  Uiso   1.00
C529   C     0.16758   0.16747   0.83628   0.00000  Uiso   1.00
C530   C     0.16576   0.16586   0.66372   0.00000  Uiso   1.00
C531   C     0.15069   0.11642   0.59327   0.00000  Uiso   1.00
C532   C     0.18264   0.21691   0.90673   0.00000  Uiso   1.00
C533   C     0.16376   0.16374   0.61619   0.00000  Uiso   1.00
C534   C     0.16957   0.16959   0.88381   0.00000  Uiso   1.00
C535   C     0.17807   0.21009   0.59421   0.00000  Uiso   1.00
C536   C     0.15526   0.12324   0.90579   0.00000  Uiso   1.00
C537   C     0.18162   0.21079   0.54801   0.00000  Uiso   1.00
C538   C     0.15171   0.12255   0.95199   0.00000  Uiso   1.00
C539   C     0.16521   0.16545   0.52352   0.00000  Uiso   1.00
C540   C     0.16812   0.16788   0.97648   0.00000  Uiso   1.00
C541   C     0.14595   0.11799   0.54609   0.00000  Uiso   1.00
C542   C     0.18738   0.21534   0.95391   0.00000  Uiso   1.00
C543   C     0.20366   0.25613   0.52651   0.00000  Uiso   1.00
C544   C     0.12968   0.07721   0.97349   0.00000  Uiso   1.00
H545   H     0.18933   0.24531   0.61340   0.00000  Uiso   1.00
H546   H     0.14400   0.08802   0.88660   0.00000  Uiso   1.00
H547   H     0.21861   0.28946   0.54652   0.00000  Uiso   1.00
H548   H     0.11473   0.04388   0.95348   0.00000  Uiso   1.00
H549   H     0.23394   0.00310   0.74458   0.00000  Uiso   1.00
H550   H     0.09939   0.33023   0.75542   0.00000  Uiso   1.00
H551   H     0.00454   0.12749   0.71601   0.00000  Uiso   1.00
H552   H     0.32879   0.20584   0.78399   0.00000  Uiso   1.00
N553   N     0.31678   0.15265   0.73783   0.00000  Uiso   1.00
N554   N     0.01656   0.18068   0.76217   0.00000  Uiso   1.00
O555   O     0.12975   0.24619   0.75299   0.00000  Uiso   1.00
O556   O     0.20358   0.08714   0.74702   0.00000  Uiso   1.00
O557   O     0.22613   0.23721   0.74519   0.00000  Uiso   1.00
O558   O     0.10720   0.09613   0.75482   0.00000  Uiso   1.00
O559   O     0.11847   0.17117   0.81998   0.00000  Uiso   1.00
O560   O     0.21486   0.16216   0.68003   0.00000  Uiso   1.00
O561   O     0.21485   0.16219   0.81218   0.00000  Uiso   1.00
O562   O     0.11848   0.17115   0.68783   0.00000  Uiso   1.00
Zn563  Zn    0.10231   0.17266   0.75521   0.00000  Uiso   1.00
Zn564  Zn    0.23102   0.16067   0.74479   0.00000  Uiso   1.00
C565   C     0.15018   0.06537   0.61841   0.00000  Uiso   1.00
H566   H     0.17137   0.06959   0.65050   0.00000  Uiso   1.00
H567   H     0.10553   0.04954   0.62695   0.00000  Uiso   1.00
H568   H     0.17581   0.03699   0.59841   0.00000  Uiso   1.00
C569   C     0.18315   0.26797   0.88159   0.00000  Uiso   1.00
H570   H     0.16196   0.26374   0.84950   0.00000  Uiso   1.00
H571   H     0.15752   0.29634   0.90159   0.00000  Uiso   1.00
H572   H     0.22781   0.28380   0.87305   0.00000  Uiso   1.00
C573   C     0.24620   0.30458   0.96032   0.00000  Uiso   1.00
H574   H     0.27121   0.32552   0.98631   0.00000  Uiso   1.00
H575   H     0.27867   0.29093   0.93445   0.00000  Uiso   1.00
H576   H     0.21936   0.00047   0.94676   0.00000  Uiso   1.00
C577   C     0.08713   0.02875   0.53968   0.00000  Uiso   1.00
H578   H     0.06212   0.00781   0.51369   0.00000  Uiso   1.00
H579   H     0.11397   0.33286   0.55324   0.00000  Uiso   1.00
H580   H     0.05466   0.04241   0.56555   0.00000  Uiso   1.00
C581   C     0.51525   0.26489   0.74874   0.00000  Uiso   1.00
C582   C     0.48475   0.06844   0.75126   0.00000  Uiso   1.00
C583   C     0.54291   0.25853   0.97981   0.00000  Uiso   1.00
C584   C     0.45709   0.07481   0.52019   0.00000  Uiso   1.00
C585   C     0.52329   0.31941   0.74811   0.00000  Uiso   1.00
C586   C     0.47671   0.01392   0.75189   0.00000  Uiso   1.00
C587   C     0.50091   0.16747   0.83628   0.00000  Uiso   1.00
C588   C     0.49909   0.16586   0.66372   0.00000  Uiso   1.00
C589   C     0.48402   0.11642   0.59327   0.00000  Uiso   1.00
C590   C     0.51598   0.21691   0.90673   0.00000  Uiso   1.00
C591   C     0.49710   0.16374   0.61619   0.00000  Uiso   1.00
C592   C     0.50290   0.16959   0.88381   0.00000  Uiso   1.00
C593   C     0.51140   0.21009   0.59421   0.00000  Uiso   1.00
C594   C     0.48860   0.12324   0.90579   0.00000  Uiso   1.00
C595   C     0.51495   0.21079   0.54801   0.00000  Uiso   1.00
C596   C     0.48505   0.12255   0.95199   0.00000  Uiso   1.00
C597   C     0.49855   0.16545   0.52352   0.00000  Uiso   1.00
C598   C     0.50145   0.16788   0.97648   0.00000  Uiso   1.00
C599   C     0.47928   0.11799   0.54609   0.00000  Uiso   1.00
C600   C     0.52072   0.21534   0.95391   0.00000  Uiso   1.00
C601   C     0.53699   0.25613   0.52651   0.00000  Uiso   1.00
C602   C     0.46301   0.07721   0.97349   0.00000  Uiso   1.00
H603   H     0.52267   0.24531   0.61340   0.00000  Uiso   1.00
H604   H     0.47733   0.08802   0.88660   0.00000  Uiso   1.00
H605   H     0.55194   0.28946   0.54652   0.00000  Uiso   1.00
H606   H     0.44806   0.04388   0.95348   0.00000  Uiso   1.00
H607   H     0.56728   0.00310   0.74458   0.00000  Uiso   1.00
H608   H     0.43272   0.33023   0.75542   0.00000  Uiso   1.00
H609   H     0.33787   0.12749   0.71601   0.00000  Uiso   1.00
H610   H     0.66213   0.20584   0.78399   0.00000  Uiso   1.00
N611   N     0.65011   0.15265   0.73783   0.00000  Uiso   1.00
N612   N     0.34989   0.18068   0.76217   0.00000  Uiso   1.00
O613   O     0.46308   0.24619   0.75299   0.00000  Uiso   1.00
O614   O     0.53692   0.08714   0.74702   0.00000  Uiso   1.00
O615   O     0.55946   0.23721   0.74519   0.00000  Uiso   1.00
O616   O     0.44054   0.09613   0.75482   0.00000  Uiso   1.00
O617   O     0.45181   0.17117   0.81998   0.00000  Uiso   1.00
O618   O     0.54819   0.16216   0.68003   0.00000  Uiso   1.00
O619   O     0.54819   0.16219   0.81218   0.00000  Uiso   1.00
O620   O     0.45181   0.17115   0.68783   0.00000  Uiso   1.00
Zn621  Zn    0.43565   0.17266   0.75521   0.00000  Uiso   1.00
Zn622  Zn    0.56435   0.16067   0.74479   0.00000  Uiso   1.00
C623   C     0.48352   0.06537   0.61841   0.00000  Uiso   1.00
H624   H     0.50471   0.06959   0.65050   0.00000  Uiso   1.00
H625   H     0.43886   0.04954   0.62695   0.00000  Uiso   1.00
H626   H     0.50914   0.03699   0.59841   0.00000  Uiso   1.00
C627   C     0.51648   0.26797   0.88159   0.00000  Uiso   1.00
H628   H     0.49529   0.26374   0.84950   0.00000  Uiso   1.00
H629   H     0.49086   0.29634   0.90159   0.00000  Uiso   1.00
H630   H     0.56114   0.28380   0.87305   0.00000  Uiso   1.00
C631   C     0.57953   0.30458   0.96032   0.00000  Uiso   1.00
H632   H     0.60454   0.32552   0.98631   0.00000  Uiso   1.00
H633   H     0.61200   0.29093   0.93445   0.00000  Uiso   1.00
H634   H     0.55269   0.00047   0.94676   0.00000  Uiso   1.00
C635   C     0.42047   0.02875   0.53968   0.00000  Uiso   1.00
H636   H     0.39546   0.00781   0.51369   0.00000  Uiso   1.00
H637   H     0.44730   0.33286   0.55324   0.00000  Uiso   1.00
H638   H     0.38800   0.04241   0.56555   0.00000  Uiso   1.00
C639   C     0.84858   0.26489   0.74874   0.00000  Uiso   1.00
C640   C     0.81808   0.06844   0.75126   0.00000  Uiso   1.00
C641   C     0.87625   0.25853   0.97981   0.00000  Uiso   1.00
C642   C     0.79042   0.07481   0.52019   0.00000  Uiso   1.00
C643   C     0.85662   0.31941   0.74811   0.00000  Uiso   1.00
C644   C     0.81004   0.01392   0.75189   0.00000  Uiso   1.00
C645   C     0.83424   0.16747   0.83628   0.00000  Uiso   1.00
C646   C     0.83242   0.16586   0.66372   0.00000  Uiso   1.00
C647   C     0.81735   0.11642   0.59327   0.00000  Uiso   1.00
C648   C     0.84931   0.21691   0.90673   0.00000  Uiso   1.00
C649   C     0.83043   0.16374   0.61619   0.00000  Uiso   1.00
C650   C     0.83623   0.16959   0.88381   0.00000  Uiso   1.00
C651   C     0.84474   0.21009   0.59421   0.00000  Uiso   1.00
C652   C     0.82193   0.12324   0.90579   0.00000  Uiso   1.00
C653   C     0.84829   0.21079   0.54801   0.00000  Uiso   1.00
C654   C     0.81838   0.12255   0.95199   0.00000  Uiso   1.00
C655   C     0.83188   0.16545   0.52352   0.00000  Uiso   1.00
C656   C     0.83479   0.16788   0.97648   0.00000  Uiso   1.00
C657   C     0.81262   0.11799   0.54609   0.00000  Uiso   1.00
C658   C     0.85405   0.21534   0.95391   0.00000  Uiso   1.00
C659   C     0.87032   0.25613   0.52651   0.00000  Uiso   1.00
C660   C     0.79634   0.07721   0.97349   0.00000  Uiso   1.00
H661   H     0.85600   0.24531   0.61340   0.00000  Uiso   1.00
H662   H     0.81067   0.08802   0.88660   0.00000  Uiso   1.00
H663   H     0.88527   0.28946   0.54652   0.00000  Uiso   1.00
H664   H     0.78139   0.04388   0.95348   0.00000  Uiso   1.00
H665   H     0.90061   0.00310   0.74458   0.00000  Uiso   1.00
H666   H     0.76606   0.33023   0.75542   0.00000  Uiso   1.00
H667   H     0.67121   0.12749   0.71601   0.00000  Uiso   1.00
H668   H     0.99546   0.20584   0.78399   0.00000  Uiso   1.00
N669   N     0.98344   0.15265   0.73783   0.00000  Uiso   1.00
N670   N     0.68322   0.18068   0.76217   0.00000  Uiso   1.00
O671   O     0.79642   0.24619   0.75299   0.00000  Uiso   1.00
O672   O     0.87025   0.08714   0.74702   0.00000  Uiso   1.00
O673   O     0.89280   0.23721   0.74519   0.00000  Uiso   1.00
O674   O     0.77387   0.09613   0.75482   0.00000  Uiso   1.00
O675   O     0.78514   0.17117   0.81998   0.00000  Uiso   1.00
O676   O     0.88153   0.16216   0.68003   0.00000  Uiso   1.00
O677   O     0.88152   0.16219   0.81218   0.00000  Uiso   1.00
O678   O     0.78515   0.17115   0.68783   0.00000  Uiso   1.00
Zn679  Zn    0.76898   0.17266   0.75521   0.00000  Uiso   1.00
Zn680  Zn    0.89769   0.16067   0.74479   0.00000  Uiso   1.00
C681   C     0.81685   0.06537   0.61841   0.00000  Uiso   1.00
H682   H     0.83804   0.06959   0.65050   0.00000  Uiso   1.00
H683   H     0.77219   0.04954   0.62695   0.00000  Uiso   1.00
H684   H     0.84248   0.03699   0.59841   0.00000  Uiso   1.00
C685   C     0.84982   0.26797   0.88159   0.00000  Uiso   1.00
H686   H     0.82863   0.26374   0.84950   0.00000  Uiso   1.00
H687   H     0.82419   0.29634   0.90159   0.00000  Uiso   1.00
H688   H     0.89447   0.28380   0.87305   0.00000  Uiso   1.00
C689   C     0.91287   0.30458   0.96032   0.00000  Uiso   1.00
H690   H     0.93788   0.32552   0.98631   0.00000  Uiso   1.00
H691   H     0.94534   0.29093   0.93445   0.00000  Uiso   1.00
H692   H     0.88603   0.00047   0.94676   0.00000  Uiso   1.00
C693   C     0.75380   0.02875   0.53968   0.00000  Uiso   1.00
H694   H     0.72879   0.00781   0.51369   0.00000  Uiso   1.00
H695   H     0.78064   0.33286   0.55324   0.00000  Uiso   1.00
H696   H     0.72133   0.04241   0.56555   0.00000  Uiso   1.00
C697   C     0.18192   0.59823   0.74874   0.00000  Uiso   1.00
C698   C     0.15142   0.40177   0.75126   0.00000  Uiso   1.00
C699   C     0.20958   0.59186   0.97981   0.00000  Uiso   1.00
C700   C     0.12375   0.40814   0.52019   0.00000  Uiso   1.00
C701   C     0.18995   0.65274   0.74811   0.00000  Uiso   1.00
C702   C     0.14338   0.34726   0.75189   0.00000  Uiso   1.00
C703   C     0.16758   0.50080   0.83628   0.00000  Uiso   1.00
C704   C     0.16576   0.49920   0.66372   0.00000  Uiso   1.00
C705   C     0.15069   0.44976   0.59327   0.00000  Uiso   1.00
C706   C     0.18264   0.55024   0.90673   0.00000  Uiso   1.00
C707   C     0.16376   0.49707   0.61619   0.00000  Uiso   1.00
C708   C     0.16957   0.50293   0.88381   0.00000  Uiso   1.00
C709   C     0.17807   0.54343   0.59421   0.00000  Uiso   1.00
C710   C     0.15526   0.45657   0.90579   0.00000  Uiso   1.00
C711   C     0.18162   0.54412   0.54801   0.00000  Uiso   1.00
C712   C     0.15171   0.45588   0.95199   0.00000  Uiso   1.00
C713   C     0.16521   0.49878   0.52352   0.00000  Uiso   1.00
C714   C     0.16812   0.50122   0.97648   0.00000  Uiso   1.00
C715   C     0.14595   0.45132   0.54609   0.00000  Uiso   1.00
C716   C     0.18738   0.54868   0.95391   0.00000  Uiso   1.00
C717   C     0.20366   0.58946   0.52651   0.00000  Uiso   1.00
C718   C     0.12968   0.41054   0.97349   0.00000  Uiso   1.00
H719   H     0.18933   0.57864   0.61340   0.00000  Uiso   1.00
H720   H     0.14400   0.42136   0.88660   0.00000  Uiso   1.00
H721   H     0.21861   0.62279   0.54652   0.00000  Uiso   1.00
H722   H     0.11473   0.37721   0.95348   0.00000  Uiso   1.00
H723   H     0.23394   0.33644   0.74458   0.00000  Uiso   1.00
H724   H     0.09939   0.66356   0.75542   0.00000  Uiso   1.00
H725   H     0.00454   0.46083   0.71601   0.00000  Uiso   1.00
H726   H     0.32879   0.53917   0.78399   0.00000  Uiso   1.00
N727   N     0.31678   0.48598   0.73783   0.00000  Uiso   1.00
N728   N     0.01656   0.51402   0.76217   0.00000  Uiso   1.00
O729   O     0.12975   0.57952   0.75299   0.00000  Uiso   1.00
O730   O     0.20358   0.42048   0.74702   0.00000  Uiso   1.00
O731   O     0.22613   0.57054   0.74519   0.00000  Uiso   1.00
O732   O     0.10720   0.42946   0.75482   0.00000  Uiso   1.00
O733   O     0.11847   0.50450   0.81998   0.00000  Uiso   1.00
O734   O     0.21486   0.49550   0.68003   0.00000  Uiso   1.00
O735   O     0.21485   0.49552   0.81218   0.00000  Uiso   1.00
O736   O     0.11848   0.50448   0.68783   0.00000  Uiso   1.00
Zn737  Zn    0.10231   0.50600   0.75521   0.00000  Uiso   1.00
Zn738  Zn    0.23102   0.49400   0.74479   0.00000  Uiso   1.00
C739   C     0.15018   0.39870   0.61841   0.00000  Uiso   1.00
H740   H     0.17137   0.40293   0.65050   0.00000  Uiso   1.00
H741   H     0.10553   0.38287   0.62695   0.00000  Uiso   1.00
H742   H     0.17581   0.37032   0.59841   0.00000  Uiso   1.00
C743   C     0.18315   0.60130   0.88159   0.00000  Uiso   1.00
H744   H     0.16196   0.59707   0.84950   0.00000  Uiso   1.00
H745   H     0.15752   0.62968   0.90159   0.00000  Uiso   1.00
H746   H     0.22781   0.61713   0.87305   0.00000  Uiso   1.00
C747   C     0.24620   0.63791   0.96032   0.00000  Uiso   1.00
H748   H     0.27121   0.65885   0.98631   0.00000  Uiso   1.00
H749   H     0.27867   0.62426   0.93445   0.00000  Uiso   1.00
H750   H     0.21936   0.33380   0.94676   0.00000  Uiso   1.00
C751   C     0.08713   0.36209   0.53968   0.00000  Uiso   1.00
H752   H     0.06212   0.34115   0.51369   0.00000  Uiso   1.00
H753   H     0.11397   0.66620   0.55324   0.00000  Uiso   1.00
H754   H     0.05466   0.37574   0.56555   0.00000  Uiso   1.00
C755   C     0.51525   0.59823   0.74874   0.00000  Uiso   1.00
C756   C     0.48475   0.40177   0.75126   0.00000  Uiso   1.00
C757   C     0.54291   0.59186   0.97981   0.00000  Uiso   1.00
C758   C     0.45709   0.40814   0.52019   0.00000  Uiso   1.00
C759   C     0.52329   0.65274   0.74811   0.00000  Uiso   1.00
C760   C     0.47671   0.34726   0.75189   0.00000  Uiso   1.00
C761   C     0.50091   0.50080   0.83628   0.00000  Uiso   1.00
C762   C     0.49909   0.49920   0.66372   0.00000  Uiso   1.00
C763   C     0.48402   0.44976   0.59327   0.00000  Uiso   1.00
C764   C     0.51598   0.55024   0.90673   0.00000  Uiso   1.00
C765   C     0.49710   0.49707   0.61619   0.00000  Uiso   1.00
C766   C     0.50290   0.50293   0.88381   0.00000  Uiso   1.00
C767   C     0.51140   0.54343   0.59421   0.00000  Uiso   1.00
C768   C     0.48860   0.45657   0.90579   0.00000  Uiso   1.00
C769   C     0.51495   0.54412   0.54801   0.00000  Uiso   1.00
C770   C     0.48505   0.45588   0.95199   0.00000  Uiso   1.00
C771   C     0.49855   0.49878   0.52352   0.00000  Uiso   1.00
C772   C     0.50145   0.50122   0.97648   0.00000  Uiso   1.00
C773   C     0.47928   0.45132   0.54609   0.00000  Uiso   1.00
C774   C     0.52072   0.54868   0.95391   0.00000  Uiso   1.00
C775   C     0.53699   0.58946   0.52651   0.00000  Uiso   1.00
C776   C     0.46301   0.41054   0.97349   0.00000  Uiso   1.00
H777   H     0.52267   0.57864   0.61340   0.00000  Uiso   1.00
H778   H     0.47733   0.42136   0.88660   0.00000  Uiso   1.00
H779   H     0.55194   0.62279   0.54652   0.00000  Uiso   1.00
H780   H     0.44806   0.37721   0.95348   0.00000  Uiso   1.00
H781   H     0.56728   0.33644   0.74458   0.00000  Uiso   1.00
H782   H     0.43272   0.66356   0.75542   0.00000  Uiso   1.00
H783   H     0.33787   0.46083   0.71601   0.00000  Uiso   1.00
H784   H     0.66213   0.53917   0.78399   0.00000  Uiso   1.00
N785   N     0.65011   0.48598   0.73783   0.00000  Uiso   1.00
N786   N     0.34989   0.51402   0.76217   0.00000  Uiso   1.00
O787   O     0.46308   0.57952   0.75299   0.00000  Uiso   1.00
O788   O     0.53692   0.42048   0.74702   0.00000  Uiso   1.00
O789   O     0.55946   0.57054   0.74519   0.00000  Uiso   1.00
O790   O     0.44054   0.42946   0.75482   0.00000  Uiso   1.00
O791   O     0.45181   0.50450   0.81998   0.00000  Uiso   1.00
O792   O     0.54819   0.49550   0.68003   0.00000  Uiso   1.00
O793   O     0.54819   0.49552   0.81218   0.00000  Uiso   1.00
O794   O     0.45181   0.50448   0.68783   0.00000  Uiso   1.00
Zn795  Zn    0.43565   0.50600   0.75521   0.00000  Uiso   1.00
Zn796  Zn    0.56435   0.49400   0.74479   0.00000  Uiso   1.00
C797   C     0.48352   0.39870   0.61841   0.00000  Uiso   1.00
H798   H     0.50471   0.40293   0.65050   0.00000  Uiso   1.00
H799   H     0.43886   0.38287   0.62695   0.00000  Uiso   1.00
H800   H     0.50914   0.37032   0.59841   0.00000  Uiso   1.00
C801   C     0.51648   0.60130   0.88159   0.00000  Uiso   1.00
H802   H     0.49529   0.59707   0.84950   0.00000  Uiso   1.00
H803   H     0.49086   0.62968   0.90159   0.00000  Uiso   1.00
H804   H     0.56114   0.61713   0.87305   0.00000  Uiso   1.00
C805   C     0.57953   0.63791   0.96032   0.00000  Uiso   1.00
H806   H     0.60454   0.65885   0.98631   0.00000  Uiso   1.00
H807   H     0.61200   0.62426   0.93445   0.00000  Uiso   1.00
H808   H     0.55269   0.33380   0.94676   0.00000  Uiso   1.00
C809   C     0.42047   0.36209   0.53968   0.00000  Uiso   1.00
H810   H     0.39546   0.34115   0.51369   0.00000  Uiso   1.00
H811   H     0.44730   0.66620   0.55324   0.00000  Uiso   1.00
H812   H     0.38800   0.37574   0.56555   0.00000  Uiso   1.00
C813   C     0.84858   0.59823   0.74874   0.00000  Uiso   1.00
C814   C     0.81808   0.40177   0.75126   0.00000  Uiso   1.00
C815   C     0.87625   0.59186   0.97981   0.00000  Uiso   1.00
C816   C     0.79042   0.40814   0.52019   0.00000  Uiso   1.00
C817   C     0.85662   0.65274   0.74811   0.00000  Uiso   1.00
C818   C     0.81004   0.34726   0.75189   0.00000  Uiso   1.00
C819   C     0.83424   0.50080   0.83628   0.00000  Uiso   1.00
C820   C     0.83242   0.49920   0.66372   0.00000  Uiso   1.00
C821   C     0.81735   0.44976   0.59327   0.00000  Uiso   1.00
C822   C     0.84931   0.55024   0.90673   0.00000  Uiso   1.00
C823   C     0.83043   0.49707   0.61619   0.00000  Uiso   1.00
C824   C     0.83623   0.50293   0.88381   0.00000  Uiso   1.00
C825   C     0.84474   0.54343   0.59421   0.00000  Uiso   1.00
C826   C     0.82193   0.45657   0.90579   0.00000  Uiso   1.00
C827   C     0.84829   0.54412   0.54801   0.00000  Uiso   1.00
C828   C     0.81838   0.45588   0.95199   0.00000  Uiso   1.00
C829   C     0.83188   0.49878   0.52352   0.00000  Uiso   1.00
C830   C     0.83479   0.50122   0.97648   0.00000  Uiso   1.00
C831   C     0.81262   0.45132   0.54609   0.00000  Uiso   1.00
C832   C     0.85405   0.54868   0.95391   0.00000  Uiso   1.00
C833   C     0.87032   0.58946   0.52651   0.00000  Uiso   1.00
C834   C     0.79634   0.41054   0.97349   0.00000  Uiso   1.00
H835   H     0.85600   0.57864   0.61340   0.00000  Uiso   1.00
H836   H     0.81067   0.42136   0.88660   0.00000  Uiso   1.00
H837   H     0.88527   0.62279   0.54652   0.00000  Uiso   1.00
H838   H     0.78139   0.37721   0.95348   0.00000  Uiso   1.00
H839   H     0.90061   0.33644   0.74458   0.00000  Uiso   1.00
H840   H     0.76606   0.66356   0.75542   0.00000  Uiso   1.00
H841   H     0.67121   0.46083   0.71601   0.00000  Uiso   1.00
H842   H     0.99546   0.53917   0.78399   0.00000  Uiso   1.00
N843   N     0.98344   0.48598   0.73783   0.00000  Uiso   1.00
N844   N     0.68322   0.51402   0.76217   0.00000  Uiso   1.00
O845   O     0.79642   0.57952   0.75299   0.00000  Uiso   1.00
O846   O     0.87025   0.42048   0.74702   0.00000  Uiso   1.00
O847   O     0.89280   0.57054   0.74519   0.00000  Uiso   1.00
O848   O     0.77387   0.42946   0.75482   0.00000  Uiso   1.00
O849   O     0.78514   0.50450   0.81998   0.00000  Uiso   1.00
O850   O     0.88153   0.49550   0.68003   0.00000  Uiso   1.00
O851   O     0.88152   0.49552   0.81218   0.00000  Uiso   1.00
O852   O     0.78515   0.50448   0.68783   0.00000  Uiso   1.00
Zn853  Zn    0.76898   0.50600   0.75521   0.00000  Uiso   1.00
Zn854  Zn    0.89769   0.49400   0.74479   0.00000  Uiso   1.00
C855   C     0.81685   0.39870   0.61841   0.00000  Uiso   1.00
H856   H     0.83804   0.40293   0.65050   0.00000  Uiso   1.00
H857   H     0.77219   0.38287   0.62695   0.00000  Uiso   1.00
H858   H     0.84248   0.37032   0.59841   0.00000  Uiso   1.00
C859   C     0.84982   0.60130   0.88159   0.00000  Uiso   1.00
H860   H     0.82863   0.59707   0.84950   0.00000  Uiso   1.00
H861   H     0.82419   0.62968   0.90159   0.00000  Uiso   1.00
H862   H     0.89447   0.61713   0.87305   0.00000  Uiso   1.00
C863   C     0.91287   0.63791   0.96032   0.00000  Uiso   1.00
H864   H     0.93788   0.65885   0.98631   0.00000  Uiso   1.00
H865   H     0.94534   0.62426   0.93445   0.00000  Uiso   1.00
H866   H     0.88603   0.33380   0.94676   0.00000  Uiso   1.00
C867   C     0.75380   0.36209   0.53968   0.00000  Uiso   1.00
H868   H     0.72879   0.34115   0.51369   0.00000  Uiso   1.00
H869   H     0.78064   0.66620   0.55324   0.00000  Uiso   1.00
H870   H     0.72133   0.37574   0.56555   0.00000  Uiso   1.00
C871   C     0.18192   0.93156   0.74874   0.00000  Uiso   1.00
C872   C     0.15142   0.73511   0.75126   0.00000  Uiso   1.00
C873   C     0.20958   0.92519   0.97981   0.00000  Uiso   1.00
C874   C     0.12375   0.74147   0.52019   0.00000  Uiso   1.00
C875   C     0.18995   0.98608   0.74811   0.00000  Uiso   1.00
C876   C     0.14338   0.68059   0.75189   0.00000  Uiso   1.00
C877   C     0.16758   0.83414   0.83628   0.00000  Uiso   1.00
C878   C     0.16576   0.83253   0.66372   0.00000  Uiso   1.00
C879   C     0.15069   0.78309   0.59327   0.00000  Uiso   1.00
C880   C     0.18264   0.88358   0.90673   0.00000  Uiso   1.00
C881   C     0.16376   0.83041   0.61619   0.00000  Uiso   1.00
C882   C     0.16957   0.83626   0.88381   0.00000  Uiso   1.00
C883   C     0.17807   0.87676   0.59421   0.00000  Uiso   1.00
C884   C     0.15526   0.78990   0.90579   0.00000  Uiso   1.00
C885   C     0.18162   0.87745   0.54801   0.00000  Uiso   1.00
C886   C     0.15171   0.78921   0.95199   0.00000  Uiso   1.00
C887   C     0.16521   0.83212   0.52352   0.00000  Uiso   1.00
C888   C     0.16812   0.83455   0.97648   0.00000  Uiso   1.00
C889   C     0.14595   0.78466   0.54609   0.00000  Uiso   1.00
C890   C     0.18738   0.88201   0.95391   0.00000  Uiso   1.00
C891   C     0.20366   0.92279   0.52651   0.00000  Uiso   1.00
C892   C     0.12968   0.74387   0.97349   0.00000  Uiso   1.00
H893   H     0.18933   0.91198   0.61340   0.00000  Uiso   1.00
H894   H     0.14400   0.75469   0.88660   0.00000  Uiso   1.00
H895   H     0.21861   0.95612   0.54652   0.00000  Uiso   1.00
H896   H     0.11473   0.71054   0.95348   0.00000  Uiso   1.00
H897   H     0.23394   0.66977   0.74458   0.00000  Uiso   1.00
H898   H     0.09939   0.99690   0.75542   0.00000  Uiso   1.00
H899   H     0.00454   0.79416   0.71601   0.00000  Uiso   1.00
H900   H     0.32879   0.87251   0.78399   0.00000  Uiso   1.00
N901   N     0.31678   0.81932   0.73783   0.00000  Uiso   1.00
N902   N     0.01656   0.84735   0.76217   0.00000  Uiso   1.00
O903   O     0.12975   0.91286   0.75299   0.00000  Uiso   1.00
O904   O     0.20358   0.75381   0.74702   0.00000  Uiso   1.00
O905   O     0.22613   0.90387   0.74519   0.00000  Uiso   1.00
O906   O     0.10720   0.76279   0.75482   0.00000  Uiso   1.00
O907   O     0.11847   0.83784   0.81998   0.00000  Uiso   1.00
O908   O     0.21486   0.82883   0.68003   0.00000  Uiso   1.00
O909   O     0.21485   0.82885   0.81218   0.00000  Uiso   1.00
O910   O     0.11848   0.83781   0.68783   0.00000  Uiso   1.00
Zn911  Zn    0.10231   0.83933   0.75521   0.00000  Uiso   1.00
Zn912  Zn    0.23102   0.82734   0.74479   0.00000  Uiso   1.00
C913   C     0.15018   0.73203   0.61841   0.00000  Uiso   1.00
H914   H     0.17137   0.73626   0.65050   0.00000  Uiso   1.00
H915   H     0.10553   0.71620   0.62695   0.00000  Uiso   1.00
H916   H     0.17581   0.70366   0.59841   0.00000  Uiso   1.00
C917   C     0.18315   0.93463   0.88159   0.00000  Uiso   1.00
H918   H     0.16196   0.93041   0.84950   0.00000  Uiso   1.00
H919   H     0.15752   0.96301   0.90159   0.00000  Uiso   1.00
H920   H     0.22781   0.95046   0.87305   0.00000  Uiso   1.00
C921   C     0.24620   0.97125   0.96032   0.00000  Uiso   1.00
H922   H     0.27121   0.99219   0.98631   0.00000  Uiso   1.00
H923   H     0.27867   0.95759   0.93445   0.00000  Uiso   1.00
H924   H     0.21936   0.66714   0.94676   0.00000  Uiso   1.00
C925   C     0.08713   0.69542   0.53968   0.00000  Uiso   1.00
H926   H     0.06212   0.67448   0.51369   0.00000  Uiso   1.00
H927   H     0.11397   0.99953   0.55324   0.00000  Uiso   1.00
H928   H     0.05466   0.70907   0.56555   0.00000  Uiso   1.00
C929   C     0.51525   0.93156   0.74874   0.00000  Uiso   1.00
C930   C     0.48475   0.73511   0.75126   0.00000  Uiso   1.00
C931   C     0.54291   0.92519   0.97981   0.00000  Uiso   1.00
C932   C     0.45709   0.74147   0.52019   0.00000  Uiso   1.00
C933   C     0.52329   0.98608   0.74811   0.00000  Uiso   1.00
C934   C     0.47671   0.68059   0.75189   0.00000  Uiso   1.00
C935   C     0.50091   0.83414   0.83628   0.00000  Uiso   1.00
C936   C     0.49909   0.83253   0.66372   0.00000  Uiso   1.00
C937   C     0.48402   0.78309   0.59327   0.00000  Uiso   1.00
C938   C     0.51598   0.88358   0.90673   0.00000  Uiso   1.00
C939   C     0.49710   0.83041   0.61619   0.00000  Uiso   1.00
C940   C     0.50290   0.83626   0.88381   0.00000  Uiso   1.00
C941   C     0.51140   0.87676   0.59421   0.00000  Uiso   1.00
C942   C     0.48860   0.78990   0.90579   0.00000  Uiso   1.00
C943   C     0.51495   0.87745   0.54801   0.00000  Uiso   1.00
C944   C     0.48505   0.78921   0.95199   0.00000  Uiso   1.00
C945   C     0.49855   0.83212   0.52352   0.00000  Uiso   1.00
C946   C     0.50145   0.83455   0.97648   0.00000  Uiso   1.00
C947   C     0.47928   0.78466   0.54609   0.00000  Uiso   1.00
C948   C     0.52072   0.88201   0.95391   0.00000  Uiso   1.00
C949   C     0.53699   0.92279   0.52651   0.00000  Uiso   1.00
C950   C     0.46301   0.74387   0.97349   0.00000  Uiso   1.00
H951   H     0.52267   0.91198   0.61340   0.00000  Uiso   1.00
H952   H     0.47733   0.75469   0.88660   0.00000  Uiso   1.00
H953   H     0.55194   0.95612   0.54652   0.00000  Uiso   1.00
H954   H     0.44806   0.71054   0.95348   0.00000  Uiso   1.00
H955   H     0.56728   0.66977   0.74458   0.00000  Uiso   1.00
H956   H     0.43272   0.99690   0.75542   0.00000  Uiso   1.00
H957   H     0.33787   0.79416   0.71601   0.00000  Uiso   1.00
H958   H     0.66213   0.87251   0.78399   0.00000  Uiso   1.00
N959   N     0.65011   0.81932   0.73783   0.00000  Uiso   1.00
N960   N     0.34989   0.84735   0.76217   0.00000  Uiso   1.00
O961   O     0.46308   0.91286   0.75299   0.00000  Uiso   1.00
O962   O     0.53692   0.75381   0.74702   0.00000  Uiso   1.00
O963   O     0.55946   0.90387   0.74519   0.00000  Uiso   1.00
O964   O     0.44054   0.76279   0.75482   0.00000  Uiso   1.00
O965   O     0.45181   0.83784   0.81998   0.00000  Uiso   1.00
O966   O     0.54819   0.82883   0.68003   0.00000  Uiso   1.00
O967   O     0.54819   0.82885   0.81218   0.00000  Uiso   1.00
O968   O     0.45181   0.83781   0.68783   0.00000  Uiso   1.00
Zn969  Zn    0.43565   0.83933   0.75521   0.00000  Uiso   1.00
Zn970  Zn    0.56435   0.82734   0.74479   0.00000  Uiso   1.00
C971   C     0.48352   0.73203   0.61841   0.00000  Uiso   1.00
H972   H     0.50471   0.73626   0.65050   0.00000  Uiso   1.00
H973   H     0.43886   0.71620   0.62695   0.00000  Uiso   1.00
H974   H     0.50914   0.70366   0.59841   0.00000  Uiso   1.00
C975   C     0.51648   0.93463   0.88159   0.00000  Uiso   1.00
H976   H     0.49529   0.93041   0.84950   0.00000  Uiso   1.00
H977   H     0.49086   0.96301   0.90159   0.00000  Uiso   1.00
H978   H     0.56114   0.95046   0.87305   0.00000  Uiso   1.00
C979   C     0.57953   0.97125   0.96032   0.00000  Uiso   1.00
H980   H     0.60454   0.99219   0.98631   0.00000  Uiso   1.00
H981   H     0.61200   0.95759   0.93445   0.00000  Uiso   1.00
H982   H     0.55269   0.66714   0.94676   0.00000  Uiso   1.00
C983   C     0.42047   0.69542   0.53968   0.00000  Uiso   1.00
H984   H     0.39546   0.67448   0.51369   0.00000  Uiso   1.00
H985   H     0.44730   0.99953   0.55324   0.00000  Uiso   1.00
H986   H     0.38800   0.70907   0.56555   0.00000  Uiso   1.00
C987   C     0.84858   0.93156   0.74874   0.00000  Uiso   1.00
C988   C     0.81808   0.73511   0.75126   0.00000  Uiso   1.00
C989   C     0.87625   0.92519   0.97981   0.00000  Uiso   1.00
C990   C     0.79042   0.74147   0.52019   0.00000  Uiso   1.00
C991   C     0.85662   0.98608   0.74811   0.00000  Uiso   1.00
C992   C     0.81004   0.68059   0.75189   0.00000  Uiso   1.00
C993   C     0.83424   0.83414   0.83628   0.00000  Uiso   1.00
C994   C     0.83242   0.83253   0.66372   0.00000  Uiso   1.00
C995   C     0.81735   0.78309   0.59327   0.00000  Uiso   1.00
C996   C     0.84931   0.88358   0.90673   0.00000  Uiso   1.00
C997   C     0.83043   0.83041   0.61619   0.00000  Uiso   1.00
C998   C     0.83623   0.83626   0.88381   0.00000  Uiso   1.00
C999   C     0.84474   0.87676   0.59421   0.00000  Uiso   1.00
C1000  C     0.82193   0.78990   0.90579   0.00000  Uiso   1.00
C1001  C     0.84829   0.87745   0.54801   0.00000  Uiso   1.00
C1002  C     0.81838   0.78921   0.95199   0.00000  Uiso   1.00
C1003  C     0.83188   0.83212   0.52352   0.00000  Uiso   1.00
C1004  C     0.83479   0.83455   0.97648   0.00000  Uiso   1.00
C1005  C     0.81262   0.78466   0.54609   0.00000  Uiso   1.00
C1006  C     0.85405   0.88201   0.95391   0.00000  Uiso   1.00
C1007  C     0.87032   0.92279   0.52651   0.00000  Uiso   1.00
C1008  C     0.79634   0.74387   0.97349   0.00000  Uiso   1.00
H1009  H     0.85600   0.91198   0.61340   0.00000  Uiso   1.00
H1010  H     0.81067   0.75469   0.88660   0.00000  Uiso   1.00
H1011  H     0.88527   0.95612   0.54652   0.00000  Uiso   1.00
H1012  H     0.78139   0.71054   0.95348   0.00000  Uiso   1.00
H1013  H     0.90061   0.66977   0.74458   0.00000  Uiso   1.00
H1014  H     0.76606   0.99690   0.75542   0.00000  Uiso   1.00
H1015  H     0.67121   0.79416   0.71601   0.00000  Uiso   1.00
H1016  H     0.99546   0.87251   0.78399   0.00000  Uiso   1.00
N1017  N     0.98344   0.81932   0.73783   0.00000  Uiso   1.00
N1018  N     0.68322   0.84735   0.76217   0.00000  Uiso   1.00
O1019  O     0.79642   0.91286   0.75299   0.00000  Uiso   1.00
O1020  O     0.87025   0.75381   0.74702   0.00000  Uiso   1.00
O1021  O     0.89280   0.90387   0.74519   0.00000  Uiso   1.00
O1022  O     0.77387   0.76279   0.75482   0.00000  Uiso   1.00
O1023  O     0.78514   0.83784   0.81998   0.00000  Uiso   1.00
O1024  O     0.88153   0.82883   0.68003   0.00000  Uiso   1.00
O1025  O     0.88152   0.82885   0.81218   0.00000  Uiso   1.00
O1026  O     0.78515   0.83781   0.68783   0.00000  Uiso   1.00
Zn1027 Zn    0.76898   0.83933   0.75521   0.00000  Uiso   1.00
Zn1028 Zn    0.89769   0.82734   0.74479   0.00000  Uiso   1.00
C1029  C     0.81685   0.73203   0.61841   0.00000  Uiso   1.00
H1030  H     0.83804   0.73626   0.65050   0.00000  Uiso   1.00
H1031  H     0.77219   0.71620   0.62695   0.00000  Uiso   1.00
H1032  H     0.84248   0.70366   0.59841   0.00000  Uiso   1.00
C1033  C     0.84982   0.93463   0.88159   0.00000  Uiso   1.00
H1034  H     0.82863   0.93041   0.84950   0.00000  Uiso   1.00
H1035  H     0.82419   0.96301   0.90159   0.00000  Uiso   1.00
H1036  H     0.89447   0.95046   0.87305   0.00000  Uiso   1.00
C1037  C     0.91287   0.97125   0.96032   0.00000  Uiso   1.00
H1038  H     0.93788   0.99219   0.98631   0.00000  Uiso   1.00
H1039  H     0.94534   0.95759   0.93445   0.00000  Uiso   1.00
H1040  H     0.88603   0.66714   0.94676   0.00000  Uiso   1.00
C1041  C     0.75380   0.69542   0.53968   0.00000  Uiso   1.00
H1042  H     0.72879   0.67448   0.51369   0.00000  Uiso   1.00
H1043  H     0.78064   0.99953   0.55324   0.00000  Uiso   1.00
H1044  H     0.72133   0.70907   0.56555   0.00000  Uiso   1.00
loop_
_geom_bond_atom_site_label_1
_geom_bond_atom_site_label_2
_geom_bond_distance
_geom_bond_site_symmetry_2
_ccdc_geom_bond_type
C1     O33     1.278   .     A
C1     O35     1.286   .     A
C1     C5      1.399   .     S
C2     O34     1.278   .     A
C2     C6      1.399   .     S
C2     O36     1.286   .     A
C3     C20     1.428   .     A
C3     C51     1.513   .     S
C3     C543    1.391   .     S
C4     C19     1.428   .     A
C4     C55     1.513   .     S
C4     C544    1.391   1_554 S
C5     C180    1.335   .     S
C5     H201    1.088   .     S
C6     C353    1.335   1_545 S
C6     H376    1.088   1_545 S
C7     O37     1.285   .     A
C7     C12     1.420   .     S
C7     O39     1.286   .     A
C8     O38     1.285   .     A
C8     C11     1.420   .     S
C8     O40     1.286   .     A
C9     C11     1.408   .     A
C9     C43     1.521   .     S
C9     C19     1.419   .     A
C10    C12     1.408   .     A
C10    C47     1.521   .     S
C10    C20     1.419   .     A
C11    C13     1.380   .     A
C12    C14     1.380   .     A
C13    C15     1.373   .     A
C13    H23     1.087   .     S
C14    C16     1.373   .     A
C14    H24     1.087   .     S
C15    C21     1.391   .     A
C15    C17     1.407   .     A
C16    C22     1.391   .     A
C16    C18     1.407   .     A
C17    C19     1.434   .     A
C17    C540    1.400   1_554 S
C18    C20     1.434   .     A
C18    C539    1.400   .     S
C21    H25     1.086   .     S
C21    C525    1.391   1_554 S
C22    H26     1.086   .     S
C22    C526    1.391   .     S
H27    C353    1.088   1_545 S
H28    C180    1.088   .     S
H29    N147    1.029   1_455 S
H30    N90     1.029   .     S
N31    Zn42    2.019   .     S
N31    H87     1.029   .     S
N31    N90     1.275   .     S
N32    Zn41    2.019   .     S
N32    H146    1.029   1_455 S
N32    N147    1.275   1_455 S
O33    Zn41    1.953   .     S
O34    Zn42    1.953   .     S
O35    Zn42    1.974   .     S
O36    Zn41    1.974   .     S
O37    Zn41    1.994   .     S
O38    Zn42    1.994   .     S
O39    Zn42    2.016   .     S
O40    Zn41    2.016   .     S
C43    H45     1.108   .     S
C43    H44     1.107   .     S
C43    H46     1.109   .     S
C47    H48     1.107   .     S
C47    H50     1.108   .     S
C47    H49     1.109   .     S
C51    H52     1.112   .     S
C51    H53     1.109   .     S
C51    H228    1.107   .     S
H54    C399    1.107   1_545 S
C55    H56     1.112   .     S
C55    H58     1.109   .     S
C55    H405    1.107   1_545 S
H57    C229    1.107   .     S
C59    O91     1.278   .     A
C59    O93     1.286   .     A
C59    C63     1.399   .     S
C60    O92     1.278   .     A
C60    C64     1.399   .     S
C60    O94     1.286   .     A
C61    C78     1.428   .     A
C61    C109    1.513   .     S
C61    C601    1.391   .     S
C62    C77     1.428   .     A
C62    C113    1.513   .     S
C62    C602    1.391   1_554 S
C63    C238    1.335   .     S
C63    H259    1.088   .     S
C64    C411    1.335   1_545 S
C64    H434    1.088   1_545 S
C65    O95     1.285   .     A
C65    C70     1.420   .     S
C65    O97     1.286   .     A
C66    O96     1.285   .     A
C66    C69     1.420   .     S
C66    O98     1.286   .     A
C67    C69     1.408   .     A
C67    C101    1.521   .     S
C67    C77     1.419   .     A
C68    C70     1.408   .     A
C68    C105    1.521   .     S
C68    C78     1.419   .     A
C69    C71     1.380   .     A
C70    C72     1.380   .     A
C71    C73     1.373   .     A
C71    H81     1.087   .     S
C72    C74     1.373   .     A
C72    H82     1.087   .     S
C73    C79     1.391   .     A
C73    C75     1.407   .     A
C74    C80     1.391   .     A
C74    C76     1.407   .     A
C75    C77     1.434   .     A
C75    C598    1.400   1_554 S
C76    C78     1.434   .     A
C76    C597    1.400   .     S
C79    H83     1.086   .     S
C79    C583    1.391   1_554 S
C80    H84     1.086   .     S
C80    C584    1.391   .     S
H85    C411    1.088   1_545 S
H86    C238    1.088   .     S
H88    N148    1.029   .     S
N89    Zn100   2.019   .     S
N89    H145    1.029   .     S
N89    N148    1.275   .     S
N90    Zn99    2.019   .     S
O91    Zn99    1.953   .     S
O92    Zn100   1.953   .     S
O93    Zn100   1.974   .     S
O94    Zn99    1.974   .     S
O95    Zn99    1.994   .     S
O96    Zn100   1.994   .     S
O97    Zn100   2.016   .     S
O98    Zn99    2.016   .     S
C101   H103    1.108   .     S
C101   H102    1.107   .     S
C101   H104    1.109   .     S
C105   H106    1.107   .     S
C105   H108    1.108   .     S
C105   H107    1.109   .     S
C109   H110    1.112   .     S
C109   H111    1.109   .     S
C109   H286    1.107   .     S
H112   C457    1.107   1_545 S
C113   H114    1.112   .     S
C113   H116    1.109   .     S
C113   H463    1.107   1_545 S
H115   C287    1.107   .     S
C117   O149    1.278   .     A
C117   O151    1.286   .     A
C117   C121    1.399   .     S
C118   O150    1.278   .     A
C118   C122    1.399   .     S
C118   O152    1.286   .     A
C119   C136    1.428   .     A
C119   C167    1.513   .     S
C119   C659    1.391   .     S
C120   C135    1.428   .     A
C120   C171    1.513   .     S
C120   C660    1.391   1_554 S
C121   C296    1.335   .     S
C121   H317    1.088   .     S
C122   C469    1.335   1_545 S
C122   H492    1.088   1_545 S
C123   O153    1.285   .     A
C123   C128    1.420   .     S
C123   O155    1.286   .     A
C124   O154    1.285   .     A
C124   C127    1.420   .     S
C124   O156    1.286   .     A
C125   C127    1.408   .     A
C125   C159    1.521   .     S
C125   C135    1.419   .     A
C126   C128    1.408   .     A
C126   C163    1.521   .     S
C126   C136    1.419   .     A
C127   C129    1.380   .     A
C128   C130    1.380   .     A
C129   C131    1.373   .     A
C129   H139    1.087   .     S
C130   C132    1.373   .     A
C130   H140    1.087   .     S
C131   C137    1.391   .     A
C131   C133    1.407   .     A
C132   C138    1.391   .     A
C132   C134    1.407   .     A
C133   C135    1.434   .     A
C133   C656    1.400   1_554 S
C134   C136    1.434   .     A
C134   C655    1.400   .     S
C137   H141    1.086   .     S
C137   C641    1.391   1_554 S
C138   H142    1.086   .     S
C138   C642    1.391   .     S
H143   C469    1.088   1_545 S
H144   C296    1.088   .     S
H146   N32     1.029   1_655 S
N147   Zn158   2.019   .     S
N147   H29     1.029   1_655 S
N147   N32     1.275   1_655 S
N148   Zn157   2.019   .     S
O149   Zn157   1.953   .     S
O150   Zn158   1.953   .     S
O151   Zn158   1.974   .     S
O152   Zn157   1.974   .     S
O153   Zn157   1.994   .     S
O154   Zn158   1.994   .     S
O155   Zn158   2.016   .     S
O156   Zn157   2.016   .     S
C159   H161    1.108   .     S
C159   H160    1.107   .     S
C159   H162    1.109   .     S
C163   H164    1.107   .     S
C163   H166    1.108   .     S
C163   H165    1.109   .     S
C167   H168    1.112   .     S
C167   H169    1.109   .     S
C167   H344    1.107   .     S
H170   C515    1.107   1_545 S
C171   H172    1.112   .     S
C171   H174    1.109   .     S
C171   H521    1.107   1_545 S
H173   C345    1.107   .     S
C175   O207    1.278   .     A
C175   O209    1.286   .     A
C175   C179    1.399   .     S
C176   O208    1.278   .     A
C176   C180    1.399   .     S
C176   O210    1.286   .     A
C177   C194    1.428   .     A
C177   C225    1.513   .     S
C177   C717    1.391   .     S
C178   C193    1.428   .     A
C178   C229    1.513   .     S
C178   C718    1.391   1_554 S
C179   C354    1.335   .     S
C179   H375    1.088   .     S
C181   O211    1.285   .     A
C181   C186    1.420   .     S
C181   O213    1.286   .     A
C182   O212    1.285   .     A
C182   C185    1.420   .     S
C182   O214    1.286   .     A
C183   C185    1.408   .     A
C183   C217    1.521   .     S
C183   C193    1.419   .     A
C184   C186    1.408   .     A
C184   C221    1.521   .     S
C184   C194    1.419   .     A
C185   C187    1.380   .     A
C186   C188    1.380   .     A
C187   C189    1.373   .     A
C187   H197    1.087   .     S
C188   C190    1.373   .     A
C188   H198    1.087   .     S
C189   C195    1.391   .     A
C189   C191    1.407   .     A
C190   C196    1.391   .     A
C190   C192    1.407   .     A
C191   C193    1.434   .     A
C191   C714    1.400   1_554 S
C192   C194    1.434   .     A
C192   C713    1.400   .     S
C195   H199    1.086   .     S
C195   C699    1.391   1_554 S
C196   H200    1.086   .     S
C196   C700    1.391   .     S
H202   C354    1.088   .     S
H203   N321    1.029   1_455 S
H204   N264    1.029   .     S
N205   Zn216   2.019   .     S
N205   H261    1.029   .     S
N205   N264    1.275   .     S
N206   Zn215   2.019   .     S
N206   H320    1.029   1_455 S
N206   N321    1.275   1_455 S
O207   Zn215   1.953   .     S
O208   Zn216   1.953   .     S
O209   Zn216   1.974   .     S
O210   Zn215   1.974   .     S
O211   Zn215   1.994   .     S
O212   Zn216   1.994   .     S
O213   Zn216   2.016   .     S
O214   Zn215   2.016   .     S
C217   H219    1.108   .     S
C217   H218    1.107   .     S
C217   H220    1.109   .     S
C221   H222    1.107   .     S
C221   H224    1.108   .     S
C221   H223    1.109   .     S
C225   H226    1.112   .     S
C225   H227    1.109   .     S
C225   H402    1.107   .     S
C229   H230    1.112   .     S
C229   H232    1.109   .     S
H231   C403    1.107   .     S
C233   O265    1.278   .     A
C233   O267    1.286   .     A
C233   C237    1.399   .     S
C234   O266    1.278   .     A
C234   C238    1.399   .     S
C234   O268    1.286   .     A
C235   C252    1.428   .     A
C235   C283    1.513   .     S
C235   C775    1.391   .     S
C236   C251    1.428   .     A
C236   C287    1.513   .     S
C236   C776    1.391   1_554 S
C237   C412    1.335   .     S
C237   H433    1.088   .     S
C239   O269    1.285   .     A
C239   C244    1.420   .     S
C239   O271    1.286   .     A
C240   O270    1.285   .     A
C240   C243    1.420   .     S
C240   O272    1.286   .     A
C241   C243    1.408   .     A
C241   C275    1.521   .     S
C241   C251    1.419   .     A
C242   C244    1.408   .     A
C242   C279    1.521   .     S
C242   C252    1.419   .     A
C243   C245    1.380   .     A
C244   C246    1.380   .     A
C245   C247    1.373   .     A
C245   H255    1.087   .     S
C246   C248    1.373   .     A
C246   H256    1.087   .     S
C247   C253    1.391   .     A
C247   C249    1.407   .     A
C248   C254    1.391   .     A
C248   C250    1.407   .     A
C249   C251    1.434   .     A
C249   C772    1.400   1_554 S
C250   C252    1.434   .     A
C250   C771    1.400   .     S
C253   H257    1.086   .     S
C253   C757    1.391   1_554 S
C254   H258    1.086   .     S
C254   C758    1.391   .     S
H260   C412    1.088   .     S
H262   N322    1.029   .     S
N263   Zn274   2.019   .     S
N263   H319    1.029   .     S
N263   N322    1.275   .     S
N264   Zn273   2.019   .     S
O265   Zn273   1.953   .     S
O266   Zn274   1.953   .     S
O267   Zn274   1.974   .     S
O268   Zn273   1.974   .     S
O269   Zn273   1.994   .     S
O270   Zn274   1.994   .     S
O271   Zn274   2.016   .     S
O272   Zn273   2.016   .     S
C275   H277    1.108   .     S
C275   H276    1.107   .     S
C275   H278    1.109   .     S
C279   H280    1.107   .     S
C279   H282    1.108   .     S
C279   H281    1.109   .     S
C283   H284    1.112   .     S
C283   H285    1.109   .     S
C283   H460    1.107   .     S
C287   H288    1.112   .     S
C287   H290    1.109   .     S
H289   C461    1.107   .     S
C291   O323    1.278   .     A
C291   O325    1.286   .     A
C291   C295    1.399   .     S
C292   O324    1.278   .     A
C292   C296    1.399   .     S
C292   O326    1.286   .     A
C293   C310    1.428   .     A
C293   C341    1.513   .     S
C293   C833    1.391   .     S
C294   C309    1.428   .     A
C294   C345    1.513   .     S
C294   C834    1.391   1_554 S
C295   C470    1.335   .     S
C295   H491    1.088   .     S
C297   O327    1.285   .     A
C297   C302    1.420   .     S
C297   O329    1.286   .     A
C298   O328    1.285   .     A
C298   C301    1.420   .     S
C298   O330    1.286   .     A
C299   C301    1.408   .     A
C299   C333    1.521   .     S
C299   C309    1.419   .     A
C300   C302    1.408   .     A
C300   C337    1.521   .     S
C300   C310    1.419   .     A
C301   C303    1.380   .     A
C302   C304    1.380   .     A
C303   C305    1.373   .     A
C303   H313    1.087   .     S
C304   C306    1.373   .     A
C304   H314    1.087   .     S
C305   C311    1.391   .     A
C305   C307    1.407   .     A
C306   C312    1.391   .     A
C306   C308    1.407   .     A
C307   C309    1.434   .     A
C307   C830    1.400   1_554 S
C308   C310    1.434   .     A
C308   C829    1.400   .     S
C311   H315    1.086   .     S
C311   C815    1.391   1_554 S
C312   H316    1.086   .     S
C312   C816    1.391   .     S
H318   C470    1.088   .     S
H320   N206    1.029   1_655 S
N321   Zn332   2.019   .     S
N321   H203    1.029   1_655 S
N321   N206    1.275   1_655 S
N322   Zn331   2.019   .     S
O323   Zn331   1.953   .     S
O324   Zn332   1.953   .     S
O325   Zn332   1.974   .     S
O326   Zn331   1.974   .     S
O327   Zn331   1.994   .     S
O328   Zn332   1.994   .     S
O329   Zn332   2.016   .     S
O330   Zn331   2.016   .     S
C333   H335    1.108   .     S
C333   H334    1.107   .     S
C333   H336    1.109   .     S
C337   H338    1.107   .     S
C337   H340    1.108   .     S
C337   H339    1.109   .     S
C341   H342    1.112   .     S
C341   H343    1.109   .     S
C341   H518    1.107   .     S
C345   H346    1.112   .     S
C345   H348    1.109   .     S
H347   C519    1.107   .     S
C349   O381    1.278   .     A
C349   O383    1.286   .     A
C349   C353    1.399   .     S
C350   O382    1.278   .     A
C350   C354    1.399   .     S
C350   O384    1.286   .     A
C351   C368    1.428   .     A
C351   C399    1.513   .     S
C351   C891    1.391   .     S
C352   C367    1.428   .     A
C352   C403    1.513   .     S
C352   C892    1.391   1_554 S
C353   C6      1.335   1_565 S
C353   H27     1.088   1_565 S
C355   O385    1.285   .     A
C355   C360    1.420   .     S
C355   O387    1.286   .     A
C356   O386    1.285   .     A
C356   C359    1.420   .     S
C356   O388    1.286   .     A
C357   C359    1.408   .     A
C357   C391    1.521   .     S
C357   C367    1.419   .     A
C358   C360    1.408   .     A
C358   C395    1.521   .     S
C358   C368    1.419   .     A
C359   C361    1.380   .     A
C360   C362    1.380   .     A
C361   C363    1.373   .     A
C361   H371    1.087   .     S
C362   C364    1.373   .     A
C362   H372    1.087   .     S
C363   C369    1.391   .     A
C363   C365    1.407   .     A
C364   C370    1.391   .     A
C364   C366    1.407   .     A
C365   C367    1.434   .     A
C365   C888    1.400   1_554 S
C366   C368    1.434   .     A
C366   C887    1.400   .     S
C369   H373    1.086   .     S
C369   C873    1.391   1_554 S
C370   H374    1.086   .     S
C370   C874    1.391   .     S
H376   C6      1.088   1_565 S
H377   N495    1.029   1_455 S
H378   N438    1.029   .     S
N379   Zn390   2.019   .     S
N379   H435    1.029   .     S
N379   N438    1.275   .     S
N380   Zn389   2.019   .     S
N380   H494    1.029   1_455 S
N380   N495    1.275   1_455 S
O381   Zn389   1.953   .     S
O382   Zn390   1.953   .     S
O383   Zn390   1.974   .     S
O384   Zn389   1.974   .     S
O385   Zn389   1.994   .     S
O386   Zn390   1.994   .     S
O387   Zn390   2.016   .     S
O388   Zn389   2.016   .     S
C391   H393    1.108   .     S
C391   H392    1.107   .     S
C391   H394    1.109   .     S
C395   H396    1.107   .     S
C395   H398    1.108   .     S
C395   H397    1.109   .     S
C399   H400    1.112   .     S
C399   H401    1.109   .     S
C399   H54     1.107   1_565 S
C403   H404    1.112   .     S
C403   H406    1.109   .     S
H405   C55     1.107   1_565 S
C407   O439    1.278   .     A
C407   O441    1.286   .     A
C407   C411    1.399   .     S
C408   O440    1.278   .     A
C408   C412    1.399   .     S
C408   O442    1.286   .     A
C409   C426    1.428   .     A
C409   C457    1.513   .     S
C409   C949    1.391   .     S
C410   C425    1.428   .     A
C410   C461    1.513   .     S
C410   C950    1.391   1_554 S
C411   C64     1.335   1_565 S
C411   H85     1.088   1_565 S
C413   O443    1.285   .     A
C413   C418    1.420   .     S
C413   O445    1.286   .     A
C414   O444    1.285   .     A
C414   C417    1.420   .     S
C414   O446    1.286   .     A
C415   C417    1.408   .     A
C415   C449    1.521   .     S
C415   C425    1.419   .     A
C416   C418    1.408   .     A
C416   C453    1.521   .     S
C416   C426    1.419   .     A
C417   C419    1.380   .     A
C418   C420    1.380   .     A
C419   C421    1.373   .     A
C419   H429    1.087   .     S
C420   C422    1.373   .     A
C420   H430    1.087   .     S
C421   C427    1.391   .     A
C421   C423    1.407   .     A
C422   C428    1.391   .     A
C422   C424    1.407   .     A
C423   C425    1.434   .     A
C423   C946    1.400   1_554 S
C424   C426    1.434   .     A
C424   C945    1.400   .     S
C427   H431    1.086   .     S
C427   C931    1.391   1_554 S
C428   H432    1.086   .     S
C428   C932    1.391   .     S
H434   C64     1.088   1_565 S
H436   N496    1.029   .     S
N437   Zn448   2.019   .     S
N437   H493    1.029   .     S
N437   N496    1.275   .     S
N438   Zn447   2.019   .     S
O439   Zn447   1.953   .     S
O440   Zn448   1.953   .     S
O441   Zn448   1.974   .     S
O442   Zn447   1.974   .     S
O443   Zn447   1.994   .     S
O444   Zn448   1.994   .     S
O445   Zn448   2.016   .     S
O446   Zn447   2.016   .     S
C449   H451    1.108   .     S
C449   H450    1.107   .     S
C449   H452    1.109   .     S
C453   H454    1.107   .     S
C453   H456    1.108   .     S
C453   H455    1.109   .     S
C457   H458    1.112   .     S
C457   H459    1.109   .     S
C457   H112    1.107   1_565 S
C461   H462    1.112   .     S
C461   H464    1.109   .     S
H463   C113    1.107   1_565 S
C465   O497    1.278   .     A
C465   O499    1.286   .     A
C465   C469    1.399   .     S
C466   O498    1.278   .     A
C466   C470    1.399   .     S
C466   O500    1.286   .     A
C467   C484    1.428   .     A
C467   C515    1.513   .     S
C467   C1007   1.391   .     S
C468   C483    1.428   .     A
C468   C519    1.513   .     S
C468   C1008   1.391   1_554 S
C469   C122    1.335   1_565 S
C469   H143    1.088   1_565 S
C471   O501    1.285   .     A
C471   C476    1.420   .     S
C471   O503    1.286   .     A
C472   O502    1.285   .     A
C472   C475    1.420   .     S
C472   O504    1.286   .     A
C473   C475    1.408   .     A
C473   C507    1.521   .     S
C473   C483    1.419   .     A
C474   C476    1.408   .     A
C474   C511    1.521   .     S
C474   C484    1.419   .     A
C475   C477    1.380   .     A
C476   C478    1.380   .     A
C477   C479    1.373   .     A
C477   H487    1.087   .     S
C478   C480    1.373   .     A
C478   H488    1.087   .     S
C479   C485    1.391   .     A
C479   C481    1.407   .     A
C480   C486    1.391   .     A
C480   C482    1.407   .     A
C481   C483    1.434   .     A
C481   C1004   1.400   1_554 S
C482   C484    1.434   .     A
C482   C1003   1.400   .     S
C485   H489    1.086   .     S
C485   C989    1.391   1_554 S
C486   H490    1.086   .     S
C486   C990    1.391   .     S
H492   C122    1.088   1_565 S
H494   N380    1.029   1_655 S
N495   Zn506   2.019   .     S
N495   H377    1.029   1_655 S
N495   N380    1.275   1_655 S
N496   Zn505   2.019   .     S
O497   Zn505   1.953   .     S
O498   Zn506   1.953   .     S
O499   Zn506   1.974   .     S
O500   Zn505   1.974   .     S
O501   Zn505   1.994   .     S
O502   Zn506   1.994   .     S
O503   Zn506   2.016   .     S
O504   Zn505   2.016   .     S
C507   H509    1.108   .     S
C507   H508    1.107   .     S
C507   H510    1.109   .     S
C511   H512    1.107   .     S
C511   H514    1.108   .     S
C511   H513    1.109   .     S
C515   H516    1.112   .     S
C515   H517    1.109   .     S
C515   H170    1.107   1_565 S
C519   H520    1.112   .     S
C519   H522    1.109   .     S
H521   C171    1.107   1_565 S
C523   O555    1.278   .     A
C523   O557    1.286   .     A
C523   C527    1.399   .     S
C524   O556    1.278   .     A
C524   C528    1.399   .     S
C524   O558    1.286   .     A
C525   C542    1.428   .     A
C525   C573    1.513   .     S
C525   C21     1.391   1_556 S
C526   C541    1.428   .     A
C526   C577    1.513   .     S
C527   C702    1.335   .     S
C527   H723    1.088   .     S
C528   C875    1.335   1_545 S
C528   H898    1.088   1_545 S
C529   O559    1.285   .     A
C529   C534    1.420   .     S
C529   O561    1.286   .     A
C530   O560    1.285   .     A
C530   C533    1.420   .     S
C530   O562    1.286   .     A
C531   C533    1.408   .     A
C531   C565    1.521   .     S
C531   C541    1.419   .     A
C532   C534    1.408   .     A
C532   C569    1.521   .     S
C532   C542    1.419   .     A
C533   C535    1.380   .     A
C534   C536    1.380   .     A
C535   C537    1.373   .     A
C535   H545    1.087   .     S
C536   C538    1.373   .     A
C536   H546    1.087   .     S
C537   C543    1.391   .     A
C537   C539    1.407   .     A
C538   C544    1.391   .     A
C538   C540    1.407   .     A
C539   C541    1.434   .     A
C540   C542    1.434   .     A
C540   C17     1.400   1_556 S
C543   H547    1.086   .     S
C544   H548    1.086   .     S
C544   C4      1.391   1_556 S
H549   C875    1.088   1_545 S
H550   C702    1.088   .     S
H551   N669    1.029   1_455 S
H552   N612    1.029   .     S
N553   Zn564   2.019   .     S
N553   H609    1.029   .     S
N553   N612    1.275   .     S
N554   Zn563   2.019   .     S
N554   H668    1.029   1_455 S
N554   N669    1.275   1_455 S
O555   Zn563   1.953   .     S
O556   Zn564   1.953   .     S
O557   Zn564   1.974   .     S
O558   Zn563   1.974   .     S
O559   Zn563   1.994   .     S
O560   Zn564   1.994   .     S
O561   Zn564   2.016   .     S
O562   Zn563   2.016   .     S
C565   H567    1.108   .     S
C565   H566    1.107   .     S
C565   H568    1.109   .     S
C569   H570    1.107   .     S
C569   H572    1.108   .     S
C569   H571    1.109   .     S
C573   H574    1.112   .     S
C573   H575    1.109   .     S
C573   H750    1.107   .     S
H576   C921    1.107   1_545 S
C577   H578    1.112   .     S
C577   H580    1.109   .     S
C577   H927    1.107   1_545 S
H579   C751    1.107   .     S
C581   O613    1.278   .     A
C581   O615    1.286   .     A
C581   C585    1.399   .     S
C582   O614    1.278   .     A
C582   C586    1.399   .     S
C582   O616    1.286   .     A
C583   C600    1.428   .     A
C583   C631    1.513   .     S
C583   C79     1.391   1_556 S
C584   C599    1.428   .     A
C584   C635    1.513   .     S
C585   C760    1.335   .     S
C585   H781    1.088   .     S
C586   C933    1.335   1_545 S
C586   H956    1.088   1_545 S
C587   O617    1.285   .     A
C587   C592    1.420   .     S
C587   O619    1.286   .     A
C588   O618    1.285   .     A
C588   C591    1.420   .     S
C588   O620    1.286   .     A
C589   C591    1.408   .     A
C589   C623    1.521   .     S
C589   C599    1.419   .     A
C590   C592    1.408   .     A
C590   C627    1.521   .     S
C590   C600    1.419   .     A
C591   C593    1.380   .     A
C592   C594    1.380   .     A
C593   C595    1.373   .     A
C593   H603    1.087   .     S
C594   C596    1.373   .     A
C594   H604    1.087   .     S
C595   C601    1.391   .     A
C595   C597    1.407   .     A
C596   C602    1.391   .     A
C596   C598    1.407   .     A
C597   C599    1.434   .     A
C598   C600    1.434   .     A
C598   C75     1.400   1_556 S
C601   H605    1.086   .     S
C602   H606    1.086   .     S
C602   C62     1.391   1_556 S
H607   C933    1.088   1_545 S
H608   C760    1.088   .     S
H610   N670    1.029   .     S
N611   Zn622   2.019   .     S
N611   H667    1.029   .     S
N611   N670    1.275   .     S
N612   Zn621   2.019   .     S
O613   Zn621   1.953   .     S
O614   Zn622   1.953   .     S
O615   Zn622   1.974   .     S
O616   Zn621   1.974   .     S
O617   Zn621   1.994   .     S
O618   Zn622   1.994   .     S
O619   Zn622   2.016   .     S
O620   Zn621   2.016   .     S
C623   H625    1.108   .     S
C623   H624    1.107   .     S
C623   H626    1.109   .     S
C627   H628    1.107   .     S
C627   H630    1.108   .     S
C627   H629    1.109   .     S
C631   H632    1.112   .     S
C631   H633    1.109   .     S
C631   H808    1.107   .     S
H634   C979    1.107   1_545 S
C635   H636    1.112   .     S
C635   H638    1.109   .     S
C635   H985    1.107   1_545 S
H637   C809    1.107   .     S
C639   O671    1.278   .     A
C639   O673    1.286   .     A
C639   C643    1.399   .     S
C640   O672    1.278   .     A
C640   C644    1.399   .     S
C640   O674    1.286   .     A
C641   C658    1.428   .     A
C641   C689    1.513   .     S
C641   C137    1.391   1_556 S
C642   C657    1.428   .     A
C642   C693    1.513   .     S
C643   C818    1.335   .     S
C643   H839    1.088   .     S
C644   C991    1.335   1_545 S
C644   H1014   1.088   1_545 S
C645   O675    1.285   .     A
C645   C650    1.420   .     S
C645   O677    1.286   .     A
C646   O676    1.285   .     A
C646   C649    1.420   .     S
C646   O678    1.286   .     A
C647   C649    1.408   .     A
C647   C681    1.521   .     S
C647   C657    1.419   .     A
C648   C650    1.408   .     A
C648   C685    1.521   .     S
C648   C658    1.419   .     A
C649   C651    1.380   .     A
C650   C652    1.380   .     A
C651   C653    1.373   .     A
C651   H661    1.087   .     S
C652   C654    1.373   .     A
C652   H662    1.087   .     S
C653   C659    1.391   .     A
C653   C655    1.407   .     A
C654   C660    1.391   .     A
C654   C656    1.407   .     A
C655   C657    1.434   .     A
C656   C658    1.434   .     A
C656   C133    1.400   1_556 S
C659   H663    1.086   .     S
C660   H664    1.086   .     S
C660   C120    1.391   1_556 S
H665   C991    1.088   1_545 S
H666   C818    1.088   .     S
H668   N554    1.029   1_655 S
N669   Zn680   2.019   .     S
N669   H551    1.029   1_655 S
N669   N554    1.275   1_655 S
N670   Zn679   2.019   .     S
O671   Zn679   1.953   .     S
O672   Zn680   1.953   .     S
O673   Zn680   1.974   .     S
O674   Zn679   1.974   .     S
O675   Zn679   1.994   .     S
O676   Zn680   1.994   .     S
O677   Zn680   2.016   .     S
O678   Zn679   2.016   .     S
C681   H683    1.108   .     S
C681   H682    1.107   .     S
C681   H684    1.109   .     S
C685   H686    1.107   .     S
C685   H688    1.108   .     S
C685   H687    1.109   .     S
C689   H690    1.112   .     S
C689   H691    1.109   .     S
C689   H866    1.107   .     S
H692   C1037   1.107   1_545 S
C693   H694    1.112   .     S
C693   H696    1.109   .     S
C693   H1043   1.107   1_545 S
H695   C867    1.107   .     S
C697   O729    1.278   .     A
C697   O731    1.286   .     A
C697   C701    1.399   .     S
C698   O730    1.278   .     A
C698   C702    1.399   .     S
C698   O732    1.286   .     A
C699   C716    1.428   .     A
C699   C747    1.513   .     S
C699   C195    1.391   1_556 S
C700   C715    1.428   .     A
C700   C751    1.513   .     S
C701   C876    1.335   .     S
C701   H897    1.088   .     S
C703   O733    1.285   .     A
C703   C708    1.420   .     S
C703   O735    1.286   .     A
C704   O734    1.285   .     A
C704   C707    1.420   .     S
C704   O736    1.286   .     A
C705   C707    1.408   .     A
C705   C739    1.521   .     S
C705   C715    1.419   .     A
C706   C708    1.408   .     A
C706   C743    1.521   .     S
C706   C716    1.419   .     A
C707   C709    1.380   .     A
C708   C710    1.380   .     A
C709   C711    1.373   .     A
C709   H719    1.087   .     S
C710   C712    1.373   .     A
C710   H720    1.087   .     S
C711   C717    1.391   .     A
C711   C713    1.407   .     A
C712   C718    1.391   .     A
C712   C714    1.407   .     A
C713   C715    1.434   .     A
C714   C716    1.434   .     A
C714   C191    1.400   1_556 S
C717   H721    1.086   .     S
C718   H722    1.086   .     S
C718   C178    1.391   1_556 S
H724   C876    1.088   .     S
H725   N843    1.029   1_455 S
H726   N786    1.029   .     S
N727   Zn738   2.019   .     S
N727   H783    1.029   .     S
N727   N786    1.275   .     S
N728   Zn737   2.019   .     S
N728   H842    1.029   1_455 S
N728   N843    1.275   1_455 S
O729   Zn737   1.953   .     S
O730   Zn738   1.953   .     S
O731   Zn738   1.974   .     S
O732   Zn737   1.974   .     S
O733   Zn737   1.994   .     S
O734   Zn738   1.994   .     S
O735   Zn738   2.016   .     S
O736   Zn737   2.016   .     S
C739   H741    1.108   .     S
C739   H740    1.107   .     S
C739   H742    1.109   .     S
C743   H744    1.107   .     S
C743   H746    1.108   .     S
C743   H745    1.109   .     S
C747   H748    1.112   .     S
C747   H749    1.109   .     S
C747   H924    1.107   .     S
C751   H752    1.112   .     S
C751   H754    1.109   .     S
H753   C925    1.107   .     S
C755   O787    1.278   .     A
C755   O789    1.286   .     A
C755   C759    1.399   .     S
C756   O788    1.278   .     A
C756   C760    1.399   .     S
C756   O790    1.286   .     A
C757   C774    1.428   .     A
C757   C805    1.513   .     S
C757   C253    1.391   1_556 S
C758   C773    1.428   .     A
C758   C809    1.513   .     S
C759   C934    1.335   .     S
C759   H955    1.088   .     S
C761   O791    1.285   .     A
C761   C766    1.420   .     S
C761   O793    1.286   .     A
C762   O792    1.285   .     A
C762   C765    1.420   .     S
C762   O794    1.286   .     A
C763   C765    1.408   .     A
C763   C797    1.521   .     S
C763   C773    1.419   .     A
C764   C766    1.408   .     A
C764   C801    1.521   .     S
C764   C774    1.419   .     A
C765   C767    1.380   .     A
C766   C768    1.380   .     A
C767   C769    1.373   .     A
C767   H777    1.087   .     S
C768   C770    1.373   .     A
C768   H778    1.087   .     S
C769   C775    1.391   .     A
C769   C771    1.407   .     A
C770   C776    1.391   .     A
C770   C772    1.407   .     A
C771   C773    1.434   .     A
C772   C774    1.434   .     A
C772   C249    1.400   1_556 S
C775   H779    1.086   .     S
C776   H780    1.086   .     S
C776   C236    1.391   1_556 S
H782   C934    1.088   .     S
H784   N844    1.029   .     S
N785   Zn796   2.019   .     S
N785   H841    1.029   .     S
N785   N844    1.275   .     S
N786   Zn795   2.019   .     S
O787   Zn795   1.953   .     S
O788   Zn796   1.953   .     S
O789   Zn796   1.974   .     S
O790   Zn795   1.974   .     S
O791   Zn795   1.994   .     S
O792   Zn796   1.994   .     S
O793   Zn796   2.016   .     S
O794   Zn795   2.016   .     S
C797   H799    1.108   .     S
C797   H798    1.107   .     S
C797   H800    1.109   .     S
C801   H802    1.107   .     S
C801   H804    1.108   .     S
C801   H803    1.109   .     S
C805   H806    1.112   .     S
C805   H807    1.109   .     S
C805   H982    1.107   .     S
C809   H810    1.112   .     S
C809   H812    1.109   .     S
H811   C983    1.107   .     S
C813   O845    1.278   .     A
C813   O847    1.286   .     A
C813   C817    1.399   .     S
C814   O846    1.278   .     A
C814   C818    1.399   .     S
C814   O848    1.286   .     A
C815   C832    1.428   .     A
C815   C863    1.513   .     S
C815   C311    1.391   1_556 S
C816   C831    1.428   .     A
C816   C867    1.513   .     S
C817   C992    1.335   .     S
C817   H1013   1.088   .     S
C819   O849    1.285   .     A
C819   C824    1.420   .     S
C819   O851    1.286   .     A
C820   O850    1.285   .     A
C820   C823    1.420   .     S
C820   O852    1.286   .     A
C821   C823    1.408   .     A
C821   C855    1.521   .     S
C821   C831    1.419   .     A
C822   C824    1.408   .     A
C822   C859    1.521   .     S
C822   C832    1.419   .     A
C823   C825    1.380   .     A
C824   C826    1.380   .     A
C825   C827    1.373   .     A
C825   H835    1.087   .     S
C826   C828    1.373   .     A
C826   H836    1.087   .     S
C827   C833    1.391   .     A
C827   C829    1.407   .     A
C828   C834    1.391   .     A
C828   C830    1.407   .     A
C829   C831    1.434   .     A
C830   C832    1.434   .     A
C830   C307    1.400   1_556 S
C833   H837    1.086   .     S
C834   H838    1.086   .     S
C834   C294    1.391   1_556 S
H840   C992    1.088   .     S
H842   N728    1.029   1_655 S
N843   Zn854   2.019   .     S
N843   H725    1.029   1_655 S
N843   N728    1.275   1_655 S
N844   Zn853   2.019   .     S
O845   Zn853   1.953   .     S
O846   Zn854   1.953   .     S
O847   Zn854   1.974   .     S
O848   Zn853   1.974   .     S
O849   Zn853   1.994   .     S
O850   Zn854   1.994   .     S
O851   Zn854   2.016   .     S
O852   Zn853   2.016   .     S
C855   H857    1.108   .     S
C855   H856    1.107   .     S
C855   H858    1.109   .     S
C859   H860    1.107   .     S
C859   H862    1.108   .     S
C859   H861    1.109   .     S
C863   H864    1.112   .     S
C863   H865    1.109   .     S
C863   H1040   1.107   .     S
C867   H868    1.112   .     S
C867   H870    1.109   .     S
H869   C1041   1.107   .     S
C871   O903    1.278   .     A
C871   O905    1.286   .     A
C871   C875    1.399   .     S
C872   O904    1.278   .     A
C872   C876    1.399   .     S
C872   O906    1.286   .     A
C873   C890    1.428   .     A
C873   C921    1.513   .     S
C873   C369    1.391   1_556 S
C874   C889    1.428   .     A
C874   C925    1.513   .     S
C875   C528    1.335   1_565 S
C875   H549    1.088   1_565 S
C877   O907    1.285   .     A
C877   C882    1.420   .     S
C877   O909    1.286   .     A
C878   O908    1.285   .     A
C878   C881    1.420   .     S
C878   O910    1.286   .     A
C879   C881    1.408   .     A
C879   C913    1.521   .     S
C879   C889    1.419   .     A
C880   C882    1.408   .     A
C880   C917    1.521   .     S
C880   C890    1.419   .     A
C881   C883    1.380   .     A
C882   C884    1.380   .     A
C883   C885    1.373   .     A
C883   H893    1.087   .     S
C884   C886    1.373   .     A
C884   H894    1.087   .     S
C885   C891    1.391   .     A
C885   C887    1.407   .     A
C886   C892    1.391   .     A
C886   C888    1.407   .     A
C887   C889    1.434   .     A
C888   C890    1.434   .     A
C888   C365    1.400   1_556 S
C891   H895    1.086   .     S
C892   H896    1.086   .     S
C892   C352    1.391   1_556 S
H898   C528    1.088   1_565 S
H899   N1017   1.029   1_455 S
H900   N960    1.029   .     S
N901   Zn912   2.019   .     S
N901   H957    1.029   .     S
N901   N960    1.275   .     S
N902   Zn911   2.019   .     S
N902   H1016   1.029   1_455 S
N902   N1017   1.275   1_455 S
O903   Zn911   1.953   .     S
O904   Zn912   1.953   .     S
O905   Zn912   1.974   .     S
O906   Zn911   1.974   .     S
O907   Zn911   1.994   .     S
O908   Zn912   1.994   .     S
O909   Zn912   2.016   .     S
O910   Zn911   2.016   .     S
C913   H915    1.108   .     S
C913   H914    1.107   .     S
C913   H916    1.109   .     S
C917   H918    1.107   .     S
C917   H920    1.108   .     S
C917   H919    1.109   .     S
C921   H922    1.112   .     S
C921   H923    1.109   .     S
C921   H576    1.107   1_565 S
C925   H926    1.112   .     S
C925   H928    1.109   .     S
H927   C577    1.107   1_565 S
C929   O961    1.278   .     A
C929   O963    1.286   .     A
C929   C933    1.399   .     S
C930   O962    1.278   .     A
C930   C934    1.399   .     S
C930   O964    1.286   .     A
C931   C948    1.428   .     A
C931   C979    1.513   .     S
C931   C427    1.391   1_556 S
C932   C947    1.428   .     A
C932   C983    1.513   .     S
C933   C586    1.335   1_565 S
C933   H607    1.088   1_565 S
C935   O965    1.285   .     A
C935   C940    1.420   .     S
C935   O967    1.286   .     A
C936   O966    1.285   .     A
C936   C939    1.420   .     S
C936   O968    1.286   .     A
C937   C939    1.408   .     A
C937   C971    1.521   .     S
C937   C947    1.419   .     A
C938   C940    1.408   .     A
C938   C975    1.521   .     S
C938   C948    1.419   .     A
C939   C941    1.380   .     A
C940   C942    1.380   .     A
C941   C943    1.373   .     A
C941   H951    1.087   .     S
C942   C944    1.373   .     A
C942   H952    1.087   .     S
C943   C949    1.391   .     A
C943   C945    1.407   .     A
C944   C950    1.391   .     A
C944   C946    1.407   .     A
C945   C947    1.434   .     A
C946   C948    1.434   .     A
C946   C423    1.400   1_556 S
C949   H953    1.086   .     S
C950   H954    1.086   .     S
C950   C410    1.391   1_556 S
H956   C586    1.088   1_565 S
H958   N1018   1.029   .     S
N959   Zn970   2.019   .     S
N959   H1015   1.029   .     S
N959   N1018   1.275   .     S
N960   Zn969   2.019   .     S
O961   Zn969   1.953   .     S
O962   Zn970   1.953   .     S
O963   Zn970   1.974   .     S
O964   Zn969   1.974   .     S
O965   Zn969   1.994   .     S
O966   Zn970   1.994   .     S
O967   Zn970   2.016   .     S
O968   Zn969   2.016   .     S
C971   H973    1.108   .     S
C971   H972    1.107   .     S
C971   H974    1.109   .     S
C975   H976    1.107   .     S
C975   H978    1.108   .     S
C975   H977    1.109   .     S
C979   H980    1.112   .     S
C979   H981    1.109   .     S
C979   H634    1.107   1_565 S
C983   H984    1.112   .     S
C983   H986    1.109   .     S
H985   C635    1.107   1_565 S
C987   O1019   1.278   .     A
C987   O1021   1.286   .     A
C987   C991    1.399   .     S
C988   O1020   1.278   .     A
C988   C992    1.399   .     S
C988   O1022   1.286   .     A
C989   C1006   1.428   .     A
C989   C1037   1.513   .     S
C989   C485    1.391   1_556 S
C990   C1005   1.428   .     A
C990   C1041   1.513   .     S
C991   C644    1.335   1_565 S
C991   H665    1.088   1_565 S
C993   O1023   1.285   .     A
C993   C998    1.420   .     S
C993   O1025   1.286   .     A
C994   O1024   1.285   .     A
C994   C997    1.420   .     S
C994   O1026   1.286   .     A
C995   C997    1.408   .     A
C995   C1029   1.521   .     S
C995   C1005   1.419   .     A
C996   C998    1.408   .     A
C996   C1033   1.521   .     S
C996   C1006   1.419   .     A
C997   C999    1.380   .     A
C998   C1000   1.380   .     A
C999   C1001   1.373   .     A
C999   H1009   1.087   .     S
C1000  C1002   1.373   .     A
C1000  H1010   1.087   .     S
C1001  C1007   1.391   .     A
C1001  C1003   1.407   .     A
C1002  C1008   1.391   .     A
C1002  C1004   1.407   .     A
C1003  C1005   1.434   .     A
C1004  C1006   1.434   .     A
C1004  C481    1.400   1_556 S
C1007  H1011   1.086   .     S
C1008  H1012   1.086   .     S
C1008  C468    1.391   1_556 S
H1014  C644    1.088   1_565 S
H1016  N902    1.029   1_655 S
N1017  Zn1028  2.019   .     S
N1017  H899    1.029   1_655 S
N1017  N902    1.275   1_655 S
N1018  Zn1027  2.019   .     S
O1019  Zn1027  1.953   .     S
O1020  Zn1028  1.953   .     S
O1021  Zn1028  1.974   .     S
O1022  Zn1027  1.974   .     S
O1023  Zn1027  1.994   .     S
O1024  Zn1028  1.994   .     S
O1025  Zn1028  2.016   .     S
O1026  Zn1027  2.016   .     S
C1029  H1031   1.108   .     S
C1029  H1030   1.107   .     S
C1029  H1032   1.109   .     S
C1033  H1034   1.107   .     S
C1033  H1036   1.108   .     S
C1033  H1035   1.109   .     S
C1037  H1038   1.112   .     S
C1037  H1039   1.109   .     S
C1037  H692    1.107   1_565 S
C1041  H1042   1.112   .     S
C1041  H1044   1.109   .     S
H1043  C693    1.107   1_565 S
