data_str_m3_o1_o16_pcu_sym.152
_audit_creation_date              2020-01-03
_audit_creation_method            'Materials Studio'
_symmetry_space_group_name_H-M    'P1'
_symmetry_Int_Tables_number       1
_symmetry_cell_setting            triclinic
loop_
_symmetry_equiv_pos_as_xyz
  x,y,z
_cell_length_a                    29.6879
_cell_length_b                    32.1139
_cell_length_c                    26.0512
_cell_angle_alpha                 91.2579
_cell_angle_beta                  68.7315
_cell_angle_gamma                 89.9775
loop_
_atom_site_label
_atom_site_type_symbol
_atom_site_fract_x
_atom_site_fract_y
_atom_site_fract_z
_atom_site_U_iso_or_equiv
_atom_site_adp_type
_atom_site_occupancy
C1     C     0.16682   0.24666   0.24960   0.00000  Uiso   1.00
C2     C     0.14771   0.16111   0.49099   0.00000  Uiso   1.00
C3     C     0.15470   0.14679   0.43720   0.00000  Uiso   1.00
C4     C     0.18602   0.15696   0.01070   0.00000  Uiso   1.00
C5     C     0.22441   0.12880   0.48312   0.00000  Uiso   1.00
C6     C     0.22826   0.11073   0.43254   0.00000  Uiso   1.00
C7     C     0.19446   0.12034   0.40920   0.00000  Uiso   1.00
C8     C     0.18658   0.17863   0.05807   0.00000  Uiso   1.00
C9     C     0.25024   0.13177   0.06087   0.00000  Uiso   1.00
C10    C     0.12099   0.15820   0.41315   0.00000  Uiso   1.00
C11    C     0.20141   0.31237   0.26396   0.00000  Uiso   1.00
C12    C     0.13931   0.16376   0.35270   0.00000  Uiso   1.00
C13    C     0.20125   0.02167   0.26424   0.00000  Uiso   1.00
C14    C     0.16708   0.04254   0.24882   0.00000  Uiso   1.00
C15    C     0.13344   0.02108   0.23242   0.00000  Uiso   1.00
C16    C     0.13367   0.31169   0.23209   0.00000  Uiso   1.00
C17    C     0.16728   0.29084   0.24854   0.00000  Uiso   1.00
C18    C     0.31887   0.13724   0.22050   0.00000  Uiso   1.00
C19    C     0.03314   0.13691   0.22110   0.00000  Uiso   1.00
C20    C     0.01460   0.19699   0.27856   0.00000  Uiso   1.00
C21    C     0.29954   0.19574   0.28037   0.00000  Uiso   1.00
C22    C     0.16678   0.08669   0.24960   0.00000  Uiso   1.00
C23    C     0.19406   0.16608   0.14738   0.00000  Uiso   1.00
C24    C     0.25741   0.11784   0.00752   0.00000  Uiso   1.00
C25    C     0.21293   0.16097   0.08747   0.00000  Uiso   1.00
C26    C     0.07339   0.16985   0.44835   0.00000  Uiso   1.00
C27    C     0.06445   0.17855   0.00412   0.00000  Uiso   1.00
C28    C     0.10143   0.17575   0.02477   0.00000  Uiso   1.00
H29    H     0.22737   0.03817   0.27708   0.00000  Uiso   1.00
H30    H     0.10736   0.03719   0.21957   0.00000  Uiso   1.00
H31    H     0.10796   0.29510   0.21872   0.00000  Uiso   1.00
H32    H     0.30843   0.11353   0.19699   0.00000  Uiso   1.00
H33    H     0.05852   0.11302   0.19790   0.00000  Uiso   1.00
H34    H     0.25737   0.08908   0.41105   0.00000  Uiso   1.00
H35    H     0.28639   0.09582   0.48697   0.00000  Uiso   1.00
H36    H     0.09254   0.18250   0.06822   0.00000  Uiso   1.00
H37    H     0.02853   0.18733   0.03208   0.00000  Uiso   1.00
H38    H     0.19820   0.10503   0.37040   0.00000  Uiso   1.00
H39    H     0.22780   0.29650   0.27634   0.00000  Uiso   1.00
N40    N     0.04760   0.16668   0.25002   0.00000  Uiso   1.00
N41    N     0.28573   0.16665   0.25000   0.00000  Uiso   1.00
O42    O     0.12846   0.22775   0.25001   0.00000  Uiso   1.00
O43    O     0.20490   0.22774   0.25001   0.00000  Uiso   1.00
O44    O     0.10947   0.16666   0.32681   0.00000  Uiso   1.00
O45    O     0.18591   0.16665   0.32681   0.00000  Uiso   1.00
O46    O     0.12843   0.10559   0.25000   0.00000  Uiso   1.00
O47    O     0.20488   0.10558   0.24999   0.00000  Uiso   1.00
O48    O     0.14742   0.16668   0.17319   0.00000  Uiso   1.00
O49    O     0.22387   0.16667   0.17319   0.00000  Uiso   1.00
Zn50   Zn    0.11562   0.16667   0.25000   0.00000  Uiso   1.00
Zn51   Zn    0.21771   0.16666   0.25000   0.00000  Uiso   1.00
Cl52   Cl    0.28720   0.10977   0.09314   0.00000  Uiso   1.00
C53    C     0.02892   0.23275   0.30562   0.00000  Uiso   1.00
O54    O     0.04700   0.22731   0.34012   0.00000  Uiso   1.00
O55    O     0.01993   0.27323   0.29284   0.00000  Uiso   1.00
H56    H     0.03040   0.29524   0.31460   0.00000  Uiso   1.00
Cl57   Cl    0.25610   0.22990   0.32594   0.00000  Uiso   1.00
C58    C     0.16747   0.22243   0.07091   0.00000  Uiso   1.00
O59    O     0.16008   0.23879   0.11610   0.00000  Uiso   1.00
O60    O     0.16072   0.24593   0.02962   0.00000  Uiso   1.00
H61    H     0.14840   0.27518   0.04278   0.00000  Uiso   1.00
C62    C     0.03143   0.16987   0.43032   0.00000  Uiso   1.00
O63    O     0.33239   0.19573   0.44971   0.00000  Uiso   1.00
O64    O     0.02722   0.13879   0.39393   0.00000  Uiso   1.00
H65    H     0.33038   0.14225   0.38478   0.00000  Uiso   1.00
C66    C     0.50016   0.24666   0.24960   0.00000  Uiso   1.00
C67    C     0.48104   0.16111   0.49099   0.00000  Uiso   1.00
C68    C     0.48804   0.14679   0.43720   0.00000  Uiso   1.00
C69    C     0.51935   0.15696   0.01070   0.00000  Uiso   1.00
C70    C     0.55774   0.12880   0.48312   0.00000  Uiso   1.00
C71    C     0.56159   0.11073   0.43254   0.00000  Uiso   1.00
C72    C     0.52779   0.12034   0.40920   0.00000  Uiso   1.00
C73    C     0.51991   0.17863   0.05807   0.00000  Uiso   1.00
C74    C     0.58357   0.13177   0.06087   0.00000  Uiso   1.00
C75    C     0.45432   0.15820   0.41315   0.00000  Uiso   1.00
C76    C     0.53474   0.31237   0.26396   0.00000  Uiso   1.00
C77    C     0.47265   0.16376   0.35270   0.00000  Uiso   1.00
C78    C     0.53459   0.02167   0.26424   0.00000  Uiso   1.00
C79    C     0.50041   0.04254   0.24882   0.00000  Uiso   1.00
C80    C     0.46677   0.02108   0.23242   0.00000  Uiso   1.00
C81    C     0.46700   0.31169   0.23209   0.00000  Uiso   1.00
C82    C     0.50061   0.29084   0.24854   0.00000  Uiso   1.00
C83    C     0.65220   0.13724   0.22050   0.00000  Uiso   1.00
C84    C     0.36647   0.13691   0.22110   0.00000  Uiso   1.00
C85    C     0.34794   0.19699   0.27856   0.00000  Uiso   1.00
C86    C     0.63288   0.19574   0.28037   0.00000  Uiso   1.00
C87    C     0.50011   0.08669   0.24960   0.00000  Uiso   1.00
C88    C     0.52740   0.16608   0.14738   0.00000  Uiso   1.00
C89    C     0.59074   0.11784   0.00752   0.00000  Uiso   1.00
C90    C     0.54626   0.16097   0.08747   0.00000  Uiso   1.00
C91    C     0.40672   0.16985   0.44835   0.00000  Uiso   1.00
C92    C     0.39779   0.17855   0.00412   0.00000  Uiso   1.00
C93    C     0.43476   0.17575   0.02477   0.00000  Uiso   1.00
H94    H     0.56070   0.03817   0.27708   0.00000  Uiso   1.00
H95    H     0.44069   0.03719   0.21957   0.00000  Uiso   1.00
H96    H     0.44129   0.29510   0.21872   0.00000  Uiso   1.00
H97    H     0.64176   0.11353   0.19699   0.00000  Uiso   1.00
H98    H     0.39185   0.11302   0.19790   0.00000  Uiso   1.00
H99    H     0.59070   0.08908   0.41105   0.00000  Uiso   1.00
H100   H     0.61972   0.09582   0.48697   0.00000  Uiso   1.00
H101   H     0.42588   0.18250   0.06822   0.00000  Uiso   1.00
H102   H     0.36186   0.18733   0.03208   0.00000  Uiso   1.00
H103   H     0.53154   0.10503   0.37040   0.00000  Uiso   1.00
H104   H     0.56113   0.29650   0.27634   0.00000  Uiso   1.00
N105   N     0.38093   0.16668   0.25002   0.00000  Uiso   1.00
N106   N     0.61906   0.16665   0.25000   0.00000  Uiso   1.00
O107   O     0.46179   0.22775   0.25001   0.00000  Uiso   1.00
O108   O     0.53823   0.22774   0.25001   0.00000  Uiso   1.00
O109   O     0.44280   0.16666   0.32681   0.00000  Uiso   1.00
O110   O     0.51924   0.16665   0.32681   0.00000  Uiso   1.00
O111   O     0.46177   0.10559   0.25000   0.00000  Uiso   1.00
O112   O     0.53821   0.10558   0.24999   0.00000  Uiso   1.00
O113   O     0.48076   0.16668   0.17319   0.00000  Uiso   1.00
O114   O     0.55720   0.16667   0.17319   0.00000  Uiso   1.00
Zn115  Zn    0.44896   0.16667   0.25000   0.00000  Uiso   1.00
Zn116  Zn    0.55104   0.16666   0.25000   0.00000  Uiso   1.00
Cl117  Cl    0.62053   0.10977   0.09314   0.00000  Uiso   1.00
C118   C     0.36226   0.23275   0.30562   0.00000  Uiso   1.00
O119   O     0.38033   0.22731   0.34012   0.00000  Uiso   1.00
O120   O     0.35327   0.27323   0.29284   0.00000  Uiso   1.00
H121   H     0.36374   0.29524   0.31460   0.00000  Uiso   1.00
Cl122  Cl    0.58944   0.22990   0.32594   0.00000  Uiso   1.00
C123   C     0.50080   0.22243   0.07091   0.00000  Uiso   1.00
O124   O     0.49341   0.23879   0.11610   0.00000  Uiso   1.00
O125   O     0.49405   0.24593   0.02962   0.00000  Uiso   1.00
H126   H     0.48174   0.27518   0.04278   0.00000  Uiso   1.00
C127   C     0.36477   0.16987   0.43032   0.00000  Uiso   1.00
O128   O     0.66572   0.19573   0.44971   0.00000  Uiso   1.00
O129   O     0.36055   0.13879   0.39393   0.00000  Uiso   1.00
H130   H     0.66371   0.14225   0.38478   0.00000  Uiso   1.00
C131   C     0.83349   0.24666   0.24960   0.00000  Uiso   1.00
C132   C     0.81437   0.16111   0.49099   0.00000  Uiso   1.00
C133   C     0.82137   0.14679   0.43720   0.00000  Uiso   1.00
C134   C     0.85268   0.15696   0.01070   0.00000  Uiso   1.00
C135   C     0.89108   0.12880   0.48312   0.00000  Uiso   1.00
C136   C     0.89493   0.11073   0.43254   0.00000  Uiso   1.00
C137   C     0.86113   0.12034   0.40920   0.00000  Uiso   1.00
C138   C     0.85325   0.17863   0.05807   0.00000  Uiso   1.00
C139   C     0.91690   0.13177   0.06087   0.00000  Uiso   1.00
C140   C     0.78766   0.15820   0.41315   0.00000  Uiso   1.00
C141   C     0.86807   0.31237   0.26396   0.00000  Uiso   1.00
C142   C     0.80598   0.16376   0.35270   0.00000  Uiso   1.00
C143   C     0.86792   0.02167   0.26424   0.00000  Uiso   1.00
C144   C     0.83375   0.04254   0.24882   0.00000  Uiso   1.00
C145   C     0.80010   0.02108   0.23242   0.00000  Uiso   1.00
C146   C     0.80033   0.31169   0.23209   0.00000  Uiso   1.00
C147   C     0.83395   0.29084   0.24854   0.00000  Uiso   1.00
C148   C     0.98554   0.13724   0.22050   0.00000  Uiso   1.00
C149   C     0.69981   0.13691   0.22110   0.00000  Uiso   1.00
C150   C     0.68127   0.19699   0.27856   0.00000  Uiso   1.00
C151   C     0.96621   0.19574   0.28037   0.00000  Uiso   1.00
C152   C     0.83344   0.08669   0.24960   0.00000  Uiso   1.00
C153   C     0.86073   0.16608   0.14738   0.00000  Uiso   1.00
C154   C     0.92407   0.11784   0.00752   0.00000  Uiso   1.00
C155   C     0.87960   0.16097   0.08747   0.00000  Uiso   1.00
C156   C     0.74005   0.16985   0.44835   0.00000  Uiso   1.00
C157   C     0.73112   0.17855   0.00412   0.00000  Uiso   1.00
C158   C     0.76809   0.17575   0.02477   0.00000  Uiso   1.00
H159   H     0.89404   0.03817   0.27708   0.00000  Uiso   1.00
H160   H     0.77403   0.03719   0.21957   0.00000  Uiso   1.00
H161   H     0.77462   0.29510   0.21872   0.00000  Uiso   1.00
H162   H     0.97510   0.11353   0.19699   0.00000  Uiso   1.00
H163   H     0.72518   0.11302   0.19790   0.00000  Uiso   1.00
H164   H     0.92403   0.08908   0.41105   0.00000  Uiso   1.00
H165   H     0.95306   0.09582   0.48697   0.00000  Uiso   1.00
H166   H     0.75921   0.18250   0.06822   0.00000  Uiso   1.00
H167   H     0.69519   0.18733   0.03208   0.00000  Uiso   1.00
H168   H     0.86487   0.10503   0.37040   0.00000  Uiso   1.00
H169   H     0.89446   0.29650   0.27634   0.00000  Uiso   1.00
N170   N     0.71426   0.16668   0.25002   0.00000  Uiso   1.00
N171   N     0.95239   0.16665   0.25000   0.00000  Uiso   1.00
O172   O     0.79512   0.22775   0.25001   0.00000  Uiso   1.00
O173   O     0.87157   0.22774   0.25001   0.00000  Uiso   1.00
O174   O     0.77613   0.16666   0.32681   0.00000  Uiso   1.00
O175   O     0.85258   0.16665   0.32681   0.00000  Uiso   1.00
O176   O     0.79510   0.10559   0.25000   0.00000  Uiso   1.00
O177   O     0.87154   0.10558   0.24999   0.00000  Uiso   1.00
O178   O     0.81409   0.16668   0.17319   0.00000  Uiso   1.00
O179   O     0.89053   0.16667   0.17319   0.00000  Uiso   1.00
Zn180  Zn    0.78229   0.16667   0.25000   0.00000  Uiso   1.00
Zn181  Zn    0.88438   0.16666   0.25000   0.00000  Uiso   1.00
Cl182  Cl    0.95387   0.10977   0.09314   0.00000  Uiso   1.00
C183   C     0.69559   0.23275   0.30562   0.00000  Uiso   1.00
O184   O     0.71367   0.22731   0.34012   0.00000  Uiso   1.00
O185   O     0.68660   0.27323   0.29284   0.00000  Uiso   1.00
H186   H     0.69707   0.29524   0.31460   0.00000  Uiso   1.00
Cl187  Cl    0.92277   0.22990   0.32594   0.00000  Uiso   1.00
C188   C     0.83413   0.22243   0.07091   0.00000  Uiso   1.00
O189   O     0.82675   0.23879   0.11610   0.00000  Uiso   1.00
O190   O     0.82739   0.24593   0.02962   0.00000  Uiso   1.00
H191   H     0.81507   0.27518   0.04278   0.00000  Uiso   1.00
C192   C     0.69810   0.16987   0.43032   0.00000  Uiso   1.00
O193   O     0.99905   0.19573   0.44971   0.00000  Uiso   1.00
O194   O     0.69389   0.13879   0.39393   0.00000  Uiso   1.00
H195   H     0.99705   0.14225   0.38478   0.00000  Uiso   1.00
C196   C     0.16682   0.57999   0.24960   0.00000  Uiso   1.00
C197   C     0.14771   0.49445   0.49099   0.00000  Uiso   1.00
C198   C     0.15470   0.48012   0.43720   0.00000  Uiso   1.00
C199   C     0.18602   0.49030   0.01070   0.00000  Uiso   1.00
C200   C     0.22441   0.46213   0.48312   0.00000  Uiso   1.00
C201   C     0.22826   0.44406   0.43254   0.00000  Uiso   1.00
C202   C     0.19446   0.45367   0.40920   0.00000  Uiso   1.00
C203   C     0.18658   0.51197   0.05807   0.00000  Uiso   1.00
C204   C     0.25024   0.46510   0.06087   0.00000  Uiso   1.00
C205   C     0.12099   0.49153   0.41315   0.00000  Uiso   1.00
C206   C     0.20141   0.64571   0.26396   0.00000  Uiso   1.00
C207   C     0.13931   0.49709   0.35270   0.00000  Uiso   1.00
C208   C     0.20125   0.35500   0.26424   0.00000  Uiso   1.00
C209   C     0.16708   0.37588   0.24882   0.00000  Uiso   1.00
C210   C     0.13344   0.35441   0.23242   0.00000  Uiso   1.00
C211   C     0.13367   0.64503   0.23209   0.00000  Uiso   1.00
C212   C     0.16728   0.62417   0.24854   0.00000  Uiso   1.00
C213   C     0.31887   0.47057   0.22050   0.00000  Uiso   1.00
C214   C     0.03314   0.47024   0.22110   0.00000  Uiso   1.00
C215   C     0.01460   0.53032   0.27856   0.00000  Uiso   1.00
C216   C     0.29954   0.52907   0.28037   0.00000  Uiso   1.00
C217   C     0.16678   0.42003   0.24960   0.00000  Uiso   1.00
C218   C     0.19406   0.49942   0.14738   0.00000  Uiso   1.00
C219   C     0.25741   0.45118   0.00752   0.00000  Uiso   1.00
C220   C     0.21293   0.49430   0.08747   0.00000  Uiso   1.00
C221   C     0.07339   0.50319   0.44835   0.00000  Uiso   1.00
C222   C     0.06445   0.51189   0.00412   0.00000  Uiso   1.00
C223   C     0.10143   0.50908   0.02477   0.00000  Uiso   1.00
H224   H     0.22737   0.37151   0.27708   0.00000  Uiso   1.00
H225   H     0.10736   0.37053   0.21957   0.00000  Uiso   1.00
H226   H     0.10796   0.62843   0.21872   0.00000  Uiso   1.00
H227   H     0.30843   0.44686   0.19699   0.00000  Uiso   1.00
H228   H     0.05852   0.44635   0.19790   0.00000  Uiso   1.00
H229   H     0.25737   0.42241   0.41105   0.00000  Uiso   1.00
H230   H     0.28639   0.42916   0.48697   0.00000  Uiso   1.00
H231   H     0.09254   0.51584   0.06822   0.00000  Uiso   1.00
H232   H     0.02853   0.52067   0.03208   0.00000  Uiso   1.00
H233   H     0.19820   0.43836   0.37040   0.00000  Uiso   1.00
H234   H     0.22780   0.62983   0.27634   0.00000  Uiso   1.00
N235   N     0.04760   0.50001   0.25002   0.00000  Uiso   1.00
N236   N     0.28573   0.49998   0.25000   0.00000  Uiso   1.00
O237   O     0.12846   0.56108   0.25001   0.00000  Uiso   1.00
O238   O     0.20490   0.56107   0.25001   0.00000  Uiso   1.00
O239   O     0.10947   0.50000   0.32681   0.00000  Uiso   1.00
O240   O     0.18591   0.49999   0.32681   0.00000  Uiso   1.00
O241   O     0.12843   0.43893   0.25000   0.00000  Uiso   1.00
O242   O     0.20488   0.43892   0.24999   0.00000  Uiso   1.00
O243   O     0.14742   0.50001   0.17319   0.00000  Uiso   1.00
O244   O     0.22387   0.50000   0.17319   0.00000  Uiso   1.00
Zn245  Zn    0.11562   0.50001   0.25000   0.00000  Uiso   1.00
Zn246  Zn    0.21771   0.49999   0.25000   0.00000  Uiso   1.00
Cl247  Cl    0.28720   0.44310   0.09314   0.00000  Uiso   1.00
C248   C     0.02892   0.56608   0.30562   0.00000  Uiso   1.00
O249   O     0.04700   0.56064   0.34012   0.00000  Uiso   1.00
O250   O     0.01993   0.60656   0.29284   0.00000  Uiso   1.00
H251   H     0.03040   0.62858   0.31460   0.00000  Uiso   1.00
Cl252  Cl    0.25610   0.56323   0.32594   0.00000  Uiso   1.00
C253   C     0.16747   0.55576   0.07091   0.00000  Uiso   1.00
O254   O     0.16008   0.57212   0.11610   0.00000  Uiso   1.00
O255   O     0.16072   0.57926   0.02962   0.00000  Uiso   1.00
H256   H     0.14840   0.60851   0.04278   0.00000  Uiso   1.00
C257   C     0.03143   0.50321   0.43032   0.00000  Uiso   1.00
O258   O     0.33239   0.52906   0.44971   0.00000  Uiso   1.00
O259   O     0.02722   0.47213   0.39393   0.00000  Uiso   1.00
H260   H     0.33038   0.47558   0.38478   0.00000  Uiso   1.00
C261   C     0.50016   0.57999   0.24960   0.00000  Uiso   1.00
C262   C     0.48104   0.49445   0.49099   0.00000  Uiso   1.00
C263   C     0.48804   0.48012   0.43720   0.00000  Uiso   1.00
C264   C     0.51935   0.49030   0.01070   0.00000  Uiso   1.00
C265   C     0.55774   0.46213   0.48312   0.00000  Uiso   1.00
C266   C     0.56159   0.44406   0.43254   0.00000  Uiso   1.00
C267   C     0.52779   0.45367   0.40920   0.00000  Uiso   1.00
C268   C     0.51991   0.51197   0.05807   0.00000  Uiso   1.00
C269   C     0.58357   0.46510   0.06087   0.00000  Uiso   1.00
C270   C     0.45432   0.49153   0.41315   0.00000  Uiso   1.00
C271   C     0.53474   0.64571   0.26396   0.00000  Uiso   1.00
C272   C     0.47265   0.49709   0.35270   0.00000  Uiso   1.00
C273   C     0.53459   0.35500   0.26424   0.00000  Uiso   1.00
C274   C     0.50041   0.37588   0.24882   0.00000  Uiso   1.00
C275   C     0.46677   0.35441   0.23242   0.00000  Uiso   1.00
C276   C     0.46700   0.64503   0.23209   0.00000  Uiso   1.00
C277   C     0.50061   0.62417   0.24854   0.00000  Uiso   1.00
C278   C     0.65220   0.47057   0.22050   0.00000  Uiso   1.00
C279   C     0.36647   0.47024   0.22110   0.00000  Uiso   1.00
C280   C     0.34794   0.53032   0.27856   0.00000  Uiso   1.00
C281   C     0.63288   0.52907   0.28037   0.00000  Uiso   1.00
C282   C     0.50011   0.42003   0.24960   0.00000  Uiso   1.00
C283   C     0.52740   0.49942   0.14738   0.00000  Uiso   1.00
C284   C     0.59074   0.45118   0.00752   0.00000  Uiso   1.00
C285   C     0.54626   0.49430   0.08747   0.00000  Uiso   1.00
C286   C     0.40672   0.50319   0.44835   0.00000  Uiso   1.00
C287   C     0.39779   0.51189   0.00412   0.00000  Uiso   1.00
C288   C     0.43476   0.50908   0.02477   0.00000  Uiso   1.00
H289   H     0.56070   0.37151   0.27708   0.00000  Uiso   1.00
H290   H     0.44069   0.37053   0.21957   0.00000  Uiso   1.00
H291   H     0.44129   0.62843   0.21872   0.00000  Uiso   1.00
H292   H     0.64176   0.44686   0.19699   0.00000  Uiso   1.00
H293   H     0.39185   0.44635   0.19790   0.00000  Uiso   1.00
H294   H     0.59070   0.42241   0.41105   0.00000  Uiso   1.00
H295   H     0.61972   0.42916   0.48697   0.00000  Uiso   1.00
H296   H     0.42588   0.51584   0.06822   0.00000  Uiso   1.00
H297   H     0.36186   0.52067   0.03208   0.00000  Uiso   1.00
H298   H     0.53154   0.43836   0.37040   0.00000  Uiso   1.00
H299   H     0.56113   0.62983   0.27634   0.00000  Uiso   1.00
N300   N     0.38093   0.50001   0.25002   0.00000  Uiso   1.00
N301   N     0.61906   0.49998   0.25000   0.00000  Uiso   1.00
O302   O     0.46179   0.56108   0.25001   0.00000  Uiso   1.00
O303   O     0.53823   0.56107   0.25001   0.00000  Uiso   1.00
O304   O     0.44280   0.50000   0.32681   0.00000  Uiso   1.00
O305   O     0.51924   0.49999   0.32681   0.00000  Uiso   1.00
O306   O     0.46177   0.43893   0.25000   0.00000  Uiso   1.00
O307   O     0.53821   0.43892   0.24999   0.00000  Uiso   1.00
O308   O     0.48076   0.50001   0.17319   0.00000  Uiso   1.00
O309   O     0.55720   0.50000   0.17319   0.00000  Uiso   1.00
Zn310  Zn    0.44896   0.50001   0.25000   0.00000  Uiso   1.00
Zn311  Zn    0.55104   0.49999   0.25000   0.00000  Uiso   1.00
Cl312  Cl    0.62053   0.44310   0.09314   0.00000  Uiso   1.00
C313   C     0.36226   0.56608   0.30562   0.00000  Uiso   1.00
O314   O     0.38033   0.56064   0.34012   0.00000  Uiso   1.00
O315   O     0.35327   0.60656   0.29284   0.00000  Uiso   1.00
H316   H     0.36374   0.62858   0.31460   0.00000  Uiso   1.00
Cl317  Cl    0.58944   0.56323   0.32594   0.00000  Uiso   1.00
C318   C     0.50080   0.55576   0.07091   0.00000  Uiso   1.00
O319   O     0.49341   0.57212   0.11610   0.00000  Uiso   1.00
O320   O     0.49405   0.57926   0.02962   0.00000  Uiso   1.00
H321   H     0.48174   0.60851   0.04278   0.00000  Uiso   1.00
C322   C     0.36477   0.50321   0.43032   0.00000  Uiso   1.00
O323   O     0.66572   0.52906   0.44971   0.00000  Uiso   1.00
O324   O     0.36055   0.47213   0.39393   0.00000  Uiso   1.00
H325   H     0.66371   0.47558   0.38478   0.00000  Uiso   1.00
C326   C     0.83349   0.57999   0.24960   0.00000  Uiso   1.00
C327   C     0.81437   0.49445   0.49099   0.00000  Uiso   1.00
C328   C     0.82137   0.48012   0.43720   0.00000  Uiso   1.00
C329   C     0.85268   0.49030   0.01070   0.00000  Uiso   1.00
C330   C     0.89108   0.46213   0.48312   0.00000  Uiso   1.00
C331   C     0.89493   0.44406   0.43254   0.00000  Uiso   1.00
C332   C     0.86113   0.45367   0.40920   0.00000  Uiso   1.00
C333   C     0.85325   0.51197   0.05807   0.00000  Uiso   1.00
C334   C     0.91690   0.46510   0.06087   0.00000  Uiso   1.00
C335   C     0.78766   0.49153   0.41315   0.00000  Uiso   1.00
C336   C     0.86807   0.64571   0.26396   0.00000  Uiso   1.00
C337   C     0.80598   0.49709   0.35270   0.00000  Uiso   1.00
C338   C     0.86792   0.35500   0.26424   0.00000  Uiso   1.00
C339   C     0.83375   0.37588   0.24882   0.00000  Uiso   1.00
C340   C     0.80010   0.35441   0.23242   0.00000  Uiso   1.00
C341   C     0.80033   0.64503   0.23209   0.00000  Uiso   1.00
C342   C     0.83395   0.62417   0.24854   0.00000  Uiso   1.00
C343   C     0.98554   0.47057   0.22050   0.00000  Uiso   1.00
C344   C     0.69981   0.47024   0.22110   0.00000  Uiso   1.00
C345   C     0.68127   0.53032   0.27856   0.00000  Uiso   1.00
C346   C     0.96621   0.52907   0.28037   0.00000  Uiso   1.00
C347   C     0.83344   0.42003   0.24960   0.00000  Uiso   1.00
C348   C     0.86073   0.49942   0.14738   0.00000  Uiso   1.00
C349   C     0.92407   0.45118   0.00752   0.00000  Uiso   1.00
C350   C     0.87960   0.49430   0.08747   0.00000  Uiso   1.00
C351   C     0.74005   0.50319   0.44835   0.00000  Uiso   1.00
C352   C     0.73112   0.51189   0.00412   0.00000  Uiso   1.00
C353   C     0.76809   0.50908   0.02477   0.00000  Uiso   1.00
H354   H     0.89404   0.37151   0.27708   0.00000  Uiso   1.00
H355   H     0.77403   0.37053   0.21957   0.00000  Uiso   1.00
H356   H     0.77462   0.62843   0.21872   0.00000  Uiso   1.00
H357   H     0.97510   0.44686   0.19699   0.00000  Uiso   1.00
H358   H     0.72518   0.44635   0.19790   0.00000  Uiso   1.00
H359   H     0.92403   0.42241   0.41105   0.00000  Uiso   1.00
H360   H     0.95306   0.42916   0.48697   0.00000  Uiso   1.00
H361   H     0.75921   0.51584   0.06822   0.00000  Uiso   1.00
H362   H     0.69519   0.52067   0.03208   0.00000  Uiso   1.00
H363   H     0.86487   0.43836   0.37040   0.00000  Uiso   1.00
H364   H     0.89446   0.62983   0.27634   0.00000  Uiso   1.00
N365   N     0.71426   0.50001   0.25002   0.00000  Uiso   1.00
N366   N     0.95239   0.49998   0.25000   0.00000  Uiso   1.00
O367   O     0.79512   0.56108   0.25001   0.00000  Uiso   1.00
O368   O     0.87157   0.56107   0.25001   0.00000  Uiso   1.00
O369   O     0.77613   0.50000   0.32681   0.00000  Uiso   1.00
O370   O     0.85258   0.49999   0.32681   0.00000  Uiso   1.00
O371   O     0.79510   0.43893   0.25000   0.00000  Uiso   1.00
O372   O     0.87154   0.43892   0.24999   0.00000  Uiso   1.00
O373   O     0.81409   0.50001   0.17319   0.00000  Uiso   1.00
O374   O     0.89053   0.50000   0.17319   0.00000  Uiso   1.00
Zn375  Zn    0.78229   0.50001   0.25000   0.00000  Uiso   1.00
Zn376  Zn    0.88438   0.49999   0.25000   0.00000  Uiso   1.00
Cl377  Cl    0.95387   0.44310   0.09314   0.00000  Uiso   1.00
C378   C     0.69559   0.56608   0.30562   0.00000  Uiso   1.00
O379   O     0.71367   0.56064   0.34012   0.00000  Uiso   1.00
O380   O     0.68660   0.60656   0.29284   0.00000  Uiso   1.00
H381   H     0.69707   0.62858   0.31460   0.00000  Uiso   1.00
Cl382  Cl    0.92277   0.56323   0.32594   0.00000  Uiso   1.00
C383   C     0.83413   0.55576   0.07091   0.00000  Uiso   1.00
O384   O     0.82675   0.57212   0.11610   0.00000  Uiso   1.00
O385   O     0.82739   0.57926   0.02962   0.00000  Uiso   1.00
H386   H     0.81507   0.60851   0.04278   0.00000  Uiso   1.00
C387   C     0.69810   0.50321   0.43032   0.00000  Uiso   1.00
O388   O     0.99905   0.52906   0.44971   0.00000  Uiso   1.00
O389   O     0.69389   0.47213   0.39393   0.00000  Uiso   1.00
H390   H     0.99705   0.47558   0.38478   0.00000  Uiso   1.00
C391   C     0.16682   0.91332   0.24960   0.00000  Uiso   1.00
C392   C     0.14771   0.82778   0.49099   0.00000  Uiso   1.00
C393   C     0.15470   0.81346   0.43720   0.00000  Uiso   1.00
C394   C     0.18602   0.82363   0.01070   0.00000  Uiso   1.00
C395   C     0.22441   0.79546   0.48312   0.00000  Uiso   1.00
C396   C     0.22826   0.77740   0.43254   0.00000  Uiso   1.00
C397   C     0.19446   0.78701   0.40920   0.00000  Uiso   1.00
C398   C     0.18658   0.84530   0.05807   0.00000  Uiso   1.00
C399   C     0.25024   0.79843   0.06087   0.00000  Uiso   1.00
C400   C     0.12099   0.82486   0.41315   0.00000  Uiso   1.00
C401   C     0.20141   0.97904   0.26396   0.00000  Uiso   1.00
C402   C     0.13931   0.83042   0.35270   0.00000  Uiso   1.00
C403   C     0.20125   0.68834   0.26424   0.00000  Uiso   1.00
C404   C     0.16708   0.70921   0.24882   0.00000  Uiso   1.00
C405   C     0.13344   0.68775   0.23242   0.00000  Uiso   1.00
C406   C     0.13367   0.97836   0.23209   0.00000  Uiso   1.00
C407   C     0.16728   0.95750   0.24854   0.00000  Uiso   1.00
C408   C     0.31887   0.80391   0.22050   0.00000  Uiso   1.00
C409   C     0.03314   0.80357   0.22110   0.00000  Uiso   1.00
C410   C     0.01460   0.86365   0.27856   0.00000  Uiso   1.00
C411   C     0.29954   0.86240   0.28037   0.00000  Uiso   1.00
C412   C     0.16678   0.75336   0.24960   0.00000  Uiso   1.00
C413   C     0.19406   0.83275   0.14738   0.00000  Uiso   1.00
C414   C     0.25741   0.78451   0.00752   0.00000  Uiso   1.00
C415   C     0.21293   0.82764   0.08747   0.00000  Uiso   1.00
C416   C     0.07339   0.83652   0.44835   0.00000  Uiso   1.00
C417   C     0.06445   0.84522   0.00412   0.00000  Uiso   1.00
C418   C     0.10143   0.84241   0.02477   0.00000  Uiso   1.00
H419   H     0.22737   0.70484   0.27708   0.00000  Uiso   1.00
H420   H     0.10736   0.70386   0.21957   0.00000  Uiso   1.00
H421   H     0.10796   0.96176   0.21872   0.00000  Uiso   1.00
H422   H     0.30843   0.78020   0.19699   0.00000  Uiso   1.00
H423   H     0.05852   0.77968   0.19790   0.00000  Uiso   1.00
H424   H     0.25737   0.75575   0.41105   0.00000  Uiso   1.00
H425   H     0.28639   0.76249   0.48697   0.00000  Uiso   1.00
H426   H     0.09254   0.84917   0.06822   0.00000  Uiso   1.00
H427   H     0.02853   0.85400   0.03208   0.00000  Uiso   1.00
H428   H     0.19820   0.77170   0.37040   0.00000  Uiso   1.00
H429   H     0.22780   0.96317   0.27634   0.00000  Uiso   1.00
N430   N     0.04760   0.83334   0.25002   0.00000  Uiso   1.00
N431   N     0.28573   0.83331   0.25000   0.00000  Uiso   1.00
O432   O     0.12846   0.89442   0.25001   0.00000  Uiso   1.00
O433   O     0.20490   0.89441   0.25001   0.00000  Uiso   1.00
O434   O     0.10947   0.83333   0.32681   0.00000  Uiso   1.00
O435   O     0.18591   0.83332   0.32681   0.00000  Uiso   1.00
O436   O     0.12843   0.77226   0.25000   0.00000  Uiso   1.00
O437   O     0.20488   0.77225   0.24999   0.00000  Uiso   1.00
O438   O     0.14742   0.83335   0.17319   0.00000  Uiso   1.00
O439   O     0.22387   0.83334   0.17319   0.00000  Uiso   1.00
Zn440  Zn    0.11562   0.83334   0.25000   0.00000  Uiso   1.00
Zn441  Zn    0.21771   0.83333   0.25000   0.00000  Uiso   1.00
Cl442  Cl    0.28720   0.77644   0.09314   0.00000  Uiso   1.00
C443   C     0.02892   0.89941   0.30562   0.00000  Uiso   1.00
O444   O     0.04700   0.89397   0.34012   0.00000  Uiso   1.00
O445   O     0.01993   0.93989   0.29284   0.00000  Uiso   1.00
H446   H     0.03040   0.96191   0.31460   0.00000  Uiso   1.00
Cl447  Cl    0.25610   0.89657   0.32594   0.00000  Uiso   1.00
C448   C     0.16747   0.88910   0.07091   0.00000  Uiso   1.00
O449   O     0.16008   0.90545   0.11610   0.00000  Uiso   1.00
O450   O     0.16072   0.91260   0.02962   0.00000  Uiso   1.00
H451   H     0.14840   0.94185   0.04278   0.00000  Uiso   1.00
C452   C     0.03143   0.83654   0.43032   0.00000  Uiso   1.00
O453   O     0.33239   0.86240   0.44971   0.00000  Uiso   1.00
O454   O     0.02722   0.80546   0.39393   0.00000  Uiso   1.00
H455   H     0.33038   0.80892   0.38478   0.00000  Uiso   1.00
C456   C     0.50016   0.91332   0.24960   0.00000  Uiso   1.00
C457   C     0.48104   0.82778   0.49099   0.00000  Uiso   1.00
C458   C     0.48804   0.81346   0.43720   0.00000  Uiso   1.00
C459   C     0.51935   0.82363   0.01070   0.00000  Uiso   1.00
C460   C     0.55774   0.79546   0.48312   0.00000  Uiso   1.00
C461   C     0.56159   0.77740   0.43254   0.00000  Uiso   1.00
C462   C     0.52779   0.78701   0.40920   0.00000  Uiso   1.00
C463   C     0.51991   0.84530   0.05807   0.00000  Uiso   1.00
C464   C     0.58357   0.79843   0.06087   0.00000  Uiso   1.00
C465   C     0.45432   0.82486   0.41315   0.00000  Uiso   1.00
C466   C     0.53474   0.97904   0.26396   0.00000  Uiso   1.00
C467   C     0.47265   0.83042   0.35270   0.00000  Uiso   1.00
C468   C     0.53459   0.68834   0.26424   0.00000  Uiso   1.00
C469   C     0.50041   0.70921   0.24882   0.00000  Uiso   1.00
C470   C     0.46677   0.68775   0.23242   0.00000  Uiso   1.00
C471   C     0.46700   0.97836   0.23209   0.00000  Uiso   1.00
C472   C     0.50061   0.95750   0.24854   0.00000  Uiso   1.00
C473   C     0.65220   0.80391   0.22050   0.00000  Uiso   1.00
C474   C     0.36647   0.80357   0.22110   0.00000  Uiso   1.00
C475   C     0.34794   0.86365   0.27856   0.00000  Uiso   1.00
C476   C     0.63288   0.86240   0.28037   0.00000  Uiso   1.00
C477   C     0.50011   0.75336   0.24960   0.00000  Uiso   1.00
C478   C     0.52740   0.83275   0.14738   0.00000  Uiso   1.00
C479   C     0.59074   0.78451   0.00752   0.00000  Uiso   1.00
C480   C     0.54626   0.82764   0.08747   0.00000  Uiso   1.00
C481   C     0.40672   0.83652   0.44835   0.00000  Uiso   1.00
C482   C     0.39779   0.84522   0.00412   0.00000  Uiso   1.00
C483   C     0.43476   0.84241   0.02477   0.00000  Uiso   1.00
H484   H     0.56070   0.70484   0.27708   0.00000  Uiso   1.00
H485   H     0.44069   0.70386   0.21957   0.00000  Uiso   1.00
H486   H     0.44129   0.96176   0.21872   0.00000  Uiso   1.00
H487   H     0.64176   0.78020   0.19699   0.00000  Uiso   1.00
H488   H     0.39185   0.77968   0.19790   0.00000  Uiso   1.00
H489   H     0.59070   0.75575   0.41105   0.00000  Uiso   1.00
H490   H     0.61972   0.76249   0.48697   0.00000  Uiso   1.00
H491   H     0.42588   0.84917   0.06822   0.00000  Uiso   1.00
H492   H     0.36186   0.85400   0.03208   0.00000  Uiso   1.00
H493   H     0.53154   0.77170   0.37040   0.00000  Uiso   1.00
H494   H     0.56113   0.96317   0.27634   0.00000  Uiso   1.00
N495   N     0.38093   0.83334   0.25002   0.00000  Uiso   1.00
N496   N     0.61906   0.83331   0.25000   0.00000  Uiso   1.00
O497   O     0.46179   0.89442   0.25001   0.00000  Uiso   1.00
O498   O     0.53823   0.89441   0.25001   0.00000  Uiso   1.00
O499   O     0.44280   0.83333   0.32681   0.00000  Uiso   1.00
O500   O     0.51924   0.83332   0.32681   0.00000  Uiso   1.00
O501   O     0.46177   0.77226   0.25000   0.00000  Uiso   1.00
O502   O     0.53821   0.77225   0.24999   0.00000  Uiso   1.00
O503   O     0.48076   0.83335   0.17319   0.00000  Uiso   1.00
O504   O     0.55720   0.83334   0.17319   0.00000  Uiso   1.00
Zn505  Zn    0.44896   0.83334   0.25000   0.00000  Uiso   1.00
Zn506  Zn    0.55104   0.83333   0.25000   0.00000  Uiso   1.00
Cl507  Cl    0.62053   0.77644   0.09314   0.00000  Uiso   1.00
C508   C     0.36226   0.89941   0.30562   0.00000  Uiso   1.00
O509   O     0.38033   0.89397   0.34012   0.00000  Uiso   1.00
O510   O     0.35327   0.93989   0.29284   0.00000  Uiso   1.00
H511   H     0.36374   0.96191   0.31460   0.00000  Uiso   1.00
Cl512  Cl    0.58944   0.89657   0.32594   0.00000  Uiso   1.00
C513   C     0.50080   0.88910   0.07091   0.00000  Uiso   1.00
O514   O     0.49341   0.90545   0.11610   0.00000  Uiso   1.00
O515   O     0.49405   0.91260   0.02962   0.00000  Uiso   1.00
H516   H     0.48174   0.94185   0.04278   0.00000  Uiso   1.00
C517   C     0.36477   0.83654   0.43032   0.00000  Uiso   1.00
O518   O     0.66572   0.86240   0.44971   0.00000  Uiso   1.00
O519   O     0.36055   0.80546   0.39393   0.00000  Uiso   1.00
H520   H     0.66371   0.80892   0.38478   0.00000  Uiso   1.00
C521   C     0.83349   0.91332   0.24960   0.00000  Uiso   1.00
C522   C     0.81437   0.82778   0.49099   0.00000  Uiso   1.00
C523   C     0.82137   0.81346   0.43720   0.00000  Uiso   1.00
C524   C     0.85268   0.82363   0.01070   0.00000  Uiso   1.00
C525   C     0.89108   0.79546   0.48312   0.00000  Uiso   1.00
C526   C     0.89493   0.77740   0.43254   0.00000  Uiso   1.00
C527   C     0.86113   0.78701   0.40920   0.00000  Uiso   1.00
C528   C     0.85325   0.84530   0.05807   0.00000  Uiso   1.00
C529   C     0.91690   0.79843   0.06087   0.00000  Uiso   1.00
C530   C     0.78766   0.82486   0.41315   0.00000  Uiso   1.00
C531   C     0.86807   0.97904   0.26396   0.00000  Uiso   1.00
C532   C     0.80598   0.83042   0.35270   0.00000  Uiso   1.00
C533   C     0.86792   0.68834   0.26424   0.00000  Uiso   1.00
C534   C     0.83375   0.70921   0.24882   0.00000  Uiso   1.00
C535   C     0.80010   0.68775   0.23242   0.00000  Uiso   1.00
C536   C     0.80033   0.97836   0.23209   0.00000  Uiso   1.00
C537   C     0.83395   0.95750   0.24854   0.00000  Uiso   1.00
C538   C     0.98554   0.80391   0.22050   0.00000  Uiso   1.00
C539   C     0.69981   0.80357   0.22110   0.00000  Uiso   1.00
C540   C     0.68127   0.86365   0.27856   0.00000  Uiso   1.00
C541   C     0.96621   0.86240   0.28037   0.00000  Uiso   1.00
C542   C     0.83344   0.75336   0.24960   0.00000  Uiso   1.00
C543   C     0.86073   0.83275   0.14738   0.00000  Uiso   1.00
C544   C     0.92407   0.78451   0.00752   0.00000  Uiso   1.00
C545   C     0.87960   0.82764   0.08747   0.00000  Uiso   1.00
C546   C     0.74005   0.83652   0.44835   0.00000  Uiso   1.00
C547   C     0.73112   0.84522   0.00412   0.00000  Uiso   1.00
C548   C     0.76809   0.84241   0.02477   0.00000  Uiso   1.00
H549   H     0.89404   0.70484   0.27708   0.00000  Uiso   1.00
H550   H     0.77403   0.70386   0.21957   0.00000  Uiso   1.00
H551   H     0.77462   0.96176   0.21872   0.00000  Uiso   1.00
H552   H     0.97510   0.78020   0.19699   0.00000  Uiso   1.00
H553   H     0.72518   0.77968   0.19790   0.00000  Uiso   1.00
H554   H     0.92403   0.75575   0.41105   0.00000  Uiso   1.00
H555   H     0.95306   0.76249   0.48697   0.00000  Uiso   1.00
H556   H     0.75921   0.84917   0.06822   0.00000  Uiso   1.00
H557   H     0.69519   0.85400   0.03208   0.00000  Uiso   1.00
H558   H     0.86487   0.77170   0.37040   0.00000  Uiso   1.00
H559   H     0.89446   0.96317   0.27634   0.00000  Uiso   1.00
N560   N     0.71426   0.83334   0.25002   0.00000  Uiso   1.00
N561   N     0.95239   0.83331   0.25000   0.00000  Uiso   1.00
O562   O     0.79512   0.89442   0.25001   0.00000  Uiso   1.00
O563   O     0.87157   0.89441   0.25001   0.00000  Uiso   1.00
O564   O     0.77613   0.83333   0.32681   0.00000  Uiso   1.00
O565   O     0.85258   0.83332   0.32681   0.00000  Uiso   1.00
O566   O     0.79510   0.77226   0.25000   0.00000  Uiso   1.00
O567   O     0.87154   0.77225   0.24999   0.00000  Uiso   1.00
O568   O     0.81409   0.83335   0.17319   0.00000  Uiso   1.00
O569   O     0.89053   0.83334   0.17319   0.00000  Uiso   1.00
Zn570  Zn    0.78229   0.83334   0.25000   0.00000  Uiso   1.00
Zn571  Zn    0.88438   0.83333   0.25000   0.00000  Uiso   1.00
Cl572  Cl    0.95387   0.77644   0.09314   0.00000  Uiso   1.00
C573   C     0.69559   0.89941   0.30562   0.00000  Uiso   1.00
O574   O     0.71367   0.89397   0.34012   0.00000  Uiso   1.00
O575   O     0.68660   0.93989   0.29284   0.00000  Uiso   1.00
H576   H     0.69707   0.96191   0.31460   0.00000  Uiso   1.00
Cl577  Cl    0.92277   0.89657   0.32594   0.00000  Uiso   1.00
C578   C     0.83413   0.88910   0.07091   0.00000  Uiso   1.00
O579   O     0.82675   0.90545   0.11610   0.00000  Uiso   1.00
O580   O     0.82739   0.91260   0.02962   0.00000  Uiso   1.00
H581   H     0.81507   0.94185   0.04278   0.00000  Uiso   1.00
C582   C     0.69810   0.83654   0.43032   0.00000  Uiso   1.00
O583   O     0.99905   0.86240   0.44971   0.00000  Uiso   1.00
O584   O     0.69389   0.80546   0.39393   0.00000  Uiso   1.00
H585   H     0.99705   0.80892   0.38478   0.00000  Uiso   1.00
C586   C     0.16682   0.24666   0.74960   0.00000  Uiso   1.00
C587   C     0.14771   0.16111   0.99099   0.00000  Uiso   1.00
C588   C     0.15470   0.14679   0.93720   0.00000  Uiso   1.00
C589   C     0.18602   0.15696   0.51070   0.00000  Uiso   1.00
C590   C     0.22441   0.12880   0.98312   0.00000  Uiso   1.00
C591   C     0.22826   0.11073   0.93254   0.00000  Uiso   1.00
C592   C     0.19446   0.12034   0.90920   0.00000  Uiso   1.00
C593   C     0.18658   0.17863   0.55807   0.00000  Uiso   1.00
C594   C     0.25024   0.13177   0.56087   0.00000  Uiso   1.00
C595   C     0.12099   0.15820   0.91315   0.00000  Uiso   1.00
C596   C     0.20141   0.31237   0.76396   0.00000  Uiso   1.00
C597   C     0.13931   0.16376   0.85270   0.00000  Uiso   1.00
C598   C     0.20125   0.02167   0.76424   0.00000  Uiso   1.00
C599   C     0.16708   0.04254   0.74882   0.00000  Uiso   1.00
C600   C     0.13344   0.02108   0.73242   0.00000  Uiso   1.00
C601   C     0.13367   0.31169   0.73209   0.00000  Uiso   1.00
C602   C     0.16728   0.29084   0.74854   0.00000  Uiso   1.00
C603   C     0.31887   0.13724   0.72050   0.00000  Uiso   1.00
C604   C     0.03314   0.13691   0.72110   0.00000  Uiso   1.00
C605   C     0.01460   0.19699   0.77856   0.00000  Uiso   1.00
C606   C     0.29954   0.19574   0.78037   0.00000  Uiso   1.00
C607   C     0.16678   0.08669   0.74960   0.00000  Uiso   1.00
C608   C     0.19406   0.16608   0.64738   0.00000  Uiso   1.00
C609   C     0.25741   0.11784   0.50752   0.00000  Uiso   1.00
C610   C     0.21293   0.16097   0.58747   0.00000  Uiso   1.00
C611   C     0.07339   0.16985   0.94835   0.00000  Uiso   1.00
C612   C     0.06445   0.17855   0.50412   0.00000  Uiso   1.00
C613   C     0.10143   0.17575   0.52477   0.00000  Uiso   1.00
H614   H     0.22737   0.03817   0.77708   0.00000  Uiso   1.00
H615   H     0.10736   0.03719   0.71957   0.00000  Uiso   1.00
H616   H     0.10796   0.29510   0.71872   0.00000  Uiso   1.00
H617   H     0.30843   0.11353   0.69699   0.00000  Uiso   1.00
H618   H     0.05852   0.11302   0.69790   0.00000  Uiso   1.00
H619   H     0.25737   0.08908   0.91105   0.00000  Uiso   1.00
H620   H     0.28639   0.09582   0.98697   0.00000  Uiso   1.00
H621   H     0.09254   0.18250   0.56822   0.00000  Uiso   1.00
H622   H     0.02853   0.18733   0.53208   0.00000  Uiso   1.00
H623   H     0.19820   0.10503   0.87040   0.00000  Uiso   1.00
H624   H     0.22780   0.29650   0.77634   0.00000  Uiso   1.00
N625   N     0.04760   0.16668   0.75002   0.00000  Uiso   1.00
N626   N     0.28573   0.16665   0.75000   0.00000  Uiso   1.00
O627   O     0.12846   0.22775   0.75001   0.00000  Uiso   1.00
O628   O     0.20490   0.22774   0.75001   0.00000  Uiso   1.00
O629   O     0.10947   0.16666   0.82681   0.00000  Uiso   1.00
O630   O     0.18591   0.16665   0.82681   0.00000  Uiso   1.00
O631   O     0.12843   0.10559   0.75000   0.00000  Uiso   1.00
O632   O     0.20488   0.10558   0.74999   0.00000  Uiso   1.00
O633   O     0.14742   0.16668   0.67319   0.00000  Uiso   1.00
O634   O     0.22387   0.16667   0.67319   0.00000  Uiso   1.00
Zn635  Zn    0.11562   0.16667   0.75000   0.00000  Uiso   1.00
Zn636  Zn    0.21771   0.16666   0.75000   0.00000  Uiso   1.00
Cl637  Cl    0.28720   0.10977   0.59314   0.00000  Uiso   1.00
C638   C     0.02892   0.23275   0.80562   0.00000  Uiso   1.00
O639   O     0.04700   0.22731   0.84012   0.00000  Uiso   1.00
O640   O     0.01993   0.27323   0.79284   0.00000  Uiso   1.00
H641   H     0.03040   0.29524   0.81460   0.00000  Uiso   1.00
Cl642  Cl    0.25610   0.22990   0.82594   0.00000  Uiso   1.00
C643   C     0.16747   0.22243   0.57091   0.00000  Uiso   1.00
O644   O     0.16008   0.23879   0.61610   0.00000  Uiso   1.00
O645   O     0.16072   0.24593   0.52962   0.00000  Uiso   1.00
H646   H     0.14840   0.27518   0.54278   0.00000  Uiso   1.00
C647   C     0.03143   0.16987   0.93032   0.00000  Uiso   1.00
O648   O     0.33239   0.19573   0.94971   0.00000  Uiso   1.00
O649   O     0.02722   0.13879   0.89393   0.00000  Uiso   1.00
H650   H     0.33038   0.14225   0.88478   0.00000  Uiso   1.00
C651   C     0.50016   0.24666   0.74960   0.00000  Uiso   1.00
C652   C     0.48104   0.16111   0.99099   0.00000  Uiso   1.00
C653   C     0.48804   0.14679   0.93720   0.00000  Uiso   1.00
C654   C     0.51935   0.15696   0.51070   0.00000  Uiso   1.00
C655   C     0.55774   0.12880   0.98312   0.00000  Uiso   1.00
C656   C     0.56159   0.11073   0.93254   0.00000  Uiso   1.00
C657   C     0.52779   0.12034   0.90920   0.00000  Uiso   1.00
C658   C     0.51991   0.17863   0.55807   0.00000  Uiso   1.00
C659   C     0.58357   0.13177   0.56087   0.00000  Uiso   1.00
C660   C     0.45432   0.15820   0.91315   0.00000  Uiso   1.00
C661   C     0.53474   0.31237   0.76396   0.00000  Uiso   1.00
C662   C     0.47265   0.16376   0.85270   0.00000  Uiso   1.00
C663   C     0.53459   0.02167   0.76424   0.00000  Uiso   1.00
C664   C     0.50041   0.04254   0.74882   0.00000  Uiso   1.00
C665   C     0.46677   0.02108   0.73242   0.00000  Uiso   1.00
C666   C     0.46700   0.31169   0.73209   0.00000  Uiso   1.00
C667   C     0.50061   0.29084   0.74854   0.00000  Uiso   1.00
C668   C     0.65220   0.13724   0.72050   0.00000  Uiso   1.00
C669   C     0.36647   0.13691   0.72110   0.00000  Uiso   1.00
C670   C     0.34794   0.19699   0.77856   0.00000  Uiso   1.00
C671   C     0.63288   0.19574   0.78037   0.00000  Uiso   1.00
C672   C     0.50011   0.08669   0.74960   0.00000  Uiso   1.00
C673   C     0.52740   0.16608   0.64738   0.00000  Uiso   1.00
C674   C     0.59074   0.11784   0.50752   0.00000  Uiso   1.00
C675   C     0.54626   0.16097   0.58747   0.00000  Uiso   1.00
C676   C     0.40672   0.16985   0.94835   0.00000  Uiso   1.00
C677   C     0.39779   0.17855   0.50412   0.00000  Uiso   1.00
C678   C     0.43476   0.17575   0.52477   0.00000  Uiso   1.00
H679   H     0.56070   0.03817   0.77708   0.00000  Uiso   1.00
H680   H     0.44069   0.03719   0.71957   0.00000  Uiso   1.00
H681   H     0.44129   0.29510   0.71872   0.00000  Uiso   1.00
H682   H     0.64176   0.11353   0.69699   0.00000  Uiso   1.00
H683   H     0.39185   0.11302   0.69790   0.00000  Uiso   1.00
H684   H     0.59070   0.08908   0.91105   0.00000  Uiso   1.00
H685   H     0.61972   0.09582   0.98697   0.00000  Uiso   1.00
H686   H     0.42588   0.18250   0.56822   0.00000  Uiso   1.00
H687   H     0.36186   0.18733   0.53208   0.00000  Uiso   1.00
H688   H     0.53154   0.10503   0.87040   0.00000  Uiso   1.00
H689   H     0.56113   0.29650   0.77634   0.00000  Uiso   1.00
N690   N     0.38093   0.16668   0.75002   0.00000  Uiso   1.00
N691   N     0.61906   0.16665   0.75000   0.00000  Uiso   1.00
O692   O     0.46179   0.22775   0.75001   0.00000  Uiso   1.00
O693   O     0.53823   0.22774   0.75001   0.00000  Uiso   1.00
O694   O     0.44280   0.16666   0.82681   0.00000  Uiso   1.00
O695   O     0.51924   0.16665   0.82681   0.00000  Uiso   1.00
O696   O     0.46177   0.10559   0.75000   0.00000  Uiso   1.00
O697   O     0.53821   0.10558   0.74999   0.00000  Uiso   1.00
O698   O     0.48076   0.16668   0.67319   0.00000  Uiso   1.00
O699   O     0.55720   0.16667   0.67319   0.00000  Uiso   1.00
Zn700  Zn    0.44896   0.16667   0.75000   0.00000  Uiso   1.00
Zn701  Zn    0.55104   0.16666   0.75000   0.00000  Uiso   1.00
Cl702  Cl    0.62053   0.10977   0.59314   0.00000  Uiso   1.00
C703   C     0.36226   0.23275   0.80562   0.00000  Uiso   1.00
O704   O     0.38033   0.22731   0.84012   0.00000  Uiso   1.00
O705   O     0.35327   0.27323   0.79284   0.00000  Uiso   1.00
H706   H     0.36374   0.29524   0.81460   0.00000  Uiso   1.00
Cl707  Cl    0.58944   0.22990   0.82594   0.00000  Uiso   1.00
C708   C     0.50080   0.22243   0.57091   0.00000  Uiso   1.00
O709   O     0.49341   0.23879   0.61610   0.00000  Uiso   1.00
O710   O     0.49405   0.24593   0.52962   0.00000  Uiso   1.00
H711   H     0.48174   0.27518   0.54278   0.00000  Uiso   1.00
C712   C     0.36477   0.16987   0.93032   0.00000  Uiso   1.00
O713   O     0.66572   0.19573   0.94971   0.00000  Uiso   1.00
O714   O     0.36055   0.13879   0.89393   0.00000  Uiso   1.00
H715   H     0.66371   0.14225   0.88478   0.00000  Uiso   1.00
C716   C     0.83349   0.24666   0.74960   0.00000  Uiso   1.00
C717   C     0.81437   0.16111   0.99099   0.00000  Uiso   1.00
C718   C     0.82137   0.14679   0.93720   0.00000  Uiso   1.00
C719   C     0.85268   0.15696   0.51070   0.00000  Uiso   1.00
C720   C     0.89108   0.12880   0.98312   0.00000  Uiso   1.00
C721   C     0.89493   0.11073   0.93254   0.00000  Uiso   1.00
C722   C     0.86113   0.12034   0.90920   0.00000  Uiso   1.00
C723   C     0.85325   0.17863   0.55807   0.00000  Uiso   1.00
C724   C     0.91690   0.13177   0.56087   0.00000  Uiso   1.00
C725   C     0.78766   0.15820   0.91315   0.00000  Uiso   1.00
C726   C     0.86807   0.31237   0.76396   0.00000  Uiso   1.00
C727   C     0.80598   0.16376   0.85270   0.00000  Uiso   1.00
C728   C     0.86792   0.02167   0.76424   0.00000  Uiso   1.00
C729   C     0.83375   0.04254   0.74882   0.00000  Uiso   1.00
C730   C     0.80010   0.02108   0.73242   0.00000  Uiso   1.00
C731   C     0.80033   0.31169   0.73209   0.00000  Uiso   1.00
C732   C     0.83395   0.29084   0.74854   0.00000  Uiso   1.00
C733   C     0.98554   0.13724   0.72050   0.00000  Uiso   1.00
C734   C     0.69981   0.13691   0.72110   0.00000  Uiso   1.00
C735   C     0.68127   0.19699   0.77856   0.00000  Uiso   1.00
C736   C     0.96621   0.19574   0.78037   0.00000  Uiso   1.00
C737   C     0.83344   0.08669   0.74960   0.00000  Uiso   1.00
C738   C     0.86073   0.16608   0.64738   0.00000  Uiso   1.00
C739   C     0.92407   0.11784   0.50752   0.00000  Uiso   1.00
C740   C     0.87960   0.16097   0.58747   0.00000  Uiso   1.00
C741   C     0.74005   0.16985   0.94835   0.00000  Uiso   1.00
C742   C     0.73112   0.17855   0.50412   0.00000  Uiso   1.00
C743   C     0.76809   0.17575   0.52477   0.00000  Uiso   1.00
H744   H     0.89404   0.03817   0.77708   0.00000  Uiso   1.00
H745   H     0.77403   0.03719   0.71957   0.00000  Uiso   1.00
H746   H     0.77462   0.29510   0.71872   0.00000  Uiso   1.00
H747   H     0.97510   0.11353   0.69699   0.00000  Uiso   1.00
H748   H     0.72518   0.11302   0.69790   0.00000  Uiso   1.00
H749   H     0.92403   0.08908   0.91105   0.00000  Uiso   1.00
H750   H     0.95306   0.09582   0.98697   0.00000  Uiso   1.00
H751   H     0.75921   0.18250   0.56822   0.00000  Uiso   1.00
H752   H     0.69519   0.18733   0.53208   0.00000  Uiso   1.00
H753   H     0.86487   0.10503   0.87040   0.00000  Uiso   1.00
H754   H     0.89446   0.29650   0.77634   0.00000  Uiso   1.00
N755   N     0.71426   0.16668   0.75002   0.00000  Uiso   1.00
N756   N     0.95239   0.16665   0.75000   0.00000  Uiso   1.00
O757   O     0.79512   0.22775   0.75001   0.00000  Uiso   1.00
O758   O     0.87157   0.22774   0.75001   0.00000  Uiso   1.00
O759   O     0.77613   0.16666   0.82681   0.00000  Uiso   1.00
O760   O     0.85258   0.16665   0.82681   0.00000  Uiso   1.00
O761   O     0.79510   0.10559   0.75000   0.00000  Uiso   1.00
O762   O     0.87154   0.10558   0.74999   0.00000  Uiso   1.00
O763   O     0.81409   0.16668   0.67319   0.00000  Uiso   1.00
O764   O     0.89053   0.16667   0.67319   0.00000  Uiso   1.00
Zn765  Zn    0.78229   0.16667   0.75000   0.00000  Uiso   1.00
Zn766  Zn    0.88438   0.16666   0.75000   0.00000  Uiso   1.00
Cl767  Cl    0.95387   0.10977   0.59314   0.00000  Uiso   1.00
C768   C     0.69559   0.23275   0.80562   0.00000  Uiso   1.00
O769   O     0.71367   0.22731   0.84012   0.00000  Uiso   1.00
O770   O     0.68660   0.27323   0.79284   0.00000  Uiso   1.00
H771   H     0.69707   0.29524   0.81460   0.00000  Uiso   1.00
Cl772  Cl    0.92277   0.22990   0.82594   0.00000  Uiso   1.00
C773   C     0.83413   0.22243   0.57091   0.00000  Uiso   1.00
O774   O     0.82675   0.23879   0.61610   0.00000  Uiso   1.00
O775   O     0.82739   0.24593   0.52962   0.00000  Uiso   1.00
H776   H     0.81507   0.27518   0.54278   0.00000  Uiso   1.00
C777   C     0.69810   0.16987   0.93032   0.00000  Uiso   1.00
O778   O     0.99905   0.19573   0.94971   0.00000  Uiso   1.00
O779   O     0.69389   0.13879   0.89393   0.00000  Uiso   1.00
H780   H     0.99705   0.14225   0.88478   0.00000  Uiso   1.00
C781   C     0.16682   0.57999   0.74960   0.00000  Uiso   1.00
C782   C     0.14771   0.49445   0.99099   0.00000  Uiso   1.00
C783   C     0.15470   0.48012   0.93720   0.00000  Uiso   1.00
C784   C     0.18602   0.49030   0.51070   0.00000  Uiso   1.00
C785   C     0.22441   0.46213   0.98312   0.00000  Uiso   1.00
C786   C     0.22826   0.44406   0.93254   0.00000  Uiso   1.00
C787   C     0.19446   0.45367   0.90920   0.00000  Uiso   1.00
C788   C     0.18658   0.51197   0.55807   0.00000  Uiso   1.00
C789   C     0.25024   0.46510   0.56087   0.00000  Uiso   1.00
C790   C     0.12099   0.49153   0.91315   0.00000  Uiso   1.00
C791   C     0.20141   0.64571   0.76396   0.00000  Uiso   1.00
C792   C     0.13931   0.49709   0.85270   0.00000  Uiso   1.00
C793   C     0.20125   0.35500   0.76424   0.00000  Uiso   1.00
C794   C     0.16708   0.37588   0.74882   0.00000  Uiso   1.00
C795   C     0.13344   0.35441   0.73242   0.00000  Uiso   1.00
C796   C     0.13367   0.64503   0.73209   0.00000  Uiso   1.00
C797   C     0.16728   0.62417   0.74854   0.00000  Uiso   1.00
C798   C     0.31887   0.47057   0.72050   0.00000  Uiso   1.00
C799   C     0.03314   0.47024   0.72110   0.00000  Uiso   1.00
C800   C     0.01460   0.53032   0.77856   0.00000  Uiso   1.00
C801   C     0.29954   0.52907   0.78037   0.00000  Uiso   1.00
C802   C     0.16678   0.42003   0.74960   0.00000  Uiso   1.00
C803   C     0.19406   0.49942   0.64738   0.00000  Uiso   1.00
C804   C     0.25741   0.45118   0.50752   0.00000  Uiso   1.00
C805   C     0.21293   0.49430   0.58747   0.00000  Uiso   1.00
C806   C     0.07339   0.50319   0.94835   0.00000  Uiso   1.00
C807   C     0.06445   0.51189   0.50412   0.00000  Uiso   1.00
C808   C     0.10143   0.50908   0.52477   0.00000  Uiso   1.00
H809   H     0.22737   0.37151   0.77708   0.00000  Uiso   1.00
H810   H     0.10736   0.37053   0.71957   0.00000  Uiso   1.00
H811   H     0.10796   0.62843   0.71872   0.00000  Uiso   1.00
H812   H     0.30843   0.44686   0.69699   0.00000  Uiso   1.00
H813   H     0.05852   0.44635   0.69790   0.00000  Uiso   1.00
H814   H     0.25737   0.42241   0.91105   0.00000  Uiso   1.00
H815   H     0.28639   0.42916   0.98697   0.00000  Uiso   1.00
H816   H     0.09254   0.51584   0.56822   0.00000  Uiso   1.00
H817   H     0.02853   0.52067   0.53208   0.00000  Uiso   1.00
H818   H     0.19820   0.43836   0.87040   0.00000  Uiso   1.00
H819   H     0.22780   0.62983   0.77634   0.00000  Uiso   1.00
N820   N     0.04760   0.50001   0.75002   0.00000  Uiso   1.00
N821   N     0.28573   0.49998   0.75000   0.00000  Uiso   1.00
O822   O     0.12846   0.56108   0.75001   0.00000  Uiso   1.00
O823   O     0.20490   0.56107   0.75001   0.00000  Uiso   1.00
O824   O     0.10947   0.50000   0.82681   0.00000  Uiso   1.00
O825   O     0.18591   0.49999   0.82681   0.00000  Uiso   1.00
O826   O     0.12843   0.43893   0.75000   0.00000  Uiso   1.00
O827   O     0.20488   0.43892   0.74999   0.00000  Uiso   1.00
O828   O     0.14742   0.50001   0.67319   0.00000  Uiso   1.00
O829   O     0.22387   0.50000   0.67319   0.00000  Uiso   1.00
Zn830  Zn    0.11562   0.50001   0.75000   0.00000  Uiso   1.00
Zn831  Zn    0.21771   0.49999   0.75000   0.00000  Uiso   1.00
Cl832  Cl    0.28720   0.44310   0.59314   0.00000  Uiso   1.00
C833   C     0.02892   0.56608   0.80562   0.00000  Uiso   1.00
O834   O     0.04700   0.56064   0.84012   0.00000  Uiso   1.00
O835   O     0.01993   0.60656   0.79284   0.00000  Uiso   1.00
H836   H     0.03040   0.62858   0.81460   0.00000  Uiso   1.00
Cl837  Cl    0.25610   0.56323   0.82594   0.00000  Uiso   1.00
C838   C     0.16747   0.55576   0.57091   0.00000  Uiso   1.00
O839   O     0.16008   0.57212   0.61610   0.00000  Uiso   1.00
O840   O     0.16072   0.57926   0.52962   0.00000  Uiso   1.00
H841   H     0.14840   0.60851   0.54278   0.00000  Uiso   1.00
C842   C     0.03143   0.50321   0.93032   0.00000  Uiso   1.00
O843   O     0.33239   0.52906   0.94971   0.00000  Uiso   1.00
O844   O     0.02722   0.47213   0.89393   0.00000  Uiso   1.00
H845   H     0.33038   0.47558   0.88478   0.00000  Uiso   1.00
C846   C     0.50016   0.57999   0.74960   0.00000  Uiso   1.00
C847   C     0.48104   0.49445   0.99099   0.00000  Uiso   1.00
C848   C     0.48804   0.48012   0.93720   0.00000  Uiso   1.00
C849   C     0.51935   0.49030   0.51070   0.00000  Uiso   1.00
C850   C     0.55774   0.46213   0.98312   0.00000  Uiso   1.00
C851   C     0.56159   0.44406   0.93254   0.00000  Uiso   1.00
C852   C     0.52779   0.45367   0.90920   0.00000  Uiso   1.00
C853   C     0.51991   0.51197   0.55807   0.00000  Uiso   1.00
C854   C     0.58357   0.46510   0.56087   0.00000  Uiso   1.00
C855   C     0.45432   0.49153   0.91315   0.00000  Uiso   1.00
C856   C     0.53474   0.64571   0.76396   0.00000  Uiso   1.00
C857   C     0.47265   0.49709   0.85270   0.00000  Uiso   1.00
C858   C     0.53459   0.35500   0.76424   0.00000  Uiso   1.00
C859   C     0.50041   0.37588   0.74882   0.00000  Uiso   1.00
C860   C     0.46677   0.35441   0.73242   0.00000  Uiso   1.00
C861   C     0.46700   0.64503   0.73209   0.00000  Uiso   1.00
C862   C     0.50061   0.62417   0.74854   0.00000  Uiso   1.00
C863   C     0.65220   0.47057   0.72050   0.00000  Uiso   1.00
C864   C     0.36647   0.47024   0.72110   0.00000  Uiso   1.00
C865   C     0.34794   0.53032   0.77856   0.00000  Uiso   1.00
C866   C     0.63288   0.52907   0.78037   0.00000  Uiso   1.00
C867   C     0.50011   0.42003   0.74960   0.00000  Uiso   1.00
C868   C     0.52740   0.49942   0.64738   0.00000  Uiso   1.00
C869   C     0.59074   0.45118   0.50752   0.00000  Uiso   1.00
C870   C     0.54626   0.49430   0.58747   0.00000  Uiso   1.00
C871   C     0.40672   0.50319   0.94835   0.00000  Uiso   1.00
C872   C     0.39779   0.51189   0.50412   0.00000  Uiso   1.00
C873   C     0.43476   0.50908   0.52477   0.00000  Uiso   1.00
H874   H     0.56070   0.37151   0.77708   0.00000  Uiso   1.00
H875   H     0.44069   0.37053   0.71957   0.00000  Uiso   1.00
H876   H     0.44129   0.62843   0.71872   0.00000  Uiso   1.00
H877   H     0.64176   0.44686   0.69699   0.00000  Uiso   1.00
H878   H     0.39185   0.44635   0.69790   0.00000  Uiso   1.00
H879   H     0.59070   0.42241   0.91105   0.00000  Uiso   1.00
H880   H     0.61972   0.42916   0.98697   0.00000  Uiso   1.00
H881   H     0.42588   0.51584   0.56822   0.00000  Uiso   1.00
H882   H     0.36186   0.52067   0.53208   0.00000  Uiso   1.00
H883   H     0.53154   0.43836   0.87040   0.00000  Uiso   1.00
H884   H     0.56113   0.62983   0.77634   0.00000  Uiso   1.00
N885   N     0.38093   0.50001   0.75002   0.00000  Uiso   1.00
N886   N     0.61906   0.49998   0.75000   0.00000  Uiso   1.00
O887   O     0.46179   0.56108   0.75001   0.00000  Uiso   1.00
O888   O     0.53823   0.56107   0.75001   0.00000  Uiso   1.00
O889   O     0.44280   0.50000   0.82681   0.00000  Uiso   1.00
O890   O     0.51924   0.49999   0.82681   0.00000  Uiso   1.00
O891   O     0.46177   0.43893   0.75000   0.00000  Uiso   1.00
O892   O     0.53821   0.43892   0.74999   0.00000  Uiso   1.00
O893   O     0.48076   0.50001   0.67319   0.00000  Uiso   1.00
O894   O     0.55720   0.50000   0.67319   0.00000  Uiso   1.00
Zn895  Zn    0.44896   0.50001   0.75000   0.00000  Uiso   1.00
Zn896  Zn    0.55104   0.49999   0.75000   0.00000  Uiso   1.00
Cl897  Cl    0.62053   0.44310   0.59314   0.00000  Uiso   1.00
C898   C     0.36226   0.56608   0.80562   0.00000  Uiso   1.00
O899   O     0.38033   0.56064   0.84012   0.00000  Uiso   1.00
O900   O     0.35327   0.60656   0.79284   0.00000  Uiso   1.00
H901   H     0.36374   0.62858   0.81460   0.00000  Uiso   1.00
Cl902  Cl    0.58944   0.56323   0.82594   0.00000  Uiso   1.00
C903   C     0.50080   0.55576   0.57091   0.00000  Uiso   1.00
O904   O     0.49341   0.57212   0.61610   0.00000  Uiso   1.00
O905   O     0.49405   0.57926   0.52962   0.00000  Uiso   1.00
H906   H     0.48174   0.60851   0.54278   0.00000  Uiso   1.00
C907   C     0.36477   0.50321   0.93032   0.00000  Uiso   1.00
O908   O     0.66572   0.52906   0.94971   0.00000  Uiso   1.00
O909   O     0.36055   0.47213   0.89393   0.00000  Uiso   1.00
H910   H     0.66371   0.47558   0.88478   0.00000  Uiso   1.00
C911   C     0.83349   0.57999   0.74960   0.00000  Uiso   1.00
C912   C     0.81437   0.49445   0.99099   0.00000  Uiso   1.00
C913   C     0.82137   0.48012   0.93720   0.00000  Uiso   1.00
C914   C     0.85268   0.49030   0.51070   0.00000  Uiso   1.00
C915   C     0.89108   0.46213   0.98312   0.00000  Uiso   1.00
C916   C     0.89493   0.44406   0.93254   0.00000  Uiso   1.00
C917   C     0.86113   0.45367   0.90920   0.00000  Uiso   1.00
C918   C     0.85325   0.51197   0.55807   0.00000  Uiso   1.00
C919   C     0.91690   0.46510   0.56087   0.00000  Uiso   1.00
C920   C     0.78766   0.49153   0.91315   0.00000  Uiso   1.00
C921   C     0.86807   0.64571   0.76396   0.00000  Uiso   1.00
C922   C     0.80598   0.49709   0.85270   0.00000  Uiso   1.00
C923   C     0.86792   0.35500   0.76424   0.00000  Uiso   1.00
C924   C     0.83375   0.37588   0.74882   0.00000  Uiso   1.00
C925   C     0.80010   0.35441   0.73242   0.00000  Uiso   1.00
C926   C     0.80033   0.64503   0.73209   0.00000  Uiso   1.00
C927   C     0.83395   0.62417   0.74854   0.00000  Uiso   1.00
C928   C     0.98554   0.47057   0.72050   0.00000  Uiso   1.00
C929   C     0.69981   0.47024   0.72110   0.00000  Uiso   1.00
C930   C     0.68127   0.53032   0.77856   0.00000  Uiso   1.00
C931   C     0.96621   0.52907   0.78037   0.00000  Uiso   1.00
C932   C     0.83344   0.42003   0.74960   0.00000  Uiso   1.00
C933   C     0.86073   0.49942   0.64738   0.00000  Uiso   1.00
C934   C     0.92407   0.45118   0.50752   0.00000  Uiso   1.00
C935   C     0.87960   0.49430   0.58747   0.00000  Uiso   1.00
C936   C     0.74005   0.50319   0.94835   0.00000  Uiso   1.00
C937   C     0.73112   0.51189   0.50412   0.00000  Uiso   1.00
C938   C     0.76809   0.50908   0.52477   0.00000  Uiso   1.00
H939   H     0.89404   0.37151   0.77708   0.00000  Uiso   1.00
H940   H     0.77403   0.37053   0.71957   0.00000  Uiso   1.00
H941   H     0.77462   0.62843   0.71872   0.00000  Uiso   1.00
H942   H     0.97510   0.44686   0.69699   0.00000  Uiso   1.00
H943   H     0.72518   0.44635   0.69790   0.00000  Uiso   1.00
H944   H     0.92403   0.42241   0.91105   0.00000  Uiso   1.00
H945   H     0.95306   0.42916   0.98697   0.00000  Uiso   1.00
H946   H     0.75921   0.51584   0.56822   0.00000  Uiso   1.00
H947   H     0.69519   0.52067   0.53208   0.00000  Uiso   1.00
H948   H     0.86487   0.43836   0.87040   0.00000  Uiso   1.00
H949   H     0.89446   0.62983   0.77634   0.00000  Uiso   1.00
N950   N     0.71426   0.50001   0.75002   0.00000  Uiso   1.00
N951   N     0.95239   0.49998   0.75000   0.00000  Uiso   1.00
O952   O     0.79512   0.56108   0.75001   0.00000  Uiso   1.00
O953   O     0.87157   0.56107   0.75001   0.00000  Uiso   1.00
O954   O     0.77613   0.50000   0.82681   0.00000  Uiso   1.00
O955   O     0.85258   0.49999   0.82681   0.00000  Uiso   1.00
O956   O     0.79510   0.43893   0.75000   0.00000  Uiso   1.00
O957   O     0.87154   0.43892   0.74999   0.00000  Uiso   1.00
O958   O     0.81409   0.50001   0.67319   0.00000  Uiso   1.00
O959   O     0.89053   0.50000   0.67319   0.00000  Uiso   1.00
Zn960  Zn    0.78229   0.50001   0.75000   0.00000  Uiso   1.00
Zn961  Zn    0.88438   0.49999   0.75000   0.00000  Uiso   1.00
Cl962  Cl    0.95387   0.44310   0.59314   0.00000  Uiso   1.00
C963   C     0.69559   0.56608   0.80562   0.00000  Uiso   1.00
O964   O     0.71367   0.56064   0.84012   0.00000  Uiso   1.00
O965   O     0.68660   0.60656   0.79284   0.00000  Uiso   1.00
H966   H     0.69707   0.62858   0.81460   0.00000  Uiso   1.00
Cl967  Cl    0.92277   0.56323   0.82594   0.00000  Uiso   1.00
C968   C     0.83413   0.55576   0.57091   0.00000  Uiso   1.00
O969   O     0.82675   0.57212   0.61610   0.00000  Uiso   1.00
O970   O     0.82739   0.57926   0.52962   0.00000  Uiso   1.00
H971   H     0.81507   0.60851   0.54278   0.00000  Uiso   1.00
C972   C     0.69810   0.50321   0.93032   0.00000  Uiso   1.00
O973   O     0.99905   0.52906   0.94971   0.00000  Uiso   1.00
O974   O     0.69389   0.47213   0.89393   0.00000  Uiso   1.00
H975   H     0.99705   0.47558   0.88478   0.00000  Uiso   1.00
C976   C     0.16682   0.91332   0.74960   0.00000  Uiso   1.00
C977   C     0.14771   0.82778   0.99099   0.00000  Uiso   1.00
C978   C     0.15470   0.81346   0.93720   0.00000  Uiso   1.00
C979   C     0.18602   0.82363   0.51070   0.00000  Uiso   1.00
C980   C     0.22441   0.79546   0.98312   0.00000  Uiso   1.00
C981   C     0.22826   0.77740   0.93254   0.00000  Uiso   1.00
C982   C     0.19446   0.78701   0.90920   0.00000  Uiso   1.00
C983   C     0.18658   0.84530   0.55807   0.00000  Uiso   1.00
C984   C     0.25024   0.79843   0.56087   0.00000  Uiso   1.00
C985   C     0.12099   0.82486   0.91315   0.00000  Uiso   1.00
C986   C     0.20141   0.97904   0.76396   0.00000  Uiso   1.00
C987   C     0.13931   0.83042   0.85270   0.00000  Uiso   1.00
C988   C     0.20125   0.68834   0.76424   0.00000  Uiso   1.00
C989   C     0.16708   0.70921   0.74882   0.00000  Uiso   1.00
C990   C     0.13344   0.68775   0.73242   0.00000  Uiso   1.00
C991   C     0.13367   0.97836   0.73209   0.00000  Uiso   1.00
C992   C     0.16728   0.95750   0.74854   0.00000  Uiso   1.00
C993   C     0.31887   0.80391   0.72050   0.00000  Uiso   1.00
C994   C     0.03314   0.80357   0.72110   0.00000  Uiso   1.00
C995   C     0.01460   0.86365   0.77856   0.00000  Uiso   1.00
C996   C     0.29954   0.86240   0.78037   0.00000  Uiso   1.00
C997   C     0.16678   0.75336   0.74960   0.00000  Uiso   1.00
C998   C     0.19406   0.83275   0.64738   0.00000  Uiso   1.00
C999   C     0.25741   0.78451   0.50752   0.00000  Uiso   1.00
C1000  C     0.21293   0.82764   0.58747   0.00000  Uiso   1.00
C1001  C     0.07339   0.83652   0.94835   0.00000  Uiso   1.00
C1002  C     0.06445   0.84522   0.50412   0.00000  Uiso   1.00
C1003  C     0.10143   0.84241   0.52477   0.00000  Uiso   1.00
H1004  H     0.22737   0.70484   0.77708   0.00000  Uiso   1.00
H1005  H     0.10736   0.70386   0.71957   0.00000  Uiso   1.00
H1006  H     0.10796   0.96176   0.71872   0.00000  Uiso   1.00
H1007  H     0.30843   0.78020   0.69699   0.00000  Uiso   1.00
H1008  H     0.05852   0.77968   0.69790   0.00000  Uiso   1.00
H1009  H     0.25737   0.75575   0.91105   0.00000  Uiso   1.00
H1010  H     0.28639   0.76249   0.98697   0.00000  Uiso   1.00
H1011  H     0.09254   0.84917   0.56822   0.00000  Uiso   1.00
H1012  H     0.02853   0.85400   0.53208   0.00000  Uiso   1.00
H1013  H     0.19820   0.77170   0.87040   0.00000  Uiso   1.00
H1014  H     0.22780   0.96317   0.77634   0.00000  Uiso   1.00
N1015  N     0.04760   0.83334   0.75002   0.00000  Uiso   1.00
N1016  N     0.28573   0.83331   0.75000   0.00000  Uiso   1.00
O1017  O     0.12846   0.89442   0.75001   0.00000  Uiso   1.00
O1018  O     0.20490   0.89441   0.75001   0.00000  Uiso   1.00
O1019  O     0.10947   0.83333   0.82681   0.00000  Uiso   1.00
O1020  O     0.18591   0.83332   0.82681   0.00000  Uiso   1.00
O1021  O     0.12843   0.77226   0.75000   0.00000  Uiso   1.00
O1022  O     0.20488   0.77225   0.74999   0.00000  Uiso   1.00
O1023  O     0.14742   0.83335   0.67319   0.00000  Uiso   1.00
O1024  O     0.22387   0.83334   0.67319   0.00000  Uiso   1.00
Zn1025 Zn    0.11562   0.83334   0.75000   0.00000  Uiso   1.00
Zn1026 Zn    0.21771   0.83333   0.75000   0.00000  Uiso   1.00
Cl1027 Cl    0.28720   0.77644   0.59314   0.00000  Uiso   1.00
C1028  C     0.02892   0.89941   0.80562   0.00000  Uiso   1.00
O1029  O     0.04700   0.89397   0.84012   0.00000  Uiso   1.00
O1030  O     0.01993   0.93989   0.79284   0.00000  Uiso   1.00
H1031  H     0.03040   0.96191   0.81460   0.00000  Uiso   1.00
Cl1032 Cl    0.25610   0.89657   0.82594   0.00000  Uiso   1.00
C1033  C     0.16747   0.88910   0.57091   0.00000  Uiso   1.00
O1034  O     0.16008   0.90545   0.61610   0.00000  Uiso   1.00
O1035  O     0.16072   0.91260   0.52962   0.00000  Uiso   1.00
H1036  H     0.14840   0.94185   0.54278   0.00000  Uiso   1.00
C1037  C     0.03143   0.83654   0.93032   0.00000  Uiso   1.00
O1038  O     0.33239   0.86240   0.94971   0.00000  Uiso   1.00
O1039  O     0.02722   0.80546   0.89393   0.00000  Uiso   1.00
H1040  H     0.33038   0.80892   0.88478   0.00000  Uiso   1.00
C1041  C     0.50016   0.91332   0.74960   0.00000  Uiso   1.00
C1042  C     0.48104   0.82778   0.99099   0.00000  Uiso   1.00
C1043  C     0.48804   0.81346   0.93720   0.00000  Uiso   1.00
C1044  C     0.51935   0.82363   0.51070   0.00000  Uiso   1.00
C1045  C     0.55774   0.79546   0.98312   0.00000  Uiso   1.00
C1046  C     0.56159   0.77740   0.93254   0.00000  Uiso   1.00
C1047  C     0.52779   0.78701   0.90920   0.00000  Uiso   1.00
C1048  C     0.51991   0.84530   0.55807   0.00000  Uiso   1.00
C1049  C     0.58357   0.79843   0.56087   0.00000  Uiso   1.00
C1050  C     0.45432   0.82486   0.91315   0.00000  Uiso   1.00
C1051  C     0.53474   0.97904   0.76396   0.00000  Uiso   1.00
C1052  C     0.47265   0.83042   0.85270   0.00000  Uiso   1.00
C1053  C     0.53459   0.68834   0.76424   0.00000  Uiso   1.00
C1054  C     0.50041   0.70921   0.74882   0.00000  Uiso   1.00
C1055  C     0.46677   0.68775   0.73242   0.00000  Uiso   1.00
C1056  C     0.46700   0.97836   0.73209   0.00000  Uiso   1.00
C1057  C     0.50061   0.95750   0.74854   0.00000  Uiso   1.00
C1058  C     0.65220   0.80391   0.72050   0.00000  Uiso   1.00
C1059  C     0.36647   0.80357   0.72110   0.00000  Uiso   1.00
C1060  C     0.34794   0.86365   0.77856   0.00000  Uiso   1.00
C1061  C     0.63288   0.86240   0.78037   0.00000  Uiso   1.00
C1062  C     0.50011   0.75336   0.74960   0.00000  Uiso   1.00
C1063  C     0.52740   0.83275   0.64738   0.00000  Uiso   1.00
C1064  C     0.59074   0.78451   0.50752   0.00000  Uiso   1.00
C1065  C     0.54626   0.82764   0.58747   0.00000  Uiso   1.00
C1066  C     0.40672   0.83652   0.94835   0.00000  Uiso   1.00
C1067  C     0.39779   0.84522   0.50412   0.00000  Uiso   1.00
C1068  C     0.43476   0.84241   0.52477   0.00000  Uiso   1.00
H1069  H     0.56070   0.70484   0.77708   0.00000  Uiso   1.00
H1070  H     0.44069   0.70386   0.71957   0.00000  Uiso   1.00
H1071  H     0.44129   0.96176   0.71872   0.00000  Uiso   1.00
H1072  H     0.64176   0.78020   0.69699   0.00000  Uiso   1.00
H1073  H     0.39185   0.77968   0.69790   0.00000  Uiso   1.00
H1074  H     0.59070   0.75575   0.91105   0.00000  Uiso   1.00
H1075  H     0.61972   0.76249   0.98697   0.00000  Uiso   1.00
H1076  H     0.42588   0.84917   0.56822   0.00000  Uiso   1.00
H1077  H     0.36186   0.85400   0.53208   0.00000  Uiso   1.00
H1078  H     0.53154   0.77170   0.87040   0.00000  Uiso   1.00
H1079  H     0.56113   0.96317   0.77634   0.00000  Uiso   1.00
N1080  N     0.38093   0.83334   0.75002   0.00000  Uiso   1.00
N1081  N     0.61906   0.83331   0.75000   0.00000  Uiso   1.00
O1082  O     0.46179   0.89442   0.75001   0.00000  Uiso   1.00
O1083  O     0.53823   0.89441   0.75001   0.00000  Uiso   1.00
O1084  O     0.44280   0.83333   0.82681   0.00000  Uiso   1.00
O1085  O     0.51924   0.83332   0.82681   0.00000  Uiso   1.00
O1086  O     0.46177   0.77226   0.75000   0.00000  Uiso   1.00
O1087  O     0.53821   0.77225   0.74999   0.00000  Uiso   1.00
O1088  O     0.48076   0.83335   0.67319   0.00000  Uiso   1.00
O1089  O     0.55720   0.83334   0.67319   0.00000  Uiso   1.00
Zn1090 Zn    0.44896   0.83334   0.75000   0.00000  Uiso   1.00
Zn1091 Zn    0.55104   0.83333   0.75000   0.00000  Uiso   1.00
Cl1092 Cl    0.62053   0.77644   0.59314   0.00000  Uiso   1.00
C1093  C     0.36226   0.89941   0.80562   0.00000  Uiso   1.00
O1094  O     0.38033   0.89397   0.84012   0.00000  Uiso   1.00
O1095  O     0.35327   0.93989   0.79284   0.00000  Uiso   1.00
H1096  H     0.36374   0.96191   0.81460   0.00000  Uiso   1.00
Cl1097 Cl    0.58944   0.89657   0.82594   0.00000  Uiso   1.00
C1098  C     0.50080   0.88910   0.57091   0.00000  Uiso   1.00
O1099  O     0.49341   0.90545   0.61610   0.00000  Uiso   1.00
O1100  O     0.49405   0.91260   0.52962   0.00000  Uiso   1.00
H1101  H     0.48174   0.94185   0.54278   0.00000  Uiso   1.00
C1102  C     0.36477   0.83654   0.93032   0.00000  Uiso   1.00
O1103  O     0.66572   0.86240   0.94971   0.00000  Uiso   1.00
O1104  O     0.36055   0.80546   0.89393   0.00000  Uiso   1.00
H1105  H     0.66371   0.80892   0.88478   0.00000  Uiso   1.00
C1106  C     0.83349   0.91332   0.74960   0.00000  Uiso   1.00
C1107  C     0.81437   0.82778   0.99099   0.00000  Uiso   1.00
C1108  C     0.82137   0.81346   0.93720   0.00000  Uiso   1.00
C1109  C     0.85268   0.82363   0.51070   0.00000  Uiso   1.00
C1110  C     0.89108   0.79546   0.98312   0.00000  Uiso   1.00
C1111  C     0.89493   0.77740   0.93254   0.00000  Uiso   1.00
C1112  C     0.86113   0.78701   0.90920   0.00000  Uiso   1.00
C1113  C     0.85325   0.84530   0.55807   0.00000  Uiso   1.00
C1114  C     0.91690   0.79843   0.56087   0.00000  Uiso   1.00
C1115  C     0.78766   0.82486   0.91315   0.00000  Uiso   1.00
C1116  C     0.86807   0.97904   0.76396   0.00000  Uiso   1.00
C1117  C     0.80598   0.83042   0.85270   0.00000  Uiso   1.00
C1118  C     0.86792   0.68834   0.76424   0.00000  Uiso   1.00
C1119  C     0.83375   0.70921   0.74882   0.00000  Uiso   1.00
C1120  C     0.80010   0.68775   0.73242   0.00000  Uiso   1.00
C1121  C     0.80033   0.97836   0.73209   0.00000  Uiso   1.00
C1122  C     0.83395   0.95750   0.74854   0.00000  Uiso   1.00
C1123  C     0.98554   0.80391   0.72050   0.00000  Uiso   1.00
C1124  C     0.69981   0.80357   0.72110   0.00000  Uiso   1.00
C1125  C     0.68127   0.86365   0.77856   0.00000  Uiso   1.00
C1126  C     0.96621   0.86240   0.78037   0.00000  Uiso   1.00
C1127  C     0.83344   0.75336   0.74960   0.00000  Uiso   1.00
C1128  C     0.86073   0.83275   0.64738   0.00000  Uiso   1.00
C1129  C     0.92407   0.78451   0.50752   0.00000  Uiso   1.00
C1130  C     0.87960   0.82764   0.58747   0.00000  Uiso   1.00
C1131  C     0.74005   0.83652   0.94835   0.00000  Uiso   1.00
C1132  C     0.73112   0.84522   0.50412   0.00000  Uiso   1.00
C1133  C     0.76809   0.84241   0.52477   0.00000  Uiso   1.00
H1134  H     0.89404   0.70484   0.77708   0.00000  Uiso   1.00
H1135  H     0.77403   0.70386   0.71957   0.00000  Uiso   1.00
H1136  H     0.77462   0.96176   0.71872   0.00000  Uiso   1.00
H1137  H     0.97510   0.78020   0.69699   0.00000  Uiso   1.00
H1138  H     0.72518   0.77968   0.69790   0.00000  Uiso   1.00
H1139  H     0.92403   0.75575   0.91105   0.00000  Uiso   1.00
H1140  H     0.95306   0.76249   0.98697   0.00000  Uiso   1.00
H1141  H     0.75921   0.84917   0.56822   0.00000  Uiso   1.00
H1142  H     0.69519   0.85400   0.53208   0.00000  Uiso   1.00
H1143  H     0.86487   0.77170   0.87040   0.00000  Uiso   1.00
H1144  H     0.89446   0.96317   0.77634   0.00000  Uiso   1.00
N1145  N     0.71426   0.83334   0.75002   0.00000  Uiso   1.00
N1146  N     0.95239   0.83331   0.75000   0.00000  Uiso   1.00
O1147  O     0.79512   0.89442   0.75001   0.00000  Uiso   1.00
O1148  O     0.87157   0.89441   0.75001   0.00000  Uiso   1.00
O1149  O     0.77613   0.83333   0.82681   0.00000  Uiso   1.00
O1150  O     0.85258   0.83332   0.82681   0.00000  Uiso   1.00
O1151  O     0.79510   0.77226   0.75000   0.00000  Uiso   1.00
O1152  O     0.87154   0.77225   0.74999   0.00000  Uiso   1.00
O1153  O     0.81409   0.83335   0.67319   0.00000  Uiso   1.00
O1154  O     0.89053   0.83334   0.67319   0.00000  Uiso   1.00
Zn1155 Zn    0.78229   0.83334   0.75000   0.00000  Uiso   1.00
Zn1156 Zn    0.88438   0.83333   0.75000   0.00000  Uiso   1.00
Cl1157 Cl    0.95387   0.77644   0.59314   0.00000  Uiso   1.00
C1158  C     0.69559   0.89941   0.80562   0.00000  Uiso   1.00
O1159  O     0.71367   0.89397   0.84012   0.00000  Uiso   1.00
O1160  O     0.68660   0.93989   0.79284   0.00000  Uiso   1.00
H1161  H     0.69707   0.96191   0.81460   0.00000  Uiso   1.00
Cl1162 Cl    0.92277   0.89657   0.82594   0.00000  Uiso   1.00
C1163  C     0.83413   0.88910   0.57091   0.00000  Uiso   1.00
O1164  O     0.82675   0.90545   0.61610   0.00000  Uiso   1.00
O1165  O     0.82739   0.91260   0.52962   0.00000  Uiso   1.00
H1166  H     0.81507   0.94185   0.54278   0.00000  Uiso   1.00
C1167  C     0.69810   0.83654   0.93032   0.00000  Uiso   1.00
O1168  O     0.99905   0.86240   0.94971   0.00000  Uiso   1.00
O1169  O     0.69389   0.80546   0.89393   0.00000  Uiso   1.00
H1170  H     0.99705   0.80892   0.88478   0.00000  Uiso   1.00
loop_
_geom_bond_atom_site_label_1
_geom_bond_atom_site_label_2
_geom_bond_distance
_geom_bond_site_symmetry_2
_ccdc_geom_bond_type
C1     C17     1.420   .     S
C1     O42     1.288   .     A
C1     O43     1.287   .     A
C2     C3      1.407   .     A
C2     C589    1.415   .     S
C2     C613    1.410   .     S
C3     C10     1.412   .     A
C3     C7      1.412   .     A
C4     C8      1.409   .     A
C4     C587    1.415   1_554 S
C4     C590    1.418   1_554 S
C5     C6      1.394   .     A
C5     C589    1.418   .     S
C5     C609    1.396   .     S
C6     C7      1.387   .     A
C6     H34     1.084   .     S
C7     H38     1.083   .     S
C8     C25     1.405   .     A
C8     C58     1.501   .     S
C9     C24     1.391   .     A
C9     C25     1.414   .     A
C9     Cl52    1.762   .     S
C10    C26     1.422   .     A
C10    C12     1.483   .     S
C11    H39     1.081   .     S
C11    C17     1.397   .     A
C11    C208    1.369   .     S
C12    O45     1.305   .     A
C12    O44     1.298   .     A
C13    C14     1.395   .     A
C13    H29     1.084   .     S
C13    C401    1.369   1_545 S
C14    C22     1.418   .     S
C14    C15     1.397   .     A
C15    H30     1.084   .     S
C15    C406    1.372   1_545 S
C16    H31     1.083   .     S
C16    C17     1.396   .     A
C16    C210    1.372   .     S
C18    H32     1.081   .     S
C18    N41     1.367   .     A
C18    C84     1.419   .     S
C19    N40     1.367   .     A
C19    H33     1.082   .     S
C19    C148    1.419   1_455 S
C20    C53     1.476   .     S
C20    N40     1.378   .     A
C20    C151    1.421   1_455 S
C21    Cl57    1.763   .     S
C21    N41     1.368   .     A
C21    C85     1.421   .     S
C22    O47     1.287   .     A
C22    O46     1.286   .     A
C23    C25     1.460   .     S
C23    O49     1.291   .     A
C23    O48     1.301   .     A
C24    C590    1.396   1_554 S
C24    H620    1.084   1_554 S
C26    C62     1.482   .     S
C26    C612    1.401   .     S
C27    H37     1.084   .     S
C27    C28     1.390   .     A
C27    C611    1.401   1_554 S
C28    H36     1.082   .     S
C28    C587    1.410   1_554 S
H35    C609    1.084   .     S
N40    Zn50    2.019   .     S
N41    Zn51    2.019   .     S
O42    Zn50    1.998   .     S
O43    Zn51    1.998   .     S
O44    Zn50    1.942   .     S
O45    Zn51    1.877   .     S
O46    Zn50    1.998   .     S
O47    Zn51    1.998   .     S
O48    Zn50    1.877   .     S
O49    Zn51    1.942   .     S
C53    O55     1.398   .     S
C53    O54     1.218   .     D
O55    H56     1.014   .     S
C58    O60     1.400   .     S
C58    O59     1.223   .     D
O60    H61     1.014   .     S
C62    O64     1.398   .     S
C62    O193    1.224   1_455 S
O63    C127    1.224   .     S
O64    H195    1.014   1_455 S
H65    O129    1.014   .     S
C66    C82     1.420   .     S
C66    O107    1.288   .     A
C66    O108    1.287   .     A
C67    C68     1.407   .     A
C67    C654    1.415   .     S
C67    C678    1.410   .     S
C68    C75     1.412   .     A
C68    C72     1.412   .     A
C69    C73     1.409   .     A
C69    C652    1.415   1_554 S
C69    C655    1.418   1_554 S
C70    C71     1.394   .     A
C70    C654    1.418   .     S
C70    C674    1.396   .     S
C71    C72     1.387   .     A
C71    H99     1.084   .     S
C72    H103    1.083   .     S
C73    C90     1.405   .     A
C73    C123    1.501   .     S
C74    C89     1.391   .     A
C74    C90     1.414   .     A
C74    Cl117   1.762   .     S
C75    C91     1.422   .     A
C75    C77     1.483   .     S
C76    H104    1.081   .     S
C76    C82     1.397   .     A
C76    C273    1.369   .     S
C77    O110    1.305   .     A
C77    O109    1.298   .     A
C78    C79     1.395   .     A
C78    H94     1.084   .     S
C78    C466    1.369   1_545 S
C79    C87     1.418   .     S
C79    C80     1.397   .     A
C80    H95     1.084   .     S
C80    C471    1.372   1_545 S
C81    H96     1.083   .     S
C81    C82     1.396   .     A
C81    C275    1.372   .     S
C83    H97     1.081   .     S
C83    N106    1.367   .     A
C83    C149    1.419   .     S
C84    N105    1.367   .     A
C84    H98     1.082   .     S
C85    C118    1.476   .     S
C85    N105    1.378   .     A
C86    Cl122   1.763   .     S
C86    N106    1.368   .     A
C86    C150    1.421   .     S
C87    O112    1.287   .     A
C87    O111    1.286   .     A
C88    C90     1.460   .     S
C88    O114    1.291   .     A
C88    O113    1.301   .     A
C89    C655    1.396   1_554 S
C89    H685    1.084   1_554 S
C91    C127    1.482   .     S
C91    C677    1.401   .     S
C92    H102    1.084   .     S
C92    C93     1.390   .     A
C92    C676    1.401   1_554 S
C93    H101    1.082   .     S
C93    C652    1.410   1_554 S
H100   C674    1.084   .     S
N105   Zn115   2.019   .     S
N106   Zn116   2.019   .     S
O107   Zn115   1.998   .     S
O108   Zn116   1.998   .     S
O109   Zn115   1.942   .     S
O110   Zn116   1.877   .     S
O111   Zn115   1.998   .     S
O112   Zn116   1.998   .     S
O113   Zn115   1.877   .     S
O114   Zn116   1.942   .     S
C118   O120    1.398   .     S
C118   O119    1.218   .     D
O120   H121    1.014   .     S
C123   O125    1.400   .     S
C123   O124    1.223   .     D
O125   H126    1.014   .     S
C127   O129    1.398   .     S
O128   C192    1.224   .     S
H130   O194    1.014   .     S
C131   C147    1.420   .     S
C131   O172    1.288   .     A
C131   O173    1.287   .     A
C132   C133    1.407   .     A
C132   C719    1.415   .     S
C132   C743    1.410   .     S
C133   C140    1.412   .     A
C133   C137    1.412   .     A
C134   C138    1.409   .     A
C134   C717    1.415   1_554 S
C134   C720    1.418   1_554 S
C135   C136    1.394   .     A
C135   C719    1.418   .     S
C135   C739    1.396   .     S
C136   C137    1.387   .     A
C136   H164    1.084   .     S
C137   H168    1.083   .     S
C138   C155    1.405   .     A
C138   C188    1.501   .     S
C139   C154    1.391   .     A
C139   C155    1.414   .     A
C139   Cl182   1.762   .     S
C140   C156    1.422   .     A
C140   C142    1.483   .     S
C141   H169    1.081   .     S
C141   C147    1.397   .     A
C141   C338    1.369   .     S
C142   O175    1.305   .     A
C142   O174    1.298   .     A
C143   C144    1.395   .     A
C143   H159    1.084   .     S
C143   C531    1.369   1_545 S
C144   C152    1.418   .     S
C144   C145    1.397   .     A
C145   H160    1.084   .     S
C145   C536    1.372   1_545 S
C146   H161    1.083   .     S
C146   C147    1.396   .     A
C146   C340    1.372   .     S
C148   H162    1.081   .     S
C148   N171    1.367   .     A
C148   C19     1.419   1_655 S
C149   N170    1.367   .     A
C149   H163    1.082   .     S
C150   C183    1.476   .     S
C150   N170    1.378   .     A
C151   Cl187   1.763   .     S
C151   N171    1.368   .     A
C151   C20     1.421   1_655 S
C152   O177    1.287   .     A
C152   O176    1.286   .     A
C153   C155    1.460   .     S
C153   O179    1.291   .     A
C153   O178    1.301   .     A
C154   C720    1.396   1_554 S
C154   H750    1.084   1_554 S
C156   C192    1.482   .     S
C156   C742    1.401   .     S
C157   H167    1.084   .     S
C157   C158    1.390   .     A
C157   C741    1.401   1_554 S
C158   H166    1.082   .     S
C158   C717    1.410   1_554 S
H165   C739    1.084   .     S
N170   Zn180   2.019   .     S
N171   Zn181   2.019   .     S
O172   Zn180   1.998   .     S
O173   Zn181   1.998   .     S
O174   Zn180   1.942   .     S
O175   Zn181   1.877   .     S
O176   Zn180   1.998   .     S
O177   Zn181   1.998   .     S
O178   Zn180   1.877   .     S
O179   Zn181   1.942   .     S
C183   O185    1.398   .     S
C183   O184    1.218   .     D
O185   H186    1.014   .     S
C188   O190    1.400   .     S
C188   O189    1.223   .     D
O190   H191    1.014   .     S
C192   O194    1.398   .     S
O193   C62     1.224   1_655 S
H195   O64     1.014   1_655 S
C196   C212    1.420   .     S
C196   O237    1.288   .     A
C196   O238    1.287   .     A
C197   C198    1.407   .     A
C197   C784    1.415   .     S
C197   C808    1.410   .     S
C198   C205    1.412   .     A
C198   C202    1.412   .     A
C199   C203    1.409   .     A
C199   C782    1.415   1_554 S
C199   C785    1.418   1_554 S
C200   C201    1.394   .     A
C200   C784    1.418   .     S
C200   C804    1.396   .     S
C201   C202    1.387   .     A
C201   H229    1.084   .     S
C202   H233    1.083   .     S
C203   C220    1.405   .     A
C203   C253    1.501   .     S
C204   C219    1.391   .     A
C204   C220    1.414   .     A
C204   Cl247   1.762   .     S
C205   C221    1.422   .     A
C205   C207    1.483   .     S
C206   H234    1.081   .     S
C206   C212    1.397   .     A
C206   C403    1.369   .     S
C207   O240    1.305   .     A
C207   O239    1.298   .     A
C208   C209    1.395   .     A
C208   H224    1.084   .     S
C209   C217    1.418   .     S
C209   C210    1.397   .     A
C210   H225    1.084   .     S
C211   H226    1.083   .     S
C211   C212    1.396   .     A
C211   C405    1.372   .     S
C213   H227    1.081   .     S
C213   N236    1.367   .     A
C213   C279    1.419   .     S
C214   N235    1.367   .     A
C214   H228    1.082   .     S
C214   C343    1.419   1_455 S
C215   C248    1.476   .     S
C215   N235    1.378   .     A
C215   C346    1.421   1_455 S
C216   Cl252   1.763   .     S
C216   N236    1.368   .     A
C216   C280    1.421   .     S
C217   O242    1.287   .     A
C217   O241    1.286   .     A
C218   C220    1.460   .     S
C218   O244    1.291   .     A
C218   O243    1.301   .     A
C219   C785    1.396   1_554 S
C219   H815    1.084   1_554 S
C221   C257    1.482   .     S
C221   C807    1.401   .     S
C222   H232    1.084   .     S
C222   C223    1.390   .     A
C222   C806    1.401   1_554 S
C223   H231    1.082   .     S
C223   C782    1.410   1_554 S
H230   C804    1.084   .     S
N235   Zn245   2.019   .     S
N236   Zn246   2.019   .     S
O237   Zn245   1.998   .     S
O238   Zn246   1.998   .     S
O239   Zn245   1.942   .     S
O240   Zn246   1.877   .     S
O241   Zn245   1.998   .     S
O242   Zn246   1.998   .     S
O243   Zn245   1.877   .     S
O244   Zn246   1.942   .     S
C248   O250    1.398   .     S
C248   O249    1.218   .     D
O250   H251    1.014   .     S
C253   O255    1.400   .     S
C253   O254    1.223   .     D
O255   H256    1.014   .     S
C257   O259    1.398   .     S
C257   O388    1.224   1_455 S
O258   C322    1.224   .     S
O259   H390    1.014   1_455 S
H260   O324    1.014   .     S
C261   C277    1.420   .     S
C261   O302    1.288   .     A
C261   O303    1.287   .     A
C262   C263    1.407   .     A
C262   C849    1.415   .     S
C262   C873    1.410   .     S
C263   C270    1.412   .     A
C263   C267    1.412   .     A
C264   C268    1.409   .     A
C264   C847    1.415   1_554 S
C264   C850    1.418   1_554 S
C265   C266    1.394   .     A
C265   C849    1.418   .     S
C265   C869    1.396   .     S
C266   C267    1.387   .     A
C266   H294    1.084   .     S
C267   H298    1.083   .     S
C268   C285    1.405   .     A
C268   C318    1.501   .     S
C269   C284    1.391   .     A
C269   C285    1.414   .     A
C269   Cl312   1.762   .     S
C270   C286    1.422   .     A
C270   C272    1.483   .     S
C271   H299    1.081   .     S
C271   C277    1.397   .     A
C271   C468    1.369   .     S
C272   O305    1.305   .     A
C272   O304    1.298   .     A
C273   C274    1.395   .     A
C273   H289    1.084   .     S
C274   C282    1.418   .     S
C274   C275    1.397   .     A
C275   H290    1.084   .     S
C276   H291    1.083   .     S
C276   C277    1.396   .     A
C276   C470    1.372   .     S
C278   H292    1.081   .     S
C278   N301    1.367   .     A
C278   C344    1.419   .     S
C279   N300    1.367   .     A
C279   H293    1.082   .     S
C280   C313    1.476   .     S
C280   N300    1.378   .     A
C281   Cl317   1.763   .     S
C281   N301    1.368   .     A
C281   C345    1.421   .     S
C282   O307    1.287   .     A
C282   O306    1.286   .     A
C283   C285    1.460   .     S
C283   O309    1.291   .     A
C283   O308    1.301   .     A
C284   C850    1.396   1_554 S
C284   H880    1.084   1_554 S
C286   C322    1.482   .     S
C286   C872    1.401   .     S
C287   H297    1.084   .     S
C287   C288    1.390   .     A
C287   C871    1.401   1_554 S
C288   H296    1.082   .     S
C288   C847    1.410   1_554 S
H295   C869    1.084   .     S
N300   Zn310   2.019   .     S
N301   Zn311   2.019   .     S
O302   Zn310   1.998   .     S
O303   Zn311   1.998   .     S
O304   Zn310   1.942   .     S
O305   Zn311   1.877   .     S
O306   Zn310   1.998   .     S
O307   Zn311   1.998   .     S
O308   Zn310   1.877   .     S
O309   Zn311   1.942   .     S
C313   O315    1.398   .     S
C313   O314    1.218   .     D
O315   H316    1.014   .     S
C318   O320    1.400   .     S
C318   O319    1.223   .     D
O320   H321    1.014   .     S
C322   O324    1.398   .     S
O323   C387    1.224   .     S
H325   O389    1.014   .     S
C326   C342    1.420   .     S
C326   O367    1.288   .     A
C326   O368    1.287   .     A
C327   C328    1.407   .     A
C327   C914    1.415   .     S
C327   C938    1.410   .     S
C328   C335    1.412   .     A
C328   C332    1.412   .     A
C329   C333    1.409   .     A
C329   C912    1.415   1_554 S
C329   C915    1.418   1_554 S
C330   C331    1.394   .     A
C330   C914    1.418   .     S
C330   C934    1.396   .     S
C331   C332    1.387   .     A
C331   H359    1.084   .     S
C332   H363    1.083   .     S
C333   C350    1.405   .     A
C333   C383    1.501   .     S
C334   C349    1.391   .     A
C334   C350    1.414   .     A
C334   Cl377   1.762   .     S
C335   C351    1.422   .     A
C335   C337    1.483   .     S
C336   H364    1.081   .     S
C336   C342    1.397   .     A
C336   C533    1.369   .     S
C337   O370    1.305   .     A
C337   O369    1.298   .     A
C338   C339    1.395   .     A
C338   H354    1.084   .     S
C339   C347    1.418   .     S
C339   C340    1.397   .     A
C340   H355    1.084   .     S
C341   H356    1.083   .     S
C341   C342    1.396   .     A
C341   C535    1.372   .     S
C343   H357    1.081   .     S
C343   N366    1.367   .     A
C343   C214    1.419   1_655 S
C344   N365    1.367   .     A
C344   H358    1.082   .     S
C345   C378    1.476   .     S
C345   N365    1.378   .     A
C346   Cl382   1.763   .     S
C346   N366    1.368   .     A
C346   C215    1.421   1_655 S
C347   O372    1.287   .     A
C347   O371    1.286   .     A
C348   C350    1.460   .     S
C348   O374    1.291   .     A
C348   O373    1.301   .     A
C349   C915    1.396   1_554 S
C349   H945    1.084   1_554 S
C351   C387    1.482   .     S
C351   C937    1.401   .     S
C352   H362    1.084   .     S
C352   C353    1.390   .     A
C352   C936    1.401   1_554 S
C353   H361    1.082   .     S
C353   C912    1.410   1_554 S
H360   C934    1.084   .     S
N365   Zn375   2.019   .     S
N366   Zn376   2.019   .     S
O367   Zn375   1.998   .     S
O368   Zn376   1.998   .     S
O369   Zn375   1.942   .     S
O370   Zn376   1.877   .     S
O371   Zn375   1.998   .     S
O372   Zn376   1.998   .     S
O373   Zn375   1.877   .     S
O374   Zn376   1.942   .     S
C378   O380    1.398   .     S
C378   O379    1.218   .     D
O380   H381    1.014   .     S
C383   O385    1.400   .     S
C383   O384    1.223   .     D
O385   H386    1.014   .     S
C387   O389    1.398   .     S
O388   C257    1.224   1_655 S
H390   O259    1.014   1_655 S
C391   C407    1.420   .     S
C391   O432    1.288   .     A
C391   O433    1.287   .     A
C392   C393    1.407   .     A
C392   C979    1.415   .     S
C392   C1003   1.410   .     S
C393   C400    1.412   .     A
C393   C397    1.412   .     A
C394   C398    1.409   .     A
C394   C977    1.415   1_554 S
C394   C980    1.418   1_554 S
C395   C396    1.394   .     A
C395   C979    1.418   .     S
C395   C999    1.396   .     S
C396   C397    1.387   .     A
C396   H424    1.084   .     S
C397   H428    1.083   .     S
C398   C415    1.405   .     A
C398   C448    1.501   .     S
C399   C414    1.391   .     A
C399   C415    1.414   .     A
C399   Cl442   1.762   .     S
C400   C416    1.422   .     A
C400   C402    1.483   .     S
C401   H429    1.081   .     S
C401   C407    1.397   .     A
C401   C13     1.369   1_565 S
C402   O435    1.305   .     A
C402   O434    1.298   .     A
C403   C404    1.395   .     A
C403   H419    1.084   .     S
C404   C412    1.418   .     S
C404   C405    1.397   .     A
C405   H420    1.084   .     S
C406   H421    1.083   .     S
C406   C407    1.396   .     A
C406   C15     1.372   1_565 S
C408   H422    1.081   .     S
C408   N431    1.367   .     A
C408   C474    1.419   .     S
C409   N430    1.367   .     A
C409   H423    1.082   .     S
C409   C538    1.419   1_455 S
C410   C443    1.476   .     S
C410   N430    1.378   .     A
C410   C541    1.421   1_455 S
C411   Cl447   1.763   .     S
C411   N431    1.368   .     A
C411   C475    1.421   .     S
C412   O437    1.287   .     A
C412   O436    1.286   .     A
C413   C415    1.460   .     S
C413   O439    1.291   .     A
C413   O438    1.301   .     A
C414   C980    1.396   1_554 S
C414   H1010   1.084   1_554 S
C416   C452    1.482   .     S
C416   C1002   1.401   .     S
C417   H427    1.084   .     S
C417   C418    1.390   .     A
C417   C1001   1.401   1_554 S
C418   H426    1.082   .     S
C418   C977    1.410   1_554 S
H425   C999    1.084   .     S
N430   Zn440   2.019   .     S
N431   Zn441   2.019   .     S
O432   Zn440   1.998   .     S
O433   Zn441   1.998   .     S
O434   Zn440   1.942   .     S
O435   Zn441   1.877   .     S
O436   Zn440   1.998   .     S
O437   Zn441   1.998   .     S
O438   Zn440   1.877   .     S
O439   Zn441   1.942   .     S
C443   O445    1.398   .     S
C443   O444    1.218   .     D
O445   H446    1.014   .     S
C448   O450    1.400   .     S
C448   O449    1.223   .     D
O450   H451    1.014   .     S
C452   O454    1.398   .     S
C452   O583    1.224   1_455 S
O453   C517    1.224   .     S
O454   H585    1.014   1_455 S
H455   O519    1.014   .     S
C456   C472    1.420   .     S
C456   O497    1.288   .     A
C456   O498    1.287   .     A
C457   C458    1.407   .     A
C457   C1044   1.415   .     S
C457   C1068   1.410   .     S
C458   C465    1.412   .     A
C458   C462    1.412   .     A
C459   C463    1.409   .     A
C459   C1042   1.415   1_554 S
C459   C1045   1.418   1_554 S
C460   C461    1.394   .     A
C460   C1044   1.418   .     S
C460   C1064   1.396   .     S
C461   C462    1.387   .     A
C461   H489    1.084   .     S
C462   H493    1.083   .     S
C463   C480    1.405   .     A
C463   C513    1.501   .     S
C464   C479    1.391   .     A
C464   C480    1.414   .     A
C464   Cl507   1.762   .     S
C465   C481    1.422   .     A
C465   C467    1.483   .     S
C466   H494    1.081   .     S
C466   C472    1.397   .     A
C466   C78     1.369   1_565 S
C467   O500    1.305   .     A
C467   O499    1.298   .     A
C468   C469    1.395   .     A
C468   H484    1.084   .     S
C469   C477    1.418   .     S
C469   C470    1.397   .     A
C470   H485    1.084   .     S
C471   H486    1.083   .     S
C471   C472    1.396   .     A
C471   C80     1.372   1_565 S
C473   H487    1.081   .     S
C473   N496    1.367   .     A
C473   C539    1.419   .     S
C474   N495    1.367   .     A
C474   H488    1.082   .     S
C475   C508    1.476   .     S
C475   N495    1.378   .     A
C476   Cl512   1.763   .     S
C476   N496    1.368   .     A
C476   C540    1.421   .     S
C477   O502    1.287   .     A
C477   O501    1.286   .     A
C478   C480    1.460   .     S
C478   O504    1.291   .     A
C478   O503    1.301   .     A
C479   C1045   1.396   1_554 S
C479   H1075   1.084   1_554 S
C481   C517    1.482   .     S
C481   C1067   1.401   .     S
C482   H492    1.084   .     S
C482   C483    1.390   .     A
C482   C1066   1.401   1_554 S
C483   H491    1.082   .     S
C483   C1042   1.410   1_554 S
H490   C1064   1.084   .     S
N495   Zn505   2.019   .     S
N496   Zn506   2.019   .     S
O497   Zn505   1.998   .     S
O498   Zn506   1.998   .     S
O499   Zn505   1.942   .     S
O500   Zn506   1.877   .     S
O501   Zn505   1.998   .     S
O502   Zn506   1.998   .     S
O503   Zn505   1.877   .     S
O504   Zn506   1.942   .     S
C508   O510    1.398   .     S
C508   O509    1.218   .     D
O510   H511    1.014   .     S
C513   O515    1.400   .     S
C513   O514    1.223   .     D
O515   H516    1.014   .     S
C517   O519    1.398   .     S
O518   C582    1.224   .     S
H520   O584    1.014   .     S
C521   C537    1.420   .     S
C521   O562    1.288   .     A
C521   O563    1.287   .     A
C522   C523    1.407   .     A
C522   C1109   1.415   .     S
C522   C1133   1.410   .     S
C523   C530    1.412   .     A
C523   C527    1.412   .     A
C524   C528    1.409   .     A
C524   C1107   1.415   1_554 S
C524   C1110   1.418   1_554 S
C525   C526    1.394   .     A
C525   C1109   1.418   .     S
C525   C1129   1.396   .     S
C526   C527    1.387   .     A
C526   H554    1.084   .     S
C527   H558    1.083   .     S
C528   C545    1.405   .     A
C528   C578    1.501   .     S
C529   C544    1.391   .     A
C529   C545    1.414   .     A
C529   Cl572   1.762   .     S
C530   C546    1.422   .     A
C530   C532    1.483   .     S
C531   H559    1.081   .     S
C531   C537    1.397   .     A
C531   C143    1.369   1_565 S
C532   O565    1.305   .     A
C532   O564    1.298   .     A
C533   C534    1.395   .     A
C533   H549    1.084   .     S
C534   C542    1.418   .     S
C534   C535    1.397   .     A
C535   H550    1.084   .     S
C536   H551    1.083   .     S
C536   C537    1.396   .     A
C536   C145    1.372   1_565 S
C538   H552    1.081   .     S
C538   N561    1.367   .     A
C538   C409    1.419   1_655 S
C539   N560    1.367   .     A
C539   H553    1.082   .     S
C540   C573    1.476   .     S
C540   N560    1.378   .     A
C541   Cl577   1.763   .     S
C541   N561    1.368   .     A
C541   C410    1.421   1_655 S
C542   O567    1.287   .     A
C542   O566    1.286   .     A
C543   C545    1.460   .     S
C543   O569    1.291   .     A
C543   O568    1.301   .     A
C544   C1110   1.396   1_554 S
C544   H1140   1.084   1_554 S
C546   C582    1.482   .     S
C546   C1132   1.401   .     S
C547   H557    1.084   .     S
C547   C548    1.390   .     A
C547   C1131   1.401   1_554 S
C548   H556    1.082   .     S
C548   C1107   1.410   1_554 S
H555   C1129   1.084   .     S
N560   Zn570   2.019   .     S
N561   Zn571   2.019   .     S
O562   Zn570   1.998   .     S
O563   Zn571   1.998   .     S
O564   Zn570   1.942   .     S
O565   Zn571   1.877   .     S
O566   Zn570   1.998   .     S
O567   Zn571   1.998   .     S
O568   Zn570   1.877   .     S
O569   Zn571   1.942   .     S
C573   O575    1.398   .     S
C573   O574    1.218   .     D
O575   H576    1.014   .     S
C578   O580    1.400   .     S
C578   O579    1.223   .     D
O580   H581    1.014   .     S
C582   O584    1.398   .     S
O583   C452    1.224   1_655 S
H585   O454    1.014   1_655 S
C586   C602    1.420   .     S
C586   O627    1.288   .     A
C586   O628    1.287   .     A
C587   C588    1.407   .     A
C587   C4      1.415   1_556 S
C587   C28     1.410   1_556 S
C588   C595    1.412   .     A
C588   C592    1.412   .     A
C589   C593    1.409   .     A
C590   C591    1.394   .     A
C590   C4      1.418   1_556 S
C590   C24     1.396   1_556 S
C591   C592    1.387   .     A
C591   H619    1.084   .     S
C592   H623    1.083   .     S
C593   C610    1.405   .     A
C593   C643    1.501   .     S
C594   C609    1.391   .     A
C594   C610    1.414   .     A
C594   Cl637   1.762   .     S
C595   C611    1.422   .     A
C595   C597    1.483   .     S
C596   H624    1.081   .     S
C596   C602    1.397   .     A
C596   C793    1.369   .     S
C597   O630    1.305   .     A
C597   O629    1.298   .     A
C598   C599    1.395   .     A
C598   H614    1.084   .     S
C598   C986    1.369   1_545 S
C599   C607    1.418   .     S
C599   C600    1.397   .     A
C600   H615    1.084   .     S
C600   C991    1.372   1_545 S
C601   H616    1.083   .     S
C601   C602    1.396   .     A
C601   C795    1.372   .     S
C603   H617    1.081   .     S
C603   N626    1.367   .     A
C603   C669    1.419   .     S
C604   N625    1.367   .     A
C604   H618    1.082   .     S
C604   C733    1.419   1_455 S
C605   C638    1.476   .     S
C605   N625    1.378   .     A
C605   C736    1.421   1_455 S
C606   Cl642   1.763   .     S
C606   N626    1.368   .     A
C606   C670    1.421   .     S
C607   O632    1.287   .     A
C607   O631    1.286   .     A
C608   C610    1.460   .     S
C608   O634    1.291   .     A
C608   O633    1.301   .     A
C611   C647    1.482   .     S
C611   C27     1.401   1_556 S
C612   H622    1.084   .     S
C612   C613    1.390   .     A
C613   H621    1.082   .     S
H620   C24     1.084   1_556 S
N625   Zn635   2.019   .     S
N626   Zn636   2.019   .     S
O627   Zn635   1.998   .     S
O628   Zn636   1.998   .     S
O629   Zn635   1.942   .     S
O630   Zn636   1.877   .     S
O631   Zn635   1.998   .     S
O632   Zn636   1.998   .     S
O633   Zn635   1.877   .     S
O634   Zn636   1.942   .     S
C638   O640    1.398   .     S
C638   O639    1.218   .     D
O640   H641    1.014   .     S
C643   O645    1.400   .     S
C643   O644    1.223   .     D
O645   H646    1.014   .     S
C647   O649    1.398   .     S
C647   O778    1.224   1_455 S
O648   C712    1.224   .     S
O649   H780    1.014   1_455 S
H650   O714    1.014   .     S
C651   C667    1.420   .     S
C651   O692    1.288   .     A
C651   O693    1.287   .     A
C652   C653    1.407   .     A
C652   C69     1.415   1_556 S
C652   C93     1.410   1_556 S
C653   C660    1.412   .     A
C653   C657    1.412   .     A
C654   C658    1.409   .     A
C655   C656    1.394   .     A
C655   C69     1.418   1_556 S
C655   C89     1.396   1_556 S
C656   C657    1.387   .     A
C656   H684    1.084   .     S
C657   H688    1.083   .     S
C658   C675    1.405   .     A
C658   C708    1.501   .     S
C659   C674    1.391   .     A
C659   C675    1.414   .     A
C659   Cl702   1.762   .     S
C660   C676    1.422   .     A
C660   C662    1.483   .     S
C661   H689    1.081   .     S
C661   C667    1.397   .     A
C661   C858    1.369   .     S
C662   O695    1.305   .     A
C662   O694    1.298   .     A
C663   C664    1.395   .     A
C663   H679    1.084   .     S
C663   C1051   1.369   1_545 S
C664   C672    1.418   .     S
C664   C665    1.397   .     A
C665   H680    1.084   .     S
C665   C1056   1.372   1_545 S
C666   H681    1.083   .     S
C666   C667    1.396   .     A
C666   C860    1.372   .     S
C668   H682    1.081   .     S
C668   N691    1.367   .     A
C668   C734    1.419   .     S
C669   N690    1.367   .     A
C669   H683    1.082   .     S
C670   C703    1.476   .     S
C670   N690    1.378   .     A
C671   Cl707   1.763   .     S
C671   N691    1.368   .     A
C671   C735    1.421   .     S
C672   O697    1.287   .     A
C672   O696    1.286   .     A
C673   C675    1.460   .     S
C673   O699    1.291   .     A
C673   O698    1.301   .     A
C676   C712    1.482   .     S
C676   C92     1.401   1_556 S
C677   H687    1.084   .     S
C677   C678    1.390   .     A
C678   H686    1.082   .     S
H685   C89     1.084   1_556 S
N690   Zn700   2.019   .     S
N691   Zn701   2.019   .     S
O692   Zn700   1.998   .     S
O693   Zn701   1.998   .     S
O694   Zn700   1.942   .     S
O695   Zn701   1.877   .     S
O696   Zn700   1.998   .     S
O697   Zn701   1.998   .     S
O698   Zn700   1.877   .     S
O699   Zn701   1.942   .     S
C703   O705    1.398   .     S
C703   O704    1.218   .     D
O705   H706    1.014   .     S
C708   O710    1.400   .     S
C708   O709    1.223   .     D
O710   H711    1.014   .     S
C712   O714    1.398   .     S
O713   C777    1.224   .     S
H715   O779    1.014   .     S
C716   C732    1.420   .     S
C716   O757    1.288   .     A
C716   O758    1.287   .     A
C717   C718    1.407   .     A
C717   C134    1.415   1_556 S
C717   C158    1.410   1_556 S
C718   C725    1.412   .     A
C718   C722    1.412   .     A
C719   C723    1.409   .     A
C720   C721    1.394   .     A
C720   C134    1.418   1_556 S
C720   C154    1.396   1_556 S
C721   C722    1.387   .     A
C721   H749    1.084   .     S
C722   H753    1.083   .     S
C723   C740    1.405   .     A
C723   C773    1.501   .     S
C724   C739    1.391   .     A
C724   C740    1.414   .     A
C724   Cl767   1.762   .     S
C725   C741    1.422   .     A
C725   C727    1.483   .     S
C726   H754    1.081   .     S
C726   C732    1.397   .     A
C726   C923    1.369   .     S
C727   O760    1.305   .     A
C727   O759    1.298   .     A
C728   C729    1.395   .     A
C728   H744    1.084   .     S
C728   C1116   1.369   1_545 S
C729   C737    1.418   .     S
C729   C730    1.397   .     A
C730   H745    1.084   .     S
C730   C1121   1.372   1_545 S
C731   H746    1.083   .     S
C731   C732    1.396   .     A
C731   C925    1.372   .     S
C733   H747    1.081   .     S
C733   N756    1.367   .     A
C733   C604    1.419   1_655 S
C734   N755    1.367   .     A
C734   H748    1.082   .     S
C735   C768    1.476   .     S
C735   N755    1.378   .     A
C736   Cl772   1.763   .     S
C736   N756    1.368   .     A
C736   C605    1.421   1_655 S
C737   O762    1.287   .     A
C737   O761    1.286   .     A
C738   C740    1.460   .     S
C738   O764    1.291   .     A
C738   O763    1.301   .     A
C741   C777    1.482   .     S
C741   C157    1.401   1_556 S
C742   H752    1.084   .     S
C742   C743    1.390   .     A
C743   H751    1.082   .     S
H750   C154    1.084   1_556 S
N755   Zn765   2.019   .     S
N756   Zn766   2.019   .     S
O757   Zn765   1.998   .     S
O758   Zn766   1.998   .     S
O759   Zn765   1.942   .     S
O760   Zn766   1.877   .     S
O761   Zn765   1.998   .     S
O762   Zn766   1.998   .     S
O763   Zn765   1.877   .     S
O764   Zn766   1.942   .     S
C768   O770    1.398   .     S
C768   O769    1.218   .     D
O770   H771    1.014   .     S
C773   O775    1.400   .     S
C773   O774    1.223   .     D
O775   H776    1.014   .     S
C777   O779    1.398   .     S
O778   C647    1.224   1_655 S
H780   O649    1.014   1_655 S
C781   C797    1.420   .     S
C781   O822    1.288   .     A
C781   O823    1.287   .     A
C782   C783    1.407   .     A
C782   C199    1.415   1_556 S
C782   C223    1.410   1_556 S
C783   C790    1.412   .     A
C783   C787    1.412   .     A
C784   C788    1.409   .     A
C785   C786    1.394   .     A
C785   C199    1.418   1_556 S
C785   C219    1.396   1_556 S
C786   C787    1.387   .     A
C786   H814    1.084   .     S
C787   H818    1.083   .     S
C788   C805    1.405   .     A
C788   C838    1.501   .     S
C789   C804    1.391   .     A
C789   C805    1.414   .     A
C789   Cl832   1.762   .     S
C790   C806    1.422   .     A
C790   C792    1.483   .     S
C791   H819    1.081   .     S
C791   C797    1.397   .     A
C791   C988    1.369   .     S
C792   O825    1.305   .     A
C792   O824    1.298   .     A
C793   C794    1.395   .     A
C793   H809    1.084   .     S
C794   C802    1.418   .     S
C794   C795    1.397   .     A
C795   H810    1.084   .     S
C796   H811    1.083   .     S
C796   C797    1.396   .     A
C796   C990    1.372   .     S
C798   H812    1.081   .     S
C798   N821    1.367   .     A
C798   C864    1.419   .     S
C799   N820    1.367   .     A
C799   H813    1.082   .     S
C799   C928    1.419   1_455 S
C800   C833    1.476   .     S
C800   N820    1.378   .     A
C800   C931    1.421   1_455 S
C801   Cl837   1.763   .     S
C801   N821    1.368   .     A
C801   C865    1.421   .     S
C802   O827    1.287   .     A
C802   O826    1.286   .     A
C803   C805    1.460   .     S
C803   O829    1.291   .     A
C803   O828    1.301   .     A
C806   C842    1.482   .     S
C806   C222    1.401   1_556 S
C807   H817    1.084   .     S
C807   C808    1.390   .     A
C808   H816    1.082   .     S
H815   C219    1.084   1_556 S
N820   Zn830   2.019   .     S
N821   Zn831   2.019   .     S
O822   Zn830   1.998   .     S
O823   Zn831   1.998   .     S
O824   Zn830   1.942   .     S
O825   Zn831   1.877   .     S
O826   Zn830   1.998   .     S
O827   Zn831   1.998   .     S
O828   Zn830   1.877   .     S
O829   Zn831   1.942   .     S
C833   O835    1.398   .     S
C833   O834    1.218   .     D
O835   H836    1.014   .     S
C838   O840    1.400   .     S
C838   O839    1.223   .     D
O840   H841    1.014   .     S
C842   O844    1.398   .     S
C842   O973    1.224   1_455 S
O843   C907    1.224   .     S
O844   H975    1.014   1_455 S
H845   O909    1.014   .     S
C846   C862    1.420   .     S
C846   O887    1.288   .     A
C846   O888    1.287   .     A
C847   C848    1.407   .     A
C847   C264    1.415   1_556 S
C847   C288    1.410   1_556 S
C848   C855    1.412   .     A
C848   C852    1.412   .     A
C849   C853    1.409   .     A
C850   C851    1.394   .     A
C850   C264    1.418   1_556 S
C850   C284    1.396   1_556 S
C851   C852    1.387   .     A
C851   H879    1.084   .     S
C852   H883    1.083   .     S
C853   C870    1.405   .     A
C853   C903    1.501   .     S
C854   C869    1.391   .     A
C854   C870    1.414   .     A
C854   Cl897   1.762   .     S
C855   C871    1.422   .     A
C855   C857    1.483   .     S
C856   H884    1.081   .     S
C856   C862    1.397   .     A
C856   C1053   1.369   .     S
C857   O890    1.305   .     A
C857   O889    1.298   .     A
C858   C859    1.395   .     A
C858   H874    1.084   .     S
C859   C867    1.418   .     S
C859   C860    1.397   .     A
C860   H875    1.084   .     S
C861   H876    1.083   .     S
C861   C862    1.396   .     A
C861   C1055   1.372   .     S
C863   H877    1.081   .     S
C863   N886    1.367   .     A
C863   C929    1.419   .     S
C864   N885    1.367   .     A
C864   H878    1.082   .     S
C865   C898    1.476   .     S
C865   N885    1.378   .     A
C866   Cl902   1.763   .     S
C866   N886    1.368   .     A
C866   C930    1.421   .     S
C867   O892    1.287   .     A
C867   O891    1.286   .     A
C868   C870    1.460   .     S
C868   O894    1.291   .     A
C868   O893    1.301   .     A
C871   C907    1.482   .     S
C871   C287    1.401   1_556 S
C872   H882    1.084   .     S
C872   C873    1.390   .     A
C873   H881    1.082   .     S
H880   C284    1.084   1_556 S
N885   Zn895   2.019   .     S
N886   Zn896   2.019   .     S
O887   Zn895   1.998   .     S
O888   Zn896   1.998   .     S
O889   Zn895   1.942   .     S
O890   Zn896   1.877   .     S
O891   Zn895   1.998   .     S
O892   Zn896   1.998   .     S
O893   Zn895   1.877   .     S
O894   Zn896   1.942   .     S
C898   O900    1.398   .     S
C898   O899    1.218   .     D
O900   H901    1.014   .     S
C903   O905    1.400   .     S
C903   O904    1.223   .     D
O905   H906    1.014   .     S
C907   O909    1.398   .     S
O908   C972    1.224   .     S
H910   O974    1.014   .     S
C911   C927    1.420   .     S
C911   O952    1.288   .     A
C911   O953    1.287   .     A
C912   C913    1.407   .     A
C912   C329    1.415   1_556 S
C912   C353    1.410   1_556 S
C913   C920    1.412   .     A
C913   C917    1.412   .     A
C914   C918    1.409   .     A
C915   C916    1.394   .     A
C915   C329    1.418   1_556 S
C915   C349    1.396   1_556 S
C916   C917    1.387   .     A
C916   H944    1.084   .     S
C917   H948    1.083   .     S
C918   C935    1.405   .     A
C918   C968    1.501   .     S
C919   C934    1.391   .     A
C919   C935    1.414   .     A
C919   Cl962   1.762   .     S
C920   C936    1.422   .     A
C920   C922    1.483   .     S
C921   H949    1.081   .     S
C921   C927    1.397   .     A
C921   C1118   1.369   .     S
C922   O955    1.305   .     A
C922   O954    1.298   .     A
C923   C924    1.395   .     A
C923   H939    1.084   .     S
C924   C932    1.418   .     S
C924   C925    1.397   .     A
C925   H940    1.084   .     S
C926   H941    1.083   .     S
C926   C927    1.396   .     A
C926   C1120   1.372   .     S
C928   H942    1.081   .     S
C928   N951    1.367   .     A
C928   C799    1.419   1_655 S
C929   N950    1.367   .     A
C929   H943    1.082   .     S
C930   C963    1.476   .     S
C930   N950    1.378   .     A
C931   Cl967   1.763   .     S
C931   N951    1.368   .     A
C931   C800    1.421   1_655 S
C932   O957    1.287   .     A
C932   O956    1.286   .     A
C933   C935    1.460   .     S
C933   O959    1.291   .     A
C933   O958    1.301   .     A
C936   C972    1.482   .     S
C936   C352    1.401   1_556 S
C937   H947    1.084   .     S
C937   C938    1.390   .     A
C938   H946    1.082   .     S
H945   C349    1.084   1_556 S
N950   Zn960   2.019   .     S
N951   Zn961   2.019   .     S
O952   Zn960   1.998   .     S
O953   Zn961   1.998   .     S
O954   Zn960   1.942   .     S
O955   Zn961   1.877   .     S
O956   Zn960   1.998   .     S
O957   Zn961   1.998   .     S
O958   Zn960   1.877   .     S
O959   Zn961   1.942   .     S
C963   O965    1.398   .     S
C963   O964    1.218   .     D
O965   H966    1.014   .     S
C968   O970    1.400   .     S
C968   O969    1.223   .     D
O970   H971    1.014   .     S
C972   O974    1.398   .     S
O973   C842    1.224   1_655 S
H975   O844    1.014   1_655 S
C976   C992    1.420   .     S
C976   O1017   1.288   .     A
C976   O1018   1.287   .     A
C977   C978    1.407   .     A
C977   C394    1.415   1_556 S
C977   C418    1.410   1_556 S
C978   C985    1.412   .     A
C978   C982    1.412   .     A
C979   C983    1.409   .     A
C980   C981    1.394   .     A
C980   C394    1.418   1_556 S
C980   C414    1.396   1_556 S
C981   C982    1.387   .     A
C981   H1009   1.084   .     S
C982   H1013   1.083   .     S
C983   C1000   1.405   .     A
C983   C1033   1.501   .     S
C984   C999    1.391   .     A
C984   C1000   1.414   .     A
C984   Cl1027  1.762   .     S
C985   C1001   1.422   .     A
C985   C987    1.483   .     S
C986   H1014   1.081   .     S
C986   C992    1.397   .     A
C986   C598    1.369   1_565 S
C987   O1020   1.305   .     A
C987   O1019   1.298   .     A
C988   C989    1.395   .     A
C988   H1004   1.084   .     S
C989   C997    1.418   .     S
C989   C990    1.397   .     A
C990   H1005   1.084   .     S
C991   H1006   1.083   .     S
C991   C992    1.396   .     A
C991   C600    1.372   1_565 S
C993   H1007   1.081   .     S
C993   N1016   1.367   .     A
C993   C1059   1.419   .     S
C994   N1015   1.367   .     A
C994   H1008   1.082   .     S
C994   C1123   1.419   1_455 S
C995   C1028   1.476   .     S
C995   N1015   1.378   .     A
C995   C1126   1.421   1_455 S
C996   Cl1032  1.763   .     S
C996   N1016   1.368   .     A
C996   C1060   1.421   .     S
C997   O1022   1.287   .     A
C997   O1021   1.286   .     A
C998   C1000   1.460   .     S
C998   O1024   1.291   .     A
C998   O1023   1.301   .     A
C1001  C1037   1.482   .     S
C1001  C417    1.401   1_556 S
C1002  H1012   1.084   .     S
C1002  C1003   1.390   .     A
C1003  H1011   1.082   .     S
H1010  C414    1.084   1_556 S
N1015  Zn1025  2.019   .     S
N1016  Zn1026  2.019   .     S
O1017  Zn1025  1.998   .     S
O1018  Zn1026  1.998   .     S
O1019  Zn1025  1.942   .     S
O1020  Zn1026  1.877   .     S
O1021  Zn1025  1.998   .     S
O1022  Zn1026  1.998   .     S
O1023  Zn1025  1.877   .     S
O1024  Zn1026  1.942   .     S
C1028  O1030   1.398   .     S
C1028  O1029   1.218   .     D
O1030  H1031   1.014   .     S
C1033  O1035   1.400   .     S
C1033  O1034   1.223   .     D
O1035  H1036   1.014   .     S
C1037  O1039   1.398   .     S
C1037  O1168   1.224   1_455 S
O1038  C1102   1.224   .     S
O1039  H1170   1.014   1_455 S
H1040  O1104   1.014   .     S
C1041  C1057   1.420   .     S
C1041  O1082   1.288   .     A
C1041  O1083   1.287   .     A
C1042  C1043   1.407   .     A
C1042  C459    1.415   1_556 S
C1042  C483    1.410   1_556 S
C1043  C1050   1.412   .     A
C1043  C1047   1.412   .     A
C1044  C1048   1.409   .     A
C1045  C1046   1.394   .     A
C1045  C459    1.418   1_556 S
C1045  C479    1.396   1_556 S
C1046  C1047   1.387   .     A
C1046  H1074   1.084   .     S
C1047  H1078   1.083   .     S
C1048  C1065   1.405   .     A
C1048  C1098   1.501   .     S
C1049  C1064   1.391   .     A
C1049  C1065   1.414   .     A
C1049  Cl1092  1.762   .     S
C1050  C1066   1.422   .     A
C1050  C1052   1.483   .     S
C1051  H1079   1.081   .     S
C1051  C1057   1.397   .     A
C1051  C663    1.369   1_565 S
C1052  O1085   1.305   .     A
C1052  O1084   1.298   .     A
C1053  C1054   1.395   .     A
C1053  H1069   1.084   .     S
C1054  C1062   1.418   .     S
C1054  C1055   1.397   .     A
C1055  H1070   1.084   .     S
C1056  H1071   1.083   .     S
C1056  C1057   1.396   .     A
C1056  C665    1.372   1_565 S
C1058  H1072   1.081   .     S
C1058  N1081   1.367   .     A
C1058  C1124   1.419   .     S
C1059  N1080   1.367   .     A
C1059  H1073   1.082   .     S
C1060  C1093   1.476   .     S
C1060  N1080   1.378   .     A
C1061  Cl1097  1.763   .     S
C1061  N1081   1.368   .     A
C1061  C1125   1.421   .     S
C1062  O1087   1.287   .     A
C1062  O1086   1.286   .     A
C1063  C1065   1.460   .     S
C1063  O1089   1.291   .     A
C1063  O1088   1.301   .     A
C1066  C1102   1.482   .     S
C1066  C482    1.401   1_556 S
C1067  H1077   1.084   .     S
C1067  C1068   1.390   .     A
C1068  H1076   1.082   .     S
H1075  C479    1.084   1_556 S
N1080  Zn1090  2.019   .     S
N1081  Zn1091  2.019   .     S
O1082  Zn1090  1.998   .     S
O1083  Zn1091  1.998   .     S
O1084  Zn1090  1.942   .     S
O1085  Zn1091  1.877   .     S
O1086  Zn1090  1.998   .     S
O1087  Zn1091  1.998   .     S
O1088  Zn1090  1.877   .     S
O1089  Zn1091  1.942   .     S
C1093  O1095   1.398   .     S
C1093  O1094   1.218   .     D
O1095  H1096   1.014   .     S
C1098  O1100   1.400   .     S
C1098  O1099   1.223   .     D
O1100  H1101   1.014   .     S
C1102  O1104   1.398   .     S
O1103  C1167   1.224   .     S
H1105  O1169   1.014   .     S
C1106  C1122   1.420   .     S
C1106  O1147   1.288   .     A
C1106  O1148   1.287   .     A
C1107  C1108   1.407   .     A
C1107  C524    1.415   1_556 S
C1107  C548    1.410   1_556 S
C1108  C1115   1.412   .     A
C1108  C1112   1.412   .     A
C1109  C1113   1.409   .     A
C1110  C1111   1.394   .     A
C1110  C524    1.418   1_556 S
C1110  C544    1.396   1_556 S
C1111  C1112   1.387   .     A
C1111  H1139   1.084   .     S
C1112  H1143   1.083   .     S
C1113  C1130   1.405   .     A
C1113  C1163   1.501   .     S
C1114  C1129   1.391   .     A
C1114  C1130   1.414   .     A
C1114  Cl1157  1.762   .     S
C1115  C1131   1.422   .     A
C1115  C1117   1.483   .     S
C1116  H1144   1.081   .     S
C1116  C1122   1.397   .     A
C1116  C728    1.369   1_565 S
C1117  O1150   1.305   .     A
C1117  O1149   1.298   .     A
C1118  C1119   1.395   .     A
C1118  H1134   1.084   .     S
C1119  C1127   1.418   .     S
C1119  C1120   1.397   .     A
C1120  H1135   1.084   .     S
C1121  H1136   1.083   .     S
C1121  C1122   1.396   .     A
C1121  C730    1.372   1_565 S
C1123  H1137   1.081   .     S
C1123  N1146   1.367   .     A
C1123  C994    1.419   1_655 S
C1124  N1145   1.367   .     A
C1124  H1138   1.082   .     S
C1125  C1158   1.476   .     S
C1125  N1145   1.378   .     A
C1126  Cl1162  1.763   .     S
C1126  N1146   1.368   .     A
C1126  C995    1.421   1_655 S
C1127  O1152   1.287   .     A
C1127  O1151   1.286   .     A
C1128  C1130   1.460   .     S
C1128  O1154   1.291   .     A
C1128  O1153   1.301   .     A
C1131  C1167   1.482   .     S
C1131  C547    1.401   1_556 S
C1132  H1142   1.084   .     S
C1132  C1133   1.390   .     A
C1133  H1141   1.082   .     S
H1140  C544    1.084   1_556 S
N1145  Zn1155  2.019   .     S
N1146  Zn1156  2.019   .     S
O1147  Zn1155  1.998   .     S
O1148  Zn1156  1.998   .     S
O1149  Zn1155  1.942   .     S
O1150  Zn1156  1.877   .     S
O1151  Zn1155  1.998   .     S
O1152  Zn1156  1.998   .     S
O1153  Zn1155  1.877   .     S
O1154  Zn1156  1.942   .     S
C1158  O1160   1.398   .     S
C1158  O1159   1.218   .     D
O1160  H1161   1.014   .     S
C1163  O1165   1.400   .     S
C1163  O1164   1.223   .     D
O1165  H1166   1.014   .     S
C1167  O1169   1.398   .     S
O1168  C1037   1.224   1_655 S
H1170  O1039   1.014   1_655 S
