data_str_m3_o1_o16_pcu_sym.208
_audit_creation_date              2020-01-03
_audit_creation_method            'Materials Studio'
_symmetry_space_group_name_H-M    'P1'
_symmetry_Int_Tables_number       1
_symmetry_cell_setting            triclinic
loop_
_symmetry_equiv_pos_as_xyz
  x,y,z
_cell_length_a                    29.6519
_cell_length_b                    31.8178
_cell_length_c                    26.2485
_cell_angle_alpha                 90.0362
_cell_angle_beta                  69.5885
_cell_angle_gamma                 89.7216
loop_
_atom_site_label
_atom_site_type_symbol
_atom_site_fract_x
_atom_site_fract_y
_atom_site_fract_z
_atom_site_U_iso_or_equiv
_atom_site_adp_type
_atom_site_occupancy
O1     O     0.12846   0.22775   0.25000   0.00000  Uiso   1.00
O2     O     0.20490   0.22774   0.25000   0.00000  Uiso   1.00
C3     C     0.16662   0.24649   0.25000   0.00000  Uiso   1.00
O4     O     0.10947   0.16666   0.32681   0.00000  Uiso   1.00
O5     O     0.18591   0.16665   0.32681   0.00000  Uiso   1.00
C6     C     0.13993   0.16457   0.35218   0.00000  Uiso   1.00
Zn7    Zn    0.11562   0.16667   0.25000   0.00000  Uiso   1.00
Zn8    Zn    0.21771   0.16666   0.25000   0.00000  Uiso   1.00
O9     O     0.12843   0.10559   0.24999   0.00000  Uiso   1.00
O10    O     0.20488   0.10558   0.24999   0.00000  Uiso   1.00
O11    O     0.14742   0.16668   0.17319   0.00000  Uiso   1.00
O12    O     0.22387   0.16667   0.17319   0.00000  Uiso   1.00
C13    C     0.16641   0.08681   0.25091   0.00000  Uiso   1.00
C14    C     0.19350   0.16658   0.14777   0.00000  Uiso   1.00
C15    C     0.26149   0.12592   0.00745   0.00000  Uiso   1.00
H16    H     0.27856   0.13305   0.08047   0.00000  Uiso   1.00
H17    H     0.25883   0.09303   0.41247   0.00000  Uiso   1.00
C18    C     0.21006   0.16111   0.08917   0.00000  Uiso   1.00
C19    C     0.07747   0.17785   0.44202   0.00000  Uiso   1.00
C20    C     0.06466   0.18279   0.49782   0.00000  Uiso   1.00
C21    C     0.09814   0.17433   0.02276   0.00000  Uiso   1.00
C22    C     0.14456   0.15846   0.49223   0.00000  Uiso   1.00
C23    C     0.15400   0.14689   0.43779   0.00000  Uiso   1.00
C24    C     0.18187   0.15356   0.01387   0.00000  Uiso   1.00
C25    C     0.22488   0.13120   0.48454   0.00000  Uiso   1.00
C26    C     0.22904   0.11333   0.43437   0.00000  Uiso   1.00
C27    C     0.19451   0.12146   0.41111   0.00000  Uiso   1.00
C28    C     0.17749   0.17097   0.06389   0.00000  Uiso   1.00
C29    C     0.25274   0.13979   0.06077   0.00000  Uiso   1.00
C30    C     0.12269   0.16127   0.41141   0.00000  Uiso   1.00
H31    H     0.14749   0.19108   0.08548   0.00000  Uiso   1.00
H32    H     0.05247   0.18797   0.42276   0.00000  Uiso   1.00
H33    H     0.08627   0.17940   0.06609   0.00000  Uiso   1.00
H34    H     0.02938   0.19493   0.02151   0.00000  Uiso   1.00
H35    H     0.19952   0.10691   0.37225   0.00000  Uiso   1.00
C36    C     0.14892   0.31130   0.30161   0.00000  Uiso   1.00
C37    C     0.14851   0.02160   0.30189   0.00000  Uiso   1.00
C38    C     0.16602   0.04262   0.25168   0.00000  Uiso   1.00
C39    C     0.18347   0.02129   0.20193   0.00000  Uiso   1.00
C40    C     0.18338   0.31150   0.20214   0.00000  Uiso   1.00
H41    H     0.19657   0.29429   0.16403   0.00000  Uiso   1.00
C42    C     0.16613   0.29051   0.25151   0.00000  Uiso   1.00
C43    C     0.31684   0.13448   0.22660   0.00000  Uiso   1.00
H44    H     0.30480   0.10870   0.20777   0.00000  Uiso   1.00
C45    C     0.03137   0.13451   0.22656   0.00000  Uiso   1.00
H46    H     0.05534   0.10876   0.20768   0.00000  Uiso   1.00
N47    N     0.04760   0.16668   0.25001   0.00000  Uiso   1.00
C48    C     0.01618   0.19915   0.27322   0.00000  Uiso   1.00
C49    C     0.30183   0.19896   0.27284   0.00000  Uiso   1.00
H50    H     0.27750   0.22454   0.29159   0.00000  Uiso   1.00
N51    N     0.28573   0.16665   0.25000   0.00000  Uiso   1.00
N52    N     0.13006   0.04438   0.35234   0.00000  Uiso   1.00
O53    O     0.09558   0.07176   0.36003   0.00000  Uiso   1.00
O54    O     0.14519   0.03571   0.39211   0.00000  Uiso   1.00
Cl55   Cl    0.20516   0.04768   0.13898   0.00000  Uiso   1.00
N56    N     0.03068   0.23362   0.29866   0.00000  Uiso   1.00
O57    O     0.04159   0.22706   0.34179   0.00000  Uiso   1.00
O58    O     0.02228   0.27190   0.28685   0.00000  Uiso   1.00
N59    N     0.30685   0.10608   0.47802   0.00000  Uiso   1.00
O60    O     0.32862   0.08343   0.00378   0.00000  Uiso   1.00
O61    O     0.33031   0.11640   0.42779   0.00000  Uiso   1.00
Cl62   Cl    0.12648   0.28266   0.36309   0.00000  Uiso   1.00
O63    O     0.46179   0.22775   0.25000   0.00000  Uiso   1.00
O64    O     0.53823   0.22774   0.25000   0.00000  Uiso   1.00
C65    C     0.49995   0.24649   0.25000   0.00000  Uiso   1.00
O66    O     0.44280   0.16666   0.32681   0.00000  Uiso   1.00
O67    O     0.51924   0.16665   0.32681   0.00000  Uiso   1.00
C68    C     0.47326   0.16457   0.35218   0.00000  Uiso   1.00
Zn69   Zn    0.44896   0.16667   0.25000   0.00000  Uiso   1.00
Zn70   Zn    0.55104   0.16666   0.25000   0.00000  Uiso   1.00
O71    O     0.46177   0.10559   0.24999   0.00000  Uiso   1.00
O72    O     0.53821   0.10558   0.24999   0.00000  Uiso   1.00
O73    O     0.48076   0.16668   0.17319   0.00000  Uiso   1.00
O74    O     0.55720   0.16667   0.17319   0.00000  Uiso   1.00
C75    C     0.49975   0.08681   0.25091   0.00000  Uiso   1.00
C76    C     0.52684   0.16658   0.14777   0.00000  Uiso   1.00
C77    C     0.59482   0.12592   0.00745   0.00000  Uiso   1.00
H78    H     0.61189   0.13305   0.08047   0.00000  Uiso   1.00
H79    H     0.59216   0.09303   0.41247   0.00000  Uiso   1.00
C80    C     0.54340   0.16111   0.08917   0.00000  Uiso   1.00
C81    C     0.41080   0.17785   0.44202   0.00000  Uiso   1.00
C82    C     0.39799   0.18279   0.49782   0.00000  Uiso   1.00
C83    C     0.43147   0.17433   0.02276   0.00000  Uiso   1.00
C84    C     0.47790   0.15846   0.49223   0.00000  Uiso   1.00
C85    C     0.48733   0.14689   0.43779   0.00000  Uiso   1.00
C86    C     0.51520   0.15356   0.01387   0.00000  Uiso   1.00
C87    C     0.55822   0.13120   0.48454   0.00000  Uiso   1.00
C88    C     0.56238   0.11333   0.43437   0.00000  Uiso   1.00
C89    C     0.52785   0.12146   0.41111   0.00000  Uiso   1.00
C90    C     0.51082   0.17097   0.06389   0.00000  Uiso   1.00
C91    C     0.58608   0.13979   0.06077   0.00000  Uiso   1.00
C92    C     0.45602   0.16127   0.41141   0.00000  Uiso   1.00
H93    H     0.48083   0.19108   0.08548   0.00000  Uiso   1.00
H94    H     0.38581   0.18797   0.42276   0.00000  Uiso   1.00
H95    H     0.41960   0.17940   0.06609   0.00000  Uiso   1.00
H96    H     0.36271   0.19493   0.02151   0.00000  Uiso   1.00
H97    H     0.53285   0.10691   0.37225   0.00000  Uiso   1.00
C98    C     0.48226   0.31130   0.30161   0.00000  Uiso   1.00
C99    C     0.48185   0.02160   0.30189   0.00000  Uiso   1.00
C100   C     0.49936   0.04262   0.25168   0.00000  Uiso   1.00
C101   C     0.51680   0.02129   0.20193   0.00000  Uiso   1.00
C102   C     0.51671   0.31150   0.20214   0.00000  Uiso   1.00
H103   H     0.52990   0.29429   0.16403   0.00000  Uiso   1.00
C104   C     0.49946   0.29051   0.25151   0.00000  Uiso   1.00
C105   C     0.65017   0.13448   0.22660   0.00000  Uiso   1.00
H106   H     0.63814   0.10870   0.20777   0.00000  Uiso   1.00
C107   C     0.36470   0.13451   0.22656   0.00000  Uiso   1.00
H108   H     0.38867   0.10876   0.20768   0.00000  Uiso   1.00
N109   N     0.38093   0.16668   0.25001   0.00000  Uiso   1.00
C110   C     0.34951   0.19915   0.27322   0.00000  Uiso   1.00
C111   C     0.63516   0.19896   0.27284   0.00000  Uiso   1.00
H112   H     0.61083   0.22454   0.29159   0.00000  Uiso   1.00
N113   N     0.61906   0.16665   0.25000   0.00000  Uiso   1.00
N114   N     0.46339   0.04438   0.35234   0.00000  Uiso   1.00
O115   O     0.42891   0.07176   0.36003   0.00000  Uiso   1.00
O116   O     0.47853   0.03571   0.39211   0.00000  Uiso   1.00
Cl117  Cl    0.53849   0.04768   0.13898   0.00000  Uiso   1.00
N118   N     0.36401   0.23362   0.29866   0.00000  Uiso   1.00
O119   O     0.37492   0.22706   0.34179   0.00000  Uiso   1.00
O120   O     0.35562   0.27190   0.28685   0.00000  Uiso   1.00
N121   N     0.64018   0.10608   0.47802   0.00000  Uiso   1.00
O122   O     0.66195   0.08343   0.00378   0.00000  Uiso   1.00
O123   O     0.66364   0.11640   0.42779   0.00000  Uiso   1.00
Cl124  Cl    0.45981   0.28266   0.36309   0.00000  Uiso   1.00
O125   O     0.79512   0.22775   0.25000   0.00000  Uiso   1.00
O126   O     0.87157   0.22774   0.25000   0.00000  Uiso   1.00
C127   C     0.83328   0.24649   0.25000   0.00000  Uiso   1.00
O128   O     0.77613   0.16666   0.32681   0.00000  Uiso   1.00
O129   O     0.85258   0.16665   0.32681   0.00000  Uiso   1.00
C130   C     0.80660   0.16457   0.35218   0.00000  Uiso   1.00
Zn131  Zn    0.78229   0.16667   0.25000   0.00000  Uiso   1.00
Zn132  Zn    0.88438   0.16666   0.25000   0.00000  Uiso   1.00
O133   O     0.79510   0.10559   0.24999   0.00000  Uiso   1.00
O134   O     0.87154   0.10558   0.24999   0.00000  Uiso   1.00
O135   O     0.81409   0.16668   0.17319   0.00000  Uiso   1.00
O136   O     0.89053   0.16667   0.17319   0.00000  Uiso   1.00
C137   C     0.83308   0.08681   0.25091   0.00000  Uiso   1.00
C138   C     0.86017   0.16658   0.14777   0.00000  Uiso   1.00
C139   C     0.92815   0.12592   0.00745   0.00000  Uiso   1.00
H140   H     0.94522   0.13305   0.08047   0.00000  Uiso   1.00
H141   H     0.92550   0.09303   0.41247   0.00000  Uiso   1.00
C142   C     0.87673   0.16111   0.08917   0.00000  Uiso   1.00
C143   C     0.74413   0.17785   0.44202   0.00000  Uiso   1.00
C144   C     0.73133   0.18279   0.49782   0.00000  Uiso   1.00
C145   C     0.76480   0.17433   0.02276   0.00000  Uiso   1.00
C146   C     0.81123   0.15846   0.49223   0.00000  Uiso   1.00
C147   C     0.82067   0.14689   0.43779   0.00000  Uiso   1.00
C148   C     0.84854   0.15356   0.01387   0.00000  Uiso   1.00
C149   C     0.89155   0.13120   0.48454   0.00000  Uiso   1.00
C150   C     0.89571   0.11333   0.43437   0.00000  Uiso   1.00
C151   C     0.86118   0.12146   0.41111   0.00000  Uiso   1.00
C152   C     0.84415   0.17097   0.06389   0.00000  Uiso   1.00
C153   C     0.91941   0.13979   0.06077   0.00000  Uiso   1.00
C154   C     0.78936   0.16127   0.41141   0.00000  Uiso   1.00
H155   H     0.81416   0.19108   0.08548   0.00000  Uiso   1.00
H156   H     0.71914   0.18797   0.42276   0.00000  Uiso   1.00
H157   H     0.75293   0.17940   0.06609   0.00000  Uiso   1.00
H158   H     0.69604   0.19493   0.02151   0.00000  Uiso   1.00
H159   H     0.86619   0.10691   0.37225   0.00000  Uiso   1.00
C160   C     0.81559   0.31130   0.30161   0.00000  Uiso   1.00
C161   C     0.81518   0.02160   0.30189   0.00000  Uiso   1.00
C162   C     0.83269   0.04262   0.25168   0.00000  Uiso   1.00
C163   C     0.85013   0.02129   0.20193   0.00000  Uiso   1.00
C164   C     0.85005   0.31150   0.20214   0.00000  Uiso   1.00
H165   H     0.86323   0.29429   0.16403   0.00000  Uiso   1.00
C166   C     0.83279   0.29051   0.25151   0.00000  Uiso   1.00
C167   C     0.98351   0.13448   0.22660   0.00000  Uiso   1.00
H168   H     0.97147   0.10870   0.20777   0.00000  Uiso   1.00
C169   C     0.69803   0.13451   0.22656   0.00000  Uiso   1.00
H170   H     0.72200   0.10876   0.20768   0.00000  Uiso   1.00
N171   N     0.71426   0.16668   0.25001   0.00000  Uiso   1.00
C172   C     0.68284   0.19915   0.27322   0.00000  Uiso   1.00
C173   C     0.96850   0.19896   0.27284   0.00000  Uiso   1.00
H174   H     0.94416   0.22454   0.29159   0.00000  Uiso   1.00
N175   N     0.95239   0.16665   0.25000   0.00000  Uiso   1.00
N176   N     0.79673   0.04438   0.35234   0.00000  Uiso   1.00
O177   O     0.76224   0.07176   0.36003   0.00000  Uiso   1.00
O178   O     0.81186   0.03571   0.39211   0.00000  Uiso   1.00
Cl179  Cl    0.87183   0.04768   0.13898   0.00000  Uiso   1.00
N180   N     0.69735   0.23362   0.29866   0.00000  Uiso   1.00
O181   O     0.70826   0.22706   0.34179   0.00000  Uiso   1.00
O182   O     0.68895   0.27190   0.28685   0.00000  Uiso   1.00
N183   N     0.97352   0.10608   0.47802   0.00000  Uiso   1.00
O184   O     0.99528   0.08343   0.00378   0.00000  Uiso   1.00
O185   O     0.99697   0.11640   0.42779   0.00000  Uiso   1.00
Cl186  Cl    0.79314   0.28266   0.36309   0.00000  Uiso   1.00
O187   O     0.12846   0.56108   0.25000   0.00000  Uiso   1.00
O188   O     0.20490   0.56107   0.25000   0.00000  Uiso   1.00
C189   C     0.16662   0.57982   0.25000   0.00000  Uiso   1.00
O190   O     0.10947   0.50000   0.32681   0.00000  Uiso   1.00
O191   O     0.18591   0.49999   0.32681   0.00000  Uiso   1.00
C192   C     0.13993   0.49791   0.35218   0.00000  Uiso   1.00
Zn193  Zn    0.11562   0.50001   0.25000   0.00000  Uiso   1.00
Zn194  Zn    0.21771   0.49999   0.25000   0.00000  Uiso   1.00
O195   O     0.12843   0.43893   0.24999   0.00000  Uiso   1.00
O196   O     0.20488   0.43892   0.24999   0.00000  Uiso   1.00
O197   O     0.14742   0.50001   0.17319   0.00000  Uiso   1.00
O198   O     0.22387   0.50000   0.17319   0.00000  Uiso   1.00
C199   C     0.16641   0.42014   0.25091   0.00000  Uiso   1.00
C200   C     0.19350   0.49991   0.14777   0.00000  Uiso   1.00
C201   C     0.26149   0.45925   0.00745   0.00000  Uiso   1.00
H202   H     0.27856   0.46639   0.08047   0.00000  Uiso   1.00
H203   H     0.25883   0.42636   0.41247   0.00000  Uiso   1.00
C204   C     0.21006   0.49444   0.08917   0.00000  Uiso   1.00
C205   C     0.07747   0.51118   0.44202   0.00000  Uiso   1.00
C206   C     0.06466   0.51612   0.49782   0.00000  Uiso   1.00
C207   C     0.09814   0.50766   0.02276   0.00000  Uiso   1.00
C208   C     0.14456   0.49180   0.49223   0.00000  Uiso   1.00
C209   C     0.15400   0.48022   0.43779   0.00000  Uiso   1.00
C210   C     0.18187   0.48689   0.01387   0.00000  Uiso   1.00
C211   C     0.22488   0.46453   0.48454   0.00000  Uiso   1.00
C212   C     0.22904   0.44667   0.43437   0.00000  Uiso   1.00
C213   C     0.19451   0.45480   0.41111   0.00000  Uiso   1.00
C214   C     0.17749   0.50430   0.06389   0.00000  Uiso   1.00
C215   C     0.25274   0.47312   0.06077   0.00000  Uiso   1.00
C216   C     0.12269   0.49461   0.41141   0.00000  Uiso   1.00
H217   H     0.14749   0.52442   0.08548   0.00000  Uiso   1.00
H218   H     0.05247   0.52131   0.42276   0.00000  Uiso   1.00
H219   H     0.08627   0.51273   0.06609   0.00000  Uiso   1.00
H220   H     0.02938   0.52827   0.02151   0.00000  Uiso   1.00
H221   H     0.19952   0.44024   0.37225   0.00000  Uiso   1.00
C222   C     0.14892   0.64463   0.30161   0.00000  Uiso   1.00
C223   C     0.14851   0.35494   0.30189   0.00000  Uiso   1.00
C224   C     0.16602   0.37595   0.25168   0.00000  Uiso   1.00
C225   C     0.18347   0.35463   0.20193   0.00000  Uiso   1.00
C226   C     0.18338   0.64484   0.20214   0.00000  Uiso   1.00
H227   H     0.19657   0.62762   0.16403   0.00000  Uiso   1.00
C228   C     0.16613   0.62384   0.25151   0.00000  Uiso   1.00
C229   C     0.31684   0.46781   0.22660   0.00000  Uiso   1.00
H230   H     0.30480   0.44203   0.20777   0.00000  Uiso   1.00
C231   C     0.03137   0.46784   0.22656   0.00000  Uiso   1.00
H232   H     0.05534   0.44210   0.20768   0.00000  Uiso   1.00
N233   N     0.04760   0.50001   0.25001   0.00000  Uiso   1.00
C234   C     0.01618   0.53248   0.27322   0.00000  Uiso   1.00
C235   C     0.30183   0.53230   0.27284   0.00000  Uiso   1.00
H236   H     0.27750   0.55787   0.29159   0.00000  Uiso   1.00
N237   N     0.28573   0.49998   0.25000   0.00000  Uiso   1.00
N238   N     0.13006   0.37772   0.35234   0.00000  Uiso   1.00
O239   O     0.09558   0.40509   0.36003   0.00000  Uiso   1.00
O240   O     0.14519   0.36904   0.39211   0.00000  Uiso   1.00
Cl241  Cl    0.20516   0.38101   0.13898   0.00000  Uiso   1.00
N242   N     0.03068   0.56696   0.29866   0.00000  Uiso   1.00
O243   O     0.04159   0.56040   0.34179   0.00000  Uiso   1.00
O244   O     0.02228   0.60524   0.28685   0.00000  Uiso   1.00
N245   N     0.30685   0.43942   0.47802   0.00000  Uiso   1.00
O246   O     0.32862   0.41676   0.00378   0.00000  Uiso   1.00
O247   O     0.33031   0.44973   0.42779   0.00000  Uiso   1.00
Cl248  Cl    0.12648   0.61600   0.36309   0.00000  Uiso   1.00
O249   O     0.46179   0.56108   0.25000   0.00000  Uiso   1.00
O250   O     0.53823   0.56107   0.25000   0.00000  Uiso   1.00
C251   C     0.49995   0.57982   0.25000   0.00000  Uiso   1.00
O252   O     0.44280   0.50000   0.32681   0.00000  Uiso   1.00
O253   O     0.51924   0.49999   0.32681   0.00000  Uiso   1.00
C254   C     0.47326   0.49791   0.35218   0.00000  Uiso   1.00
Zn255  Zn    0.44896   0.50001   0.25000   0.00000  Uiso   1.00
Zn256  Zn    0.55104   0.49999   0.25000   0.00000  Uiso   1.00
O257   O     0.46177   0.43893   0.24999   0.00000  Uiso   1.00
O258   O     0.53821   0.43892   0.24999   0.00000  Uiso   1.00
O259   O     0.48076   0.50001   0.17319   0.00000  Uiso   1.00
O260   O     0.55720   0.50000   0.17319   0.00000  Uiso   1.00
C261   C     0.49975   0.42014   0.25091   0.00000  Uiso   1.00
C262   C     0.52684   0.49991   0.14777   0.00000  Uiso   1.00
C263   C     0.59482   0.45925   0.00745   0.00000  Uiso   1.00
H264   H     0.61189   0.46639   0.08047   0.00000  Uiso   1.00
H265   H     0.59216   0.42636   0.41247   0.00000  Uiso   1.00
C266   C     0.54340   0.49444   0.08917   0.00000  Uiso   1.00
C267   C     0.41080   0.51118   0.44202   0.00000  Uiso   1.00
C268   C     0.39799   0.51612   0.49782   0.00000  Uiso   1.00
C269   C     0.43147   0.50766   0.02276   0.00000  Uiso   1.00
C270   C     0.47790   0.49180   0.49223   0.00000  Uiso   1.00
C271   C     0.48733   0.48022   0.43779   0.00000  Uiso   1.00
C272   C     0.51520   0.48689   0.01387   0.00000  Uiso   1.00
C273   C     0.55822   0.46453   0.48454   0.00000  Uiso   1.00
C274   C     0.56238   0.44667   0.43437   0.00000  Uiso   1.00
C275   C     0.52785   0.45480   0.41111   0.00000  Uiso   1.00
C276   C     0.51082   0.50430   0.06389   0.00000  Uiso   1.00
C277   C     0.58608   0.47312   0.06077   0.00000  Uiso   1.00
C278   C     0.45602   0.49461   0.41141   0.00000  Uiso   1.00
H279   H     0.48083   0.52442   0.08548   0.00000  Uiso   1.00
H280   H     0.38581   0.52131   0.42276   0.00000  Uiso   1.00
H281   H     0.41960   0.51273   0.06609   0.00000  Uiso   1.00
H282   H     0.36271   0.52827   0.02151   0.00000  Uiso   1.00
H283   H     0.53285   0.44024   0.37225   0.00000  Uiso   1.00
C284   C     0.48226   0.64463   0.30161   0.00000  Uiso   1.00
C285   C     0.48185   0.35494   0.30189   0.00000  Uiso   1.00
C286   C     0.49936   0.37595   0.25168   0.00000  Uiso   1.00
C287   C     0.51680   0.35463   0.20193   0.00000  Uiso   1.00
C288   C     0.51671   0.64484   0.20214   0.00000  Uiso   1.00
H289   H     0.52990   0.62762   0.16403   0.00000  Uiso   1.00
C290   C     0.49946   0.62384   0.25151   0.00000  Uiso   1.00
C291   C     0.65017   0.46781   0.22660   0.00000  Uiso   1.00
H292   H     0.63814   0.44203   0.20777   0.00000  Uiso   1.00
C293   C     0.36470   0.46784   0.22656   0.00000  Uiso   1.00
H294   H     0.38867   0.44210   0.20768   0.00000  Uiso   1.00
N295   N     0.38093   0.50001   0.25001   0.00000  Uiso   1.00
C296   C     0.34951   0.53248   0.27322   0.00000  Uiso   1.00
C297   C     0.63516   0.53230   0.27284   0.00000  Uiso   1.00
H298   H     0.61083   0.55787   0.29159   0.00000  Uiso   1.00
N299   N     0.61906   0.49998   0.25000   0.00000  Uiso   1.00
N300   N     0.46339   0.37772   0.35234   0.00000  Uiso   1.00
O301   O     0.42891   0.40509   0.36003   0.00000  Uiso   1.00
O302   O     0.47853   0.36904   0.39211   0.00000  Uiso   1.00
Cl303  Cl    0.53849   0.38101   0.13898   0.00000  Uiso   1.00
N304   N     0.36401   0.56696   0.29866   0.00000  Uiso   1.00
O305   O     0.37492   0.56040   0.34179   0.00000  Uiso   1.00
O306   O     0.35562   0.60524   0.28685   0.00000  Uiso   1.00
N307   N     0.64018   0.43942   0.47802   0.00000  Uiso   1.00
O308   O     0.66195   0.41676   0.00378   0.00000  Uiso   1.00
O309   O     0.66364   0.44973   0.42779   0.00000  Uiso   1.00
Cl310  Cl    0.45981   0.61600   0.36309   0.00000  Uiso   1.00
O311   O     0.79512   0.56108   0.25000   0.00000  Uiso   1.00
O312   O     0.87157   0.56107   0.25000   0.00000  Uiso   1.00
C313   C     0.83328   0.57982   0.25000   0.00000  Uiso   1.00
O314   O     0.77613   0.50000   0.32681   0.00000  Uiso   1.00
O315   O     0.85258   0.49999   0.32681   0.00000  Uiso   1.00
C316   C     0.80660   0.49791   0.35218   0.00000  Uiso   1.00
Zn317  Zn    0.78229   0.50001   0.25000   0.00000  Uiso   1.00
Zn318  Zn    0.88438   0.49999   0.25000   0.00000  Uiso   1.00
O319   O     0.79510   0.43893   0.24999   0.00000  Uiso   1.00
O320   O     0.87154   0.43892   0.24999   0.00000  Uiso   1.00
O321   O     0.81409   0.50001   0.17319   0.00000  Uiso   1.00
O322   O     0.89053   0.50000   0.17319   0.00000  Uiso   1.00
C323   C     0.83308   0.42014   0.25091   0.00000  Uiso   1.00
C324   C     0.86017   0.49991   0.14777   0.00000  Uiso   1.00
C325   C     0.92815   0.45925   0.00745   0.00000  Uiso   1.00
H326   H     0.94522   0.46639   0.08047   0.00000  Uiso   1.00
H327   H     0.92550   0.42636   0.41247   0.00000  Uiso   1.00
C328   C     0.87673   0.49444   0.08917   0.00000  Uiso   1.00
C329   C     0.74413   0.51118   0.44202   0.00000  Uiso   1.00
C330   C     0.73133   0.51612   0.49782   0.00000  Uiso   1.00
C331   C     0.76480   0.50766   0.02276   0.00000  Uiso   1.00
C332   C     0.81123   0.49180   0.49223   0.00000  Uiso   1.00
C333   C     0.82067   0.48022   0.43779   0.00000  Uiso   1.00
C334   C     0.84854   0.48689   0.01387   0.00000  Uiso   1.00
C335   C     0.89155   0.46453   0.48454   0.00000  Uiso   1.00
C336   C     0.89571   0.44667   0.43437   0.00000  Uiso   1.00
C337   C     0.86118   0.45480   0.41111   0.00000  Uiso   1.00
C338   C     0.84415   0.50430   0.06389   0.00000  Uiso   1.00
C339   C     0.91941   0.47312   0.06077   0.00000  Uiso   1.00
C340   C     0.78936   0.49461   0.41141   0.00000  Uiso   1.00
H341   H     0.81416   0.52442   0.08548   0.00000  Uiso   1.00
H342   H     0.71914   0.52131   0.42276   0.00000  Uiso   1.00
H343   H     0.75293   0.51273   0.06609   0.00000  Uiso   1.00
H344   H     0.69604   0.52827   0.02151   0.00000  Uiso   1.00
H345   H     0.86619   0.44024   0.37225   0.00000  Uiso   1.00
C346   C     0.81559   0.64463   0.30161   0.00000  Uiso   1.00
C347   C     0.81518   0.35494   0.30189   0.00000  Uiso   1.00
C348   C     0.83269   0.37595   0.25168   0.00000  Uiso   1.00
C349   C     0.85013   0.35463   0.20193   0.00000  Uiso   1.00
C350   C     0.85005   0.64484   0.20214   0.00000  Uiso   1.00
H351   H     0.86323   0.62762   0.16403   0.00000  Uiso   1.00
C352   C     0.83279   0.62384   0.25151   0.00000  Uiso   1.00
C353   C     0.98351   0.46781   0.22660   0.00000  Uiso   1.00
H354   H     0.97147   0.44203   0.20777   0.00000  Uiso   1.00
C355   C     0.69803   0.46784   0.22656   0.00000  Uiso   1.00
H356   H     0.72200   0.44210   0.20768   0.00000  Uiso   1.00
N357   N     0.71426   0.50001   0.25001   0.00000  Uiso   1.00
C358   C     0.68284   0.53248   0.27322   0.00000  Uiso   1.00
C359   C     0.96850   0.53230   0.27284   0.00000  Uiso   1.00
H360   H     0.94416   0.55787   0.29159   0.00000  Uiso   1.00
N361   N     0.95239   0.49998   0.25000   0.00000  Uiso   1.00
N362   N     0.79673   0.37772   0.35234   0.00000  Uiso   1.00
O363   O     0.76224   0.40509   0.36003   0.00000  Uiso   1.00
O364   O     0.81186   0.36904   0.39211   0.00000  Uiso   1.00
Cl365  Cl    0.87183   0.38101   0.13898   0.00000  Uiso   1.00
N366   N     0.69735   0.56696   0.29866   0.00000  Uiso   1.00
O367   O     0.70826   0.56040   0.34179   0.00000  Uiso   1.00
O368   O     0.68895   0.60524   0.28685   0.00000  Uiso   1.00
N369   N     0.97352   0.43942   0.47802   0.00000  Uiso   1.00
O370   O     0.99528   0.41676   0.00378   0.00000  Uiso   1.00
O371   O     0.99697   0.44973   0.42779   0.00000  Uiso   1.00
Cl372  Cl    0.79314   0.61600   0.36309   0.00000  Uiso   1.00
O373   O     0.12846   0.89442   0.25000   0.00000  Uiso   1.00
O374   O     0.20490   0.89441   0.25000   0.00000  Uiso   1.00
C375   C     0.16662   0.91315   0.25000   0.00000  Uiso   1.00
O376   O     0.10947   0.83333   0.32681   0.00000  Uiso   1.00
O377   O     0.18591   0.83332   0.32681   0.00000  Uiso   1.00
C378   C     0.13993   0.83124   0.35218   0.00000  Uiso   1.00
Zn379  Zn    0.11562   0.83334   0.25000   0.00000  Uiso   1.00
Zn380  Zn    0.21771   0.83333   0.25000   0.00000  Uiso   1.00
O381   O     0.12843   0.77226   0.24999   0.00000  Uiso   1.00
O382   O     0.20488   0.77225   0.24999   0.00000  Uiso   1.00
O383   O     0.14742   0.83335   0.17319   0.00000  Uiso   1.00
O384   O     0.22387   0.83334   0.17319   0.00000  Uiso   1.00
C385   C     0.16641   0.75347   0.25091   0.00000  Uiso   1.00
C386   C     0.19350   0.83325   0.14777   0.00000  Uiso   1.00
C387   C     0.26149   0.79258   0.00745   0.00000  Uiso   1.00
H388   H     0.27856   0.79972   0.08047   0.00000  Uiso   1.00
H389   H     0.25883   0.75969   0.41247   0.00000  Uiso   1.00
C390   C     0.21006   0.82777   0.08917   0.00000  Uiso   1.00
C391   C     0.07747   0.84452   0.44202   0.00000  Uiso   1.00
C392   C     0.06466   0.84945   0.49782   0.00000  Uiso   1.00
C393   C     0.09814   0.84100   0.02276   0.00000  Uiso   1.00
C394   C     0.14456   0.82513   0.49223   0.00000  Uiso   1.00
C395   C     0.15400   0.81355   0.43779   0.00000  Uiso   1.00
C396   C     0.18187   0.82022   0.01387   0.00000  Uiso   1.00
C397   C     0.22488   0.79787   0.48454   0.00000  Uiso   1.00
C398   C     0.22904   0.78000   0.43437   0.00000  Uiso   1.00
C399   C     0.19451   0.78813   0.41111   0.00000  Uiso   1.00
C400   C     0.17749   0.83764   0.06389   0.00000  Uiso   1.00
C401   C     0.25274   0.80645   0.06077   0.00000  Uiso   1.00
C402   C     0.12269   0.82794   0.41141   0.00000  Uiso   1.00
H403   H     0.14749   0.85775   0.08548   0.00000  Uiso   1.00
H404   H     0.05247   0.85464   0.42276   0.00000  Uiso   1.00
H405   H     0.08627   0.84607   0.06609   0.00000  Uiso   1.00
H406   H     0.02938   0.86160   0.02151   0.00000  Uiso   1.00
H407   H     0.19952   0.77358   0.37225   0.00000  Uiso   1.00
C408   C     0.14892   0.97797   0.30161   0.00000  Uiso   1.00
C409   C     0.14851   0.68827   0.30189   0.00000  Uiso   1.00
C410   C     0.16602   0.70928   0.25168   0.00000  Uiso   1.00
C411   C     0.18347   0.68796   0.20193   0.00000  Uiso   1.00
C412   C     0.18338   0.97817   0.20214   0.00000  Uiso   1.00
H413   H     0.19657   0.96096   0.16403   0.00000  Uiso   1.00
C414   C     0.16613   0.95718   0.25151   0.00000  Uiso   1.00
C415   C     0.31684   0.80115   0.22660   0.00000  Uiso   1.00
H416   H     0.30480   0.77536   0.20777   0.00000  Uiso   1.00
C417   C     0.03137   0.80117   0.22656   0.00000  Uiso   1.00
H418   H     0.05534   0.77543   0.20768   0.00000  Uiso   1.00
N419   N     0.04760   0.83334   0.25001   0.00000  Uiso   1.00
C420   C     0.01618   0.86582   0.27322   0.00000  Uiso   1.00
C421   C     0.30183   0.86563   0.27284   0.00000  Uiso   1.00
H422   H     0.27750   0.89120   0.29159   0.00000  Uiso   1.00
N423   N     0.28573   0.83331   0.25000   0.00000  Uiso   1.00
N424   N     0.13006   0.71105   0.35234   0.00000  Uiso   1.00
O425   O     0.09558   0.73842   0.36003   0.00000  Uiso   1.00
O426   O     0.14519   0.70238   0.39211   0.00000  Uiso   1.00
Cl427  Cl    0.20516   0.71435   0.13898   0.00000  Uiso   1.00
N428   N     0.03068   0.90029   0.29866   0.00000  Uiso   1.00
O429   O     0.04159   0.89373   0.34179   0.00000  Uiso   1.00
O430   O     0.02228   0.93857   0.28685   0.00000  Uiso   1.00
N431   N     0.30685   0.77275   0.47802   0.00000  Uiso   1.00
O432   O     0.32862   0.75009   0.00378   0.00000  Uiso   1.00
O433   O     0.33031   0.78306   0.42779   0.00000  Uiso   1.00
Cl434  Cl    0.12648   0.94933   0.36309   0.00000  Uiso   1.00
O435   O     0.46179   0.89442   0.25000   0.00000  Uiso   1.00
O436   O     0.53823   0.89441   0.25000   0.00000  Uiso   1.00
C437   C     0.49995   0.91315   0.25000   0.00000  Uiso   1.00
O438   O     0.44280   0.83333   0.32681   0.00000  Uiso   1.00
O439   O     0.51924   0.83332   0.32681   0.00000  Uiso   1.00
C440   C     0.47326   0.83124   0.35218   0.00000  Uiso   1.00
Zn441  Zn    0.44896   0.83334   0.25000   0.00000  Uiso   1.00
Zn442  Zn    0.55104   0.83333   0.25000   0.00000  Uiso   1.00
O443   O     0.46177   0.77226   0.24999   0.00000  Uiso   1.00
O444   O     0.53821   0.77225   0.24999   0.00000  Uiso   1.00
O445   O     0.48076   0.83335   0.17319   0.00000  Uiso   1.00
O446   O     0.55720   0.83334   0.17319   0.00000  Uiso   1.00
C447   C     0.49975   0.75347   0.25091   0.00000  Uiso   1.00
C448   C     0.52684   0.83325   0.14777   0.00000  Uiso   1.00
C449   C     0.59482   0.79258   0.00745   0.00000  Uiso   1.00
H450   H     0.61189   0.79972   0.08047   0.00000  Uiso   1.00
H451   H     0.59216   0.75969   0.41247   0.00000  Uiso   1.00
C452   C     0.54340   0.82777   0.08917   0.00000  Uiso   1.00
C453   C     0.41080   0.84452   0.44202   0.00000  Uiso   1.00
C454   C     0.39799   0.84945   0.49782   0.00000  Uiso   1.00
C455   C     0.43147   0.84100   0.02276   0.00000  Uiso   1.00
C456   C     0.47790   0.82513   0.49223   0.00000  Uiso   1.00
C457   C     0.48733   0.81355   0.43779   0.00000  Uiso   1.00
C458   C     0.51520   0.82022   0.01387   0.00000  Uiso   1.00
C459   C     0.55822   0.79787   0.48454   0.00000  Uiso   1.00
C460   C     0.56238   0.78000   0.43437   0.00000  Uiso   1.00
C461   C     0.52785   0.78813   0.41111   0.00000  Uiso   1.00
C462   C     0.51082   0.83764   0.06389   0.00000  Uiso   1.00
C463   C     0.58608   0.80645   0.06077   0.00000  Uiso   1.00
C464   C     0.45602   0.82794   0.41141   0.00000  Uiso   1.00
H465   H     0.48083   0.85775   0.08548   0.00000  Uiso   1.00
H466   H     0.38581   0.85464   0.42276   0.00000  Uiso   1.00
H467   H     0.41960   0.84607   0.06609   0.00000  Uiso   1.00
H468   H     0.36271   0.86160   0.02151   0.00000  Uiso   1.00
H469   H     0.53285   0.77358   0.37225   0.00000  Uiso   1.00
C470   C     0.48226   0.97797   0.30161   0.00000  Uiso   1.00
C471   C     0.48185   0.68827   0.30189   0.00000  Uiso   1.00
C472   C     0.49936   0.70928   0.25168   0.00000  Uiso   1.00
C473   C     0.51680   0.68796   0.20193   0.00000  Uiso   1.00
C474   C     0.51671   0.97817   0.20214   0.00000  Uiso   1.00
H475   H     0.52990   0.96096   0.16403   0.00000  Uiso   1.00
C476   C     0.49946   0.95718   0.25151   0.00000  Uiso   1.00
C477   C     0.65017   0.80115   0.22660   0.00000  Uiso   1.00
H478   H     0.63814   0.77536   0.20777   0.00000  Uiso   1.00
C479   C     0.36470   0.80117   0.22656   0.00000  Uiso   1.00
H480   H     0.38867   0.77543   0.20768   0.00000  Uiso   1.00
N481   N     0.38093   0.83334   0.25001   0.00000  Uiso   1.00
C482   C     0.34951   0.86582   0.27322   0.00000  Uiso   1.00
C483   C     0.63516   0.86563   0.27284   0.00000  Uiso   1.00
H484   H     0.61083   0.89120   0.29159   0.00000  Uiso   1.00
N485   N     0.61906   0.83331   0.25000   0.00000  Uiso   1.00
N486   N     0.46339   0.71105   0.35234   0.00000  Uiso   1.00
O487   O     0.42891   0.73842   0.36003   0.00000  Uiso   1.00
O488   O     0.47853   0.70238   0.39211   0.00000  Uiso   1.00
Cl489  Cl    0.53849   0.71435   0.13898   0.00000  Uiso   1.00
N490   N     0.36401   0.90029   0.29866   0.00000  Uiso   1.00
O491   O     0.37492   0.89373   0.34179   0.00000  Uiso   1.00
O492   O     0.35562   0.93857   0.28685   0.00000  Uiso   1.00
N493   N     0.64018   0.77275   0.47802   0.00000  Uiso   1.00
O494   O     0.66195   0.75009   0.00378   0.00000  Uiso   1.00
O495   O     0.66364   0.78306   0.42779   0.00000  Uiso   1.00
Cl496  Cl    0.45981   0.94933   0.36309   0.00000  Uiso   1.00
O497   O     0.79512   0.89442   0.25000   0.00000  Uiso   1.00
O498   O     0.87157   0.89441   0.25000   0.00000  Uiso   1.00
C499   C     0.83328   0.91315   0.25000   0.00000  Uiso   1.00
O500   O     0.77613   0.83333   0.32681   0.00000  Uiso   1.00
O501   O     0.85258   0.83332   0.32681   0.00000  Uiso   1.00
C502   C     0.80660   0.83124   0.35218   0.00000  Uiso   1.00
Zn503  Zn    0.78229   0.83334   0.25000   0.00000  Uiso   1.00
Zn504  Zn    0.88438   0.83333   0.25000   0.00000  Uiso   1.00
O505   O     0.79510   0.77226   0.24999   0.00000  Uiso   1.00
O506   O     0.87154   0.77225   0.24999   0.00000  Uiso   1.00
O507   O     0.81409   0.83335   0.17319   0.00000  Uiso   1.00
O508   O     0.89053   0.83334   0.17319   0.00000  Uiso   1.00
C509   C     0.83308   0.75347   0.25091   0.00000  Uiso   1.00
C510   C     0.86017   0.83325   0.14777   0.00000  Uiso   1.00
C511   C     0.92815   0.79258   0.00745   0.00000  Uiso   1.00
H512   H     0.94522   0.79972   0.08047   0.00000  Uiso   1.00
H513   H     0.92550   0.75969   0.41247   0.00000  Uiso   1.00
C514   C     0.87673   0.82777   0.08917   0.00000  Uiso   1.00
C515   C     0.74413   0.84452   0.44202   0.00000  Uiso   1.00
C516   C     0.73133   0.84945   0.49782   0.00000  Uiso   1.00
C517   C     0.76480   0.84100   0.02276   0.00000  Uiso   1.00
C518   C     0.81123   0.82513   0.49223   0.00000  Uiso   1.00
C519   C     0.82067   0.81355   0.43779   0.00000  Uiso   1.00
C520   C     0.84854   0.82022   0.01387   0.00000  Uiso   1.00
C521   C     0.89155   0.79787   0.48454   0.00000  Uiso   1.00
C522   C     0.89571   0.78000   0.43437   0.00000  Uiso   1.00
C523   C     0.86118   0.78813   0.41111   0.00000  Uiso   1.00
C524   C     0.84415   0.83764   0.06389   0.00000  Uiso   1.00
C525   C     0.91941   0.80645   0.06077   0.00000  Uiso   1.00
C526   C     0.78936   0.82794   0.41141   0.00000  Uiso   1.00
H527   H     0.81416   0.85775   0.08548   0.00000  Uiso   1.00
H528   H     0.71914   0.85464   0.42276   0.00000  Uiso   1.00
H529   H     0.75293   0.84607   0.06609   0.00000  Uiso   1.00
H530   H     0.69604   0.86160   0.02151   0.00000  Uiso   1.00
H531   H     0.86619   0.77358   0.37225   0.00000  Uiso   1.00
C532   C     0.81559   0.97797   0.30161   0.00000  Uiso   1.00
C533   C     0.81518   0.68827   0.30189   0.00000  Uiso   1.00
C534   C     0.83269   0.70928   0.25168   0.00000  Uiso   1.00
C535   C     0.85013   0.68796   0.20193   0.00000  Uiso   1.00
C536   C     0.85005   0.97817   0.20214   0.00000  Uiso   1.00
H537   H     0.86323   0.96096   0.16403   0.00000  Uiso   1.00
C538   C     0.83279   0.95718   0.25151   0.00000  Uiso   1.00
C539   C     0.98351   0.80115   0.22660   0.00000  Uiso   1.00
H540   H     0.97147   0.77536   0.20777   0.00000  Uiso   1.00
C541   C     0.69803   0.80117   0.22656   0.00000  Uiso   1.00
H542   H     0.72200   0.77543   0.20768   0.00000  Uiso   1.00
N543   N     0.71426   0.83334   0.25001   0.00000  Uiso   1.00
C544   C     0.68284   0.86582   0.27322   0.00000  Uiso   1.00
C545   C     0.96850   0.86563   0.27284   0.00000  Uiso   1.00
H546   H     0.94416   0.89120   0.29159   0.00000  Uiso   1.00
N547   N     0.95239   0.83331   0.25000   0.00000  Uiso   1.00
N548   N     0.79673   0.71105   0.35234   0.00000  Uiso   1.00
O549   O     0.76224   0.73842   0.36003   0.00000  Uiso   1.00
O550   O     0.81186   0.70238   0.39211   0.00000  Uiso   1.00
Cl551  Cl    0.87183   0.71435   0.13898   0.00000  Uiso   1.00
N552   N     0.69735   0.90029   0.29866   0.00000  Uiso   1.00
O553   O     0.70826   0.89373   0.34179   0.00000  Uiso   1.00
O554   O     0.68895   0.93857   0.28685   0.00000  Uiso   1.00
N555   N     0.97352   0.77275   0.47802   0.00000  Uiso   1.00
O556   O     0.99528   0.75009   0.00378   0.00000  Uiso   1.00
O557   O     0.99697   0.78306   0.42779   0.00000  Uiso   1.00
Cl558  Cl    0.79314   0.94933   0.36309   0.00000  Uiso   1.00
O559   O     0.12846   0.22775   0.75000   0.00000  Uiso   1.00
O560   O     0.20490   0.22774   0.75000   0.00000  Uiso   1.00
C561   C     0.16662   0.24649   0.75000   0.00000  Uiso   1.00
O562   O     0.10947   0.16666   0.82681   0.00000  Uiso   1.00
O563   O     0.18591   0.16665   0.82681   0.00000  Uiso   1.00
C564   C     0.13993   0.16457   0.85218   0.00000  Uiso   1.00
Zn565  Zn    0.11562   0.16667   0.75000   0.00000  Uiso   1.00
Zn566  Zn    0.21771   0.16666   0.75000   0.00000  Uiso   1.00
O567   O     0.12843   0.10559   0.74999   0.00000  Uiso   1.00
O568   O     0.20488   0.10558   0.74999   0.00000  Uiso   1.00
O569   O     0.14742   0.16668   0.67319   0.00000  Uiso   1.00
O570   O     0.22387   0.16667   0.67319   0.00000  Uiso   1.00
C571   C     0.16641   0.08681   0.75091   0.00000  Uiso   1.00
C572   C     0.19350   0.16658   0.64777   0.00000  Uiso   1.00
C573   C     0.26149   0.12592   0.50745   0.00000  Uiso   1.00
H574   H     0.27856   0.13305   0.58047   0.00000  Uiso   1.00
H575   H     0.25883   0.09303   0.91247   0.00000  Uiso   1.00
C576   C     0.21006   0.16111   0.58917   0.00000  Uiso   1.00
C577   C     0.07747   0.17785   0.94202   0.00000  Uiso   1.00
C578   C     0.06466   0.18279   0.99782   0.00000  Uiso   1.00
C579   C     0.09814   0.17433   0.52276   0.00000  Uiso   1.00
C580   C     0.14456   0.15846   0.99223   0.00000  Uiso   1.00
C581   C     0.15400   0.14689   0.93779   0.00000  Uiso   1.00
C582   C     0.18187   0.15356   0.51387   0.00000  Uiso   1.00
C583   C     0.22488   0.13120   0.98454   0.00000  Uiso   1.00
C584   C     0.22904   0.11333   0.93437   0.00000  Uiso   1.00
C585   C     0.19451   0.12146   0.91111   0.00000  Uiso   1.00
C586   C     0.17749   0.17097   0.56389   0.00000  Uiso   1.00
C587   C     0.25274   0.13979   0.56077   0.00000  Uiso   1.00
C588   C     0.12269   0.16127   0.91141   0.00000  Uiso   1.00
H589   H     0.14749   0.19108   0.58548   0.00000  Uiso   1.00
H590   H     0.05247   0.18797   0.92276   0.00000  Uiso   1.00
H591   H     0.08627   0.17940   0.56609   0.00000  Uiso   1.00
H592   H     0.02938   0.19493   0.52151   0.00000  Uiso   1.00
H593   H     0.19952   0.10691   0.87225   0.00000  Uiso   1.00
C594   C     0.14892   0.31130   0.80161   0.00000  Uiso   1.00
C595   C     0.14851   0.02160   0.80189   0.00000  Uiso   1.00
C596   C     0.16602   0.04262   0.75168   0.00000  Uiso   1.00
C597   C     0.18347   0.02129   0.70193   0.00000  Uiso   1.00
C598   C     0.18338   0.31150   0.70214   0.00000  Uiso   1.00
H599   H     0.19657   0.29429   0.66403   0.00000  Uiso   1.00
C600   C     0.16613   0.29051   0.75151   0.00000  Uiso   1.00
C601   C     0.31684   0.13448   0.72660   0.00000  Uiso   1.00
H602   H     0.30480   0.10870   0.70777   0.00000  Uiso   1.00
C603   C     0.03137   0.13451   0.72656   0.00000  Uiso   1.00
H604   H     0.05534   0.10876   0.70768   0.00000  Uiso   1.00
N605   N     0.04760   0.16668   0.75001   0.00000  Uiso   1.00
C606   C     0.01618   0.19915   0.77322   0.00000  Uiso   1.00
C607   C     0.30183   0.19896   0.77284   0.00000  Uiso   1.00
H608   H     0.27750   0.22454   0.79159   0.00000  Uiso   1.00
N609   N     0.28573   0.16665   0.75000   0.00000  Uiso   1.00
N610   N     0.13006   0.04438   0.85234   0.00000  Uiso   1.00
O611   O     0.09558   0.07176   0.86003   0.00000  Uiso   1.00
O612   O     0.14519   0.03571   0.89211   0.00000  Uiso   1.00
Cl613  Cl    0.20516   0.04768   0.63898   0.00000  Uiso   1.00
N614   N     0.03068   0.23362   0.79866   0.00000  Uiso   1.00
O615   O     0.04159   0.22706   0.84179   0.00000  Uiso   1.00
O616   O     0.02228   0.27190   0.78685   0.00000  Uiso   1.00
N617   N     0.30685   0.10608   0.97802   0.00000  Uiso   1.00
O618   O     0.32862   0.08343   0.50378   0.00000  Uiso   1.00
O619   O     0.33031   0.11640   0.92779   0.00000  Uiso   1.00
Cl620  Cl    0.12648   0.28266   0.86309   0.00000  Uiso   1.00
O621   O     0.46179   0.22775   0.75000   0.00000  Uiso   1.00
O622   O     0.53823   0.22774   0.75000   0.00000  Uiso   1.00
C623   C     0.49995   0.24649   0.75000   0.00000  Uiso   1.00
O624   O     0.44280   0.16666   0.82681   0.00000  Uiso   1.00
O625   O     0.51924   0.16665   0.82681   0.00000  Uiso   1.00
C626   C     0.47326   0.16457   0.85218   0.00000  Uiso   1.00
Zn627  Zn    0.44896   0.16667   0.75000   0.00000  Uiso   1.00
Zn628  Zn    0.55104   0.16666   0.75000   0.00000  Uiso   1.00
O629   O     0.46177   0.10559   0.74999   0.00000  Uiso   1.00
O630   O     0.53821   0.10558   0.74999   0.00000  Uiso   1.00
O631   O     0.48076   0.16668   0.67319   0.00000  Uiso   1.00
O632   O     0.55720   0.16667   0.67319   0.00000  Uiso   1.00
C633   C     0.49975   0.08681   0.75091   0.00000  Uiso   1.00
C634   C     0.52684   0.16658   0.64777   0.00000  Uiso   1.00
C635   C     0.59482   0.12592   0.50745   0.00000  Uiso   1.00
H636   H     0.61189   0.13305   0.58047   0.00000  Uiso   1.00
H637   H     0.59216   0.09303   0.91247   0.00000  Uiso   1.00
C638   C     0.54340   0.16111   0.58917   0.00000  Uiso   1.00
C639   C     0.41080   0.17785   0.94202   0.00000  Uiso   1.00
C640   C     0.39799   0.18279   0.99782   0.00000  Uiso   1.00
C641   C     0.43147   0.17433   0.52276   0.00000  Uiso   1.00
C642   C     0.47790   0.15846   0.99223   0.00000  Uiso   1.00
C643   C     0.48733   0.14689   0.93779   0.00000  Uiso   1.00
C644   C     0.51520   0.15356   0.51387   0.00000  Uiso   1.00
C645   C     0.55822   0.13120   0.98454   0.00000  Uiso   1.00
C646   C     0.56238   0.11333   0.93437   0.00000  Uiso   1.00
C647   C     0.52785   0.12146   0.91111   0.00000  Uiso   1.00
C648   C     0.51082   0.17097   0.56389   0.00000  Uiso   1.00
C649   C     0.58608   0.13979   0.56077   0.00000  Uiso   1.00
C650   C     0.45602   0.16127   0.91141   0.00000  Uiso   1.00
H651   H     0.48083   0.19108   0.58548   0.00000  Uiso   1.00
H652   H     0.38581   0.18797   0.92276   0.00000  Uiso   1.00
H653   H     0.41960   0.17940   0.56609   0.00000  Uiso   1.00
H654   H     0.36271   0.19493   0.52151   0.00000  Uiso   1.00
H655   H     0.53285   0.10691   0.87225   0.00000  Uiso   1.00
C656   C     0.48226   0.31130   0.80161   0.00000  Uiso   1.00
C657   C     0.48185   0.02160   0.80189   0.00000  Uiso   1.00
C658   C     0.49936   0.04262   0.75168   0.00000  Uiso   1.00
C659   C     0.51680   0.02129   0.70193   0.00000  Uiso   1.00
C660   C     0.51671   0.31150   0.70214   0.00000  Uiso   1.00
H661   H     0.52990   0.29429   0.66403   0.00000  Uiso   1.00
C662   C     0.49946   0.29051   0.75151   0.00000  Uiso   1.00
C663   C     0.65017   0.13448   0.72660   0.00000  Uiso   1.00
H664   H     0.63814   0.10870   0.70777   0.00000  Uiso   1.00
C665   C     0.36470   0.13451   0.72656   0.00000  Uiso   1.00
H666   H     0.38867   0.10876   0.70768   0.00000  Uiso   1.00
N667   N     0.38093   0.16668   0.75001   0.00000  Uiso   1.00
C668   C     0.34951   0.19915   0.77322   0.00000  Uiso   1.00
C669   C     0.63516   0.19896   0.77284   0.00000  Uiso   1.00
H670   H     0.61083   0.22454   0.79159   0.00000  Uiso   1.00
N671   N     0.61906   0.16665   0.75000   0.00000  Uiso   1.00
N672   N     0.46339   0.04438   0.85234   0.00000  Uiso   1.00
O673   O     0.42891   0.07176   0.86003   0.00000  Uiso   1.00
O674   O     0.47853   0.03571   0.89211   0.00000  Uiso   1.00
Cl675  Cl    0.53849   0.04768   0.63898   0.00000  Uiso   1.00
N676   N     0.36401   0.23362   0.79866   0.00000  Uiso   1.00
O677   O     0.37492   0.22706   0.84179   0.00000  Uiso   1.00
O678   O     0.35562   0.27190   0.78685   0.00000  Uiso   1.00
N679   N     0.64018   0.10608   0.97802   0.00000  Uiso   1.00
O680   O     0.66195   0.08343   0.50378   0.00000  Uiso   1.00
O681   O     0.66364   0.11640   0.92779   0.00000  Uiso   1.00
Cl682  Cl    0.45981   0.28266   0.86309   0.00000  Uiso   1.00
O683   O     0.79512   0.22775   0.75000   0.00000  Uiso   1.00
O684   O     0.87157   0.22774   0.75000   0.00000  Uiso   1.00
C685   C     0.83328   0.24649   0.75000   0.00000  Uiso   1.00
O686   O     0.77613   0.16666   0.82681   0.00000  Uiso   1.00
O687   O     0.85258   0.16665   0.82681   0.00000  Uiso   1.00
C688   C     0.80660   0.16457   0.85218   0.00000  Uiso   1.00
Zn689  Zn    0.78229   0.16667   0.75000   0.00000  Uiso   1.00
Zn690  Zn    0.88438   0.16666   0.75000   0.00000  Uiso   1.00
O691   O     0.79510   0.10559   0.74999   0.00000  Uiso   1.00
O692   O     0.87154   0.10558   0.74999   0.00000  Uiso   1.00
O693   O     0.81409   0.16668   0.67319   0.00000  Uiso   1.00
O694   O     0.89053   0.16667   0.67319   0.00000  Uiso   1.00
C695   C     0.83308   0.08681   0.75091   0.00000  Uiso   1.00
C696   C     0.86017   0.16658   0.64777   0.00000  Uiso   1.00
C697   C     0.92815   0.12592   0.50745   0.00000  Uiso   1.00
H698   H     0.94522   0.13305   0.58047   0.00000  Uiso   1.00
H699   H     0.92550   0.09303   0.91247   0.00000  Uiso   1.00
C700   C     0.87673   0.16111   0.58917   0.00000  Uiso   1.00
C701   C     0.74413   0.17785   0.94202   0.00000  Uiso   1.00
C702   C     0.73133   0.18279   0.99782   0.00000  Uiso   1.00
C703   C     0.76480   0.17433   0.52276   0.00000  Uiso   1.00
C704   C     0.81123   0.15846   0.99223   0.00000  Uiso   1.00
C705   C     0.82067   0.14689   0.93779   0.00000  Uiso   1.00
C706   C     0.84854   0.15356   0.51387   0.00000  Uiso   1.00
C707   C     0.89155   0.13120   0.98454   0.00000  Uiso   1.00
C708   C     0.89571   0.11333   0.93437   0.00000  Uiso   1.00
C709   C     0.86118   0.12146   0.91111   0.00000  Uiso   1.00
C710   C     0.84415   0.17097   0.56389   0.00000  Uiso   1.00
C711   C     0.91941   0.13979   0.56077   0.00000  Uiso   1.00
C712   C     0.78936   0.16127   0.91141   0.00000  Uiso   1.00
H713   H     0.81416   0.19108   0.58548   0.00000  Uiso   1.00
H714   H     0.71914   0.18797   0.92276   0.00000  Uiso   1.00
H715   H     0.75293   0.17940   0.56609   0.00000  Uiso   1.00
H716   H     0.69604   0.19493   0.52151   0.00000  Uiso   1.00
H717   H     0.86619   0.10691   0.87225   0.00000  Uiso   1.00
C718   C     0.81559   0.31130   0.80161   0.00000  Uiso   1.00
C719   C     0.81518   0.02160   0.80189   0.00000  Uiso   1.00
C720   C     0.83269   0.04262   0.75168   0.00000  Uiso   1.00
C721   C     0.85013   0.02129   0.70193   0.00000  Uiso   1.00
C722   C     0.85005   0.31150   0.70214   0.00000  Uiso   1.00
H723   H     0.86323   0.29429   0.66403   0.00000  Uiso   1.00
C724   C     0.83279   0.29051   0.75151   0.00000  Uiso   1.00
C725   C     0.98351   0.13448   0.72660   0.00000  Uiso   1.00
H726   H     0.97147   0.10870   0.70777   0.00000  Uiso   1.00
C727   C     0.69803   0.13451   0.72656   0.00000  Uiso   1.00
H728   H     0.72200   0.10876   0.70768   0.00000  Uiso   1.00
N729   N     0.71426   0.16668   0.75001   0.00000  Uiso   1.00
C730   C     0.68284   0.19915   0.77322   0.00000  Uiso   1.00
C731   C     0.96850   0.19896   0.77284   0.00000  Uiso   1.00
H732   H     0.94416   0.22454   0.79159   0.00000  Uiso   1.00
N733   N     0.95239   0.16665   0.75000   0.00000  Uiso   1.00
N734   N     0.79673   0.04438   0.85234   0.00000  Uiso   1.00
O735   O     0.76224   0.07176   0.86003   0.00000  Uiso   1.00
O736   O     0.81186   0.03571   0.89211   0.00000  Uiso   1.00
Cl737  Cl    0.87183   0.04768   0.63898   0.00000  Uiso   1.00
N738   N     0.69735   0.23362   0.79866   0.00000  Uiso   1.00
O739   O     0.70826   0.22706   0.84179   0.00000  Uiso   1.00
O740   O     0.68895   0.27190   0.78685   0.00000  Uiso   1.00
N741   N     0.97352   0.10608   0.97802   0.00000  Uiso   1.00
O742   O     0.99528   0.08343   0.50378   0.00000  Uiso   1.00
O743   O     0.99697   0.11640   0.92779   0.00000  Uiso   1.00
Cl744  Cl    0.79314   0.28266   0.86309   0.00000  Uiso   1.00
O745   O     0.12846   0.56108   0.75000   0.00000  Uiso   1.00
O746   O     0.20490   0.56107   0.75000   0.00000  Uiso   1.00
C747   C     0.16662   0.57982   0.75000   0.00000  Uiso   1.00
O748   O     0.10947   0.50000   0.82681   0.00000  Uiso   1.00
O749   O     0.18591   0.49999   0.82681   0.00000  Uiso   1.00
C750   C     0.13993   0.49791   0.85218   0.00000  Uiso   1.00
Zn751  Zn    0.11562   0.50001   0.75000   0.00000  Uiso   1.00
Zn752  Zn    0.21771   0.49999   0.75000   0.00000  Uiso   1.00
O753   O     0.12843   0.43893   0.74999   0.00000  Uiso   1.00
O754   O     0.20488   0.43892   0.74999   0.00000  Uiso   1.00
O755   O     0.14742   0.50001   0.67319   0.00000  Uiso   1.00
O756   O     0.22387   0.50000   0.67319   0.00000  Uiso   1.00
C757   C     0.16641   0.42014   0.75091   0.00000  Uiso   1.00
C758   C     0.19350   0.49991   0.64777   0.00000  Uiso   1.00
C759   C     0.26149   0.45925   0.50745   0.00000  Uiso   1.00
H760   H     0.27856   0.46639   0.58047   0.00000  Uiso   1.00
H761   H     0.25883   0.42636   0.91247   0.00000  Uiso   1.00
C762   C     0.21006   0.49444   0.58917   0.00000  Uiso   1.00
C763   C     0.07747   0.51118   0.94202   0.00000  Uiso   1.00
C764   C     0.06466   0.51612   0.99782   0.00000  Uiso   1.00
C765   C     0.09814   0.50766   0.52276   0.00000  Uiso   1.00
C766   C     0.14456   0.49180   0.99223   0.00000  Uiso   1.00
C767   C     0.15400   0.48022   0.93779   0.00000  Uiso   1.00
C768   C     0.18187   0.48689   0.51387   0.00000  Uiso   1.00
C769   C     0.22488   0.46453   0.98454   0.00000  Uiso   1.00
C770   C     0.22904   0.44667   0.93437   0.00000  Uiso   1.00
C771   C     0.19451   0.45480   0.91111   0.00000  Uiso   1.00
C772   C     0.17749   0.50430   0.56389   0.00000  Uiso   1.00
C773   C     0.25274   0.47312   0.56077   0.00000  Uiso   1.00
C774   C     0.12269   0.49461   0.91141   0.00000  Uiso   1.00
H775   H     0.14749   0.52442   0.58548   0.00000  Uiso   1.00
H776   H     0.05247   0.52131   0.92276   0.00000  Uiso   1.00
H777   H     0.08627   0.51273   0.56609   0.00000  Uiso   1.00
H778   H     0.02938   0.52827   0.52151   0.00000  Uiso   1.00
H779   H     0.19952   0.44024   0.87225   0.00000  Uiso   1.00
C780   C     0.14892   0.64463   0.80161   0.00000  Uiso   1.00
C781   C     0.14851   0.35494   0.80189   0.00000  Uiso   1.00
C782   C     0.16602   0.37595   0.75168   0.00000  Uiso   1.00
C783   C     0.18347   0.35463   0.70193   0.00000  Uiso   1.00
C784   C     0.18338   0.64484   0.70214   0.00000  Uiso   1.00
H785   H     0.19657   0.62762   0.66403   0.00000  Uiso   1.00
C786   C     0.16613   0.62384   0.75151   0.00000  Uiso   1.00
C787   C     0.31684   0.46781   0.72660   0.00000  Uiso   1.00
H788   H     0.30480   0.44203   0.70777   0.00000  Uiso   1.00
C789   C     0.03137   0.46784   0.72656   0.00000  Uiso   1.00
H790   H     0.05534   0.44210   0.70768   0.00000  Uiso   1.00
N791   N     0.04760   0.50001   0.75001   0.00000  Uiso   1.00
C792   C     0.01618   0.53248   0.77322   0.00000  Uiso   1.00
C793   C     0.30183   0.53230   0.77284   0.00000  Uiso   1.00
H794   H     0.27750   0.55787   0.79159   0.00000  Uiso   1.00
N795   N     0.28573   0.49998   0.75000   0.00000  Uiso   1.00
N796   N     0.13006   0.37772   0.85234   0.00000  Uiso   1.00
O797   O     0.09558   0.40509   0.86003   0.00000  Uiso   1.00
O798   O     0.14519   0.36904   0.89211   0.00000  Uiso   1.00
Cl799  Cl    0.20516   0.38101   0.63898   0.00000  Uiso   1.00
N800   N     0.03068   0.56696   0.79866   0.00000  Uiso   1.00
O801   O     0.04159   0.56040   0.84179   0.00000  Uiso   1.00
O802   O     0.02228   0.60524   0.78685   0.00000  Uiso   1.00
N803   N     0.30685   0.43942   0.97802   0.00000  Uiso   1.00
O804   O     0.32862   0.41676   0.50378   0.00000  Uiso   1.00
O805   O     0.33031   0.44973   0.92779   0.00000  Uiso   1.00
Cl806  Cl    0.12648   0.61600   0.86309   0.00000  Uiso   1.00
O807   O     0.46179   0.56108   0.75000   0.00000  Uiso   1.00
O808   O     0.53823   0.56107   0.75000   0.00000  Uiso   1.00
C809   C     0.49995   0.57982   0.75000   0.00000  Uiso   1.00
O810   O     0.44280   0.50000   0.82681   0.00000  Uiso   1.00
O811   O     0.51924   0.49999   0.82681   0.00000  Uiso   1.00
C812   C     0.47326   0.49791   0.85218   0.00000  Uiso   1.00
Zn813  Zn    0.44896   0.50001   0.75000   0.00000  Uiso   1.00
Zn814  Zn    0.55104   0.49999   0.75000   0.00000  Uiso   1.00
O815   O     0.46177   0.43893   0.74999   0.00000  Uiso   1.00
O816   O     0.53821   0.43892   0.74999   0.00000  Uiso   1.00
O817   O     0.48076   0.50001   0.67319   0.00000  Uiso   1.00
O818   O     0.55720   0.50000   0.67319   0.00000  Uiso   1.00
C819   C     0.49975   0.42014   0.75091   0.00000  Uiso   1.00
C820   C     0.52684   0.49991   0.64777   0.00000  Uiso   1.00
C821   C     0.59482   0.45925   0.50745   0.00000  Uiso   1.00
H822   H     0.61189   0.46639   0.58047   0.00000  Uiso   1.00
H823   H     0.59216   0.42636   0.91247   0.00000  Uiso   1.00
C824   C     0.54340   0.49444   0.58917   0.00000  Uiso   1.00
C825   C     0.41080   0.51118   0.94202   0.00000  Uiso   1.00
C826   C     0.39799   0.51612   0.99782   0.00000  Uiso   1.00
C827   C     0.43147   0.50766   0.52276   0.00000  Uiso   1.00
C828   C     0.47790   0.49180   0.99223   0.00000  Uiso   1.00
C829   C     0.48733   0.48022   0.93779   0.00000  Uiso   1.00
C830   C     0.51520   0.48689   0.51387   0.00000  Uiso   1.00
C831   C     0.55822   0.46453   0.98454   0.00000  Uiso   1.00
C832   C     0.56238   0.44667   0.93437   0.00000  Uiso   1.00
C833   C     0.52785   0.45480   0.91111   0.00000  Uiso   1.00
C834   C     0.51082   0.50430   0.56389   0.00000  Uiso   1.00
C835   C     0.58608   0.47312   0.56077   0.00000  Uiso   1.00
C836   C     0.45602   0.49461   0.91141   0.00000  Uiso   1.00
H837   H     0.48083   0.52442   0.58548   0.00000  Uiso   1.00
H838   H     0.38581   0.52131   0.92276   0.00000  Uiso   1.00
H839   H     0.41960   0.51273   0.56609   0.00000  Uiso   1.00
H840   H     0.36271   0.52827   0.52151   0.00000  Uiso   1.00
H841   H     0.53285   0.44024   0.87225   0.00000  Uiso   1.00
C842   C     0.48226   0.64463   0.80161   0.00000  Uiso   1.00
C843   C     0.48185   0.35494   0.80189   0.00000  Uiso   1.00
C844   C     0.49936   0.37595   0.75168   0.00000  Uiso   1.00
C845   C     0.51680   0.35463   0.70193   0.00000  Uiso   1.00
C846   C     0.51671   0.64484   0.70214   0.00000  Uiso   1.00
H847   H     0.52990   0.62762   0.66403   0.00000  Uiso   1.00
C848   C     0.49946   0.62384   0.75151   0.00000  Uiso   1.00
C849   C     0.65017   0.46781   0.72660   0.00000  Uiso   1.00
H850   H     0.63814   0.44203   0.70777   0.00000  Uiso   1.00
C851   C     0.36470   0.46784   0.72656   0.00000  Uiso   1.00
H852   H     0.38867   0.44210   0.70768   0.00000  Uiso   1.00
N853   N     0.38093   0.50001   0.75001   0.00000  Uiso   1.00
C854   C     0.34951   0.53248   0.77322   0.00000  Uiso   1.00
C855   C     0.63516   0.53230   0.77284   0.00000  Uiso   1.00
H856   H     0.61083   0.55787   0.79159   0.00000  Uiso   1.00
N857   N     0.61906   0.49998   0.75000   0.00000  Uiso   1.00
N858   N     0.46339   0.37772   0.85234   0.00000  Uiso   1.00
O859   O     0.42891   0.40509   0.86003   0.00000  Uiso   1.00
O860   O     0.47853   0.36904   0.89211   0.00000  Uiso   1.00
Cl861  Cl    0.53849   0.38101   0.63898   0.00000  Uiso   1.00
N862   N     0.36401   0.56696   0.79866   0.00000  Uiso   1.00
O863   O     0.37492   0.56040   0.84179   0.00000  Uiso   1.00
O864   O     0.35562   0.60524   0.78685   0.00000  Uiso   1.00
N865   N     0.64018   0.43942   0.97802   0.00000  Uiso   1.00
O866   O     0.66195   0.41676   0.50378   0.00000  Uiso   1.00
O867   O     0.66364   0.44973   0.92779   0.00000  Uiso   1.00
Cl868  Cl    0.45981   0.61600   0.86309   0.00000  Uiso   1.00
O869   O     0.79512   0.56108   0.75000   0.00000  Uiso   1.00
O870   O     0.87157   0.56107   0.75000   0.00000  Uiso   1.00
C871   C     0.83328   0.57982   0.75000   0.00000  Uiso   1.00
O872   O     0.77613   0.50000   0.82681   0.00000  Uiso   1.00
O873   O     0.85258   0.49999   0.82681   0.00000  Uiso   1.00
C874   C     0.80660   0.49791   0.85218   0.00000  Uiso   1.00
Zn875  Zn    0.78229   0.50001   0.75000   0.00000  Uiso   1.00
Zn876  Zn    0.88438   0.49999   0.75000   0.00000  Uiso   1.00
O877   O     0.79510   0.43893   0.74999   0.00000  Uiso   1.00
O878   O     0.87154   0.43892   0.74999   0.00000  Uiso   1.00
O879   O     0.81409   0.50001   0.67319   0.00000  Uiso   1.00
O880   O     0.89053   0.50000   0.67319   0.00000  Uiso   1.00
C881   C     0.83308   0.42014   0.75091   0.00000  Uiso   1.00
C882   C     0.86017   0.49991   0.64777   0.00000  Uiso   1.00
C883   C     0.92815   0.45925   0.50745   0.00000  Uiso   1.00
H884   H     0.94522   0.46639   0.58047   0.00000  Uiso   1.00
H885   H     0.92550   0.42636   0.91247   0.00000  Uiso   1.00
C886   C     0.87673   0.49444   0.58917   0.00000  Uiso   1.00
C887   C     0.74413   0.51118   0.94202   0.00000  Uiso   1.00
C888   C     0.73133   0.51612   0.99782   0.00000  Uiso   1.00
C889   C     0.76480   0.50766   0.52276   0.00000  Uiso   1.00
C890   C     0.81123   0.49180   0.99223   0.00000  Uiso   1.00
C891   C     0.82067   0.48022   0.93779   0.00000  Uiso   1.00
C892   C     0.84854   0.48689   0.51387   0.00000  Uiso   1.00
C893   C     0.89155   0.46453   0.98454   0.00000  Uiso   1.00
C894   C     0.89571   0.44667   0.93437   0.00000  Uiso   1.00
C895   C     0.86118   0.45480   0.91111   0.00000  Uiso   1.00
C896   C     0.84415   0.50430   0.56389   0.00000  Uiso   1.00
C897   C     0.91941   0.47312   0.56077   0.00000  Uiso   1.00
C898   C     0.78936   0.49461   0.91141   0.00000  Uiso   1.00
H899   H     0.81416   0.52442   0.58548   0.00000  Uiso   1.00
H900   H     0.71914   0.52131   0.92276   0.00000  Uiso   1.00
H901   H     0.75293   0.51273   0.56609   0.00000  Uiso   1.00
H902   H     0.69604   0.52827   0.52151   0.00000  Uiso   1.00
H903   H     0.86619   0.44024   0.87225   0.00000  Uiso   1.00
C904   C     0.81559   0.64463   0.80161   0.00000  Uiso   1.00
C905   C     0.81518   0.35494   0.80189   0.00000  Uiso   1.00
C906   C     0.83269   0.37595   0.75168   0.00000  Uiso   1.00
C907   C     0.85013   0.35463   0.70193   0.00000  Uiso   1.00
C908   C     0.85005   0.64484   0.70214   0.00000  Uiso   1.00
H909   H     0.86323   0.62762   0.66403   0.00000  Uiso   1.00
C910   C     0.83279   0.62384   0.75151   0.00000  Uiso   1.00
C911   C     0.98351   0.46781   0.72660   0.00000  Uiso   1.00
H912   H     0.97147   0.44203   0.70777   0.00000  Uiso   1.00
C913   C     0.69803   0.46784   0.72656   0.00000  Uiso   1.00
H914   H     0.72200   0.44210   0.70768   0.00000  Uiso   1.00
N915   N     0.71426   0.50001   0.75001   0.00000  Uiso   1.00
C916   C     0.68284   0.53248   0.77322   0.00000  Uiso   1.00
C917   C     0.96850   0.53230   0.77284   0.00000  Uiso   1.00
H918   H     0.94416   0.55787   0.79159   0.00000  Uiso   1.00
N919   N     0.95239   0.49998   0.75000   0.00000  Uiso   1.00
N920   N     0.79673   0.37772   0.85234   0.00000  Uiso   1.00
O921   O     0.76224   0.40509   0.86003   0.00000  Uiso   1.00
O922   O     0.81186   0.36904   0.89211   0.00000  Uiso   1.00
Cl923  Cl    0.87183   0.38101   0.63898   0.00000  Uiso   1.00
N924   N     0.69735   0.56696   0.79866   0.00000  Uiso   1.00
O925   O     0.70826   0.56040   0.84179   0.00000  Uiso   1.00
O926   O     0.68895   0.60524   0.78685   0.00000  Uiso   1.00
N927   N     0.97352   0.43942   0.97802   0.00000  Uiso   1.00
O928   O     0.99528   0.41676   0.50378   0.00000  Uiso   1.00
O929   O     0.99697   0.44973   0.92779   0.00000  Uiso   1.00
Cl930  Cl    0.79314   0.61600   0.86309   0.00000  Uiso   1.00
O931   O     0.12846   0.89442   0.75000   0.00000  Uiso   1.00
O932   O     0.20490   0.89441   0.75000   0.00000  Uiso   1.00
C933   C     0.16662   0.91315   0.75000   0.00000  Uiso   1.00
O934   O     0.10947   0.83333   0.82681   0.00000  Uiso   1.00
O935   O     0.18591   0.83332   0.82681   0.00000  Uiso   1.00
C936   C     0.13993   0.83124   0.85218   0.00000  Uiso   1.00
Zn937  Zn    0.11562   0.83334   0.75000   0.00000  Uiso   1.00
Zn938  Zn    0.21771   0.83333   0.75000   0.00000  Uiso   1.00
O939   O     0.12843   0.77226   0.74999   0.00000  Uiso   1.00
O940   O     0.20488   0.77225   0.74999   0.00000  Uiso   1.00
O941   O     0.14742   0.83335   0.67319   0.00000  Uiso   1.00
O942   O     0.22387   0.83334   0.67319   0.00000  Uiso   1.00
C943   C     0.16641   0.75347   0.75091   0.00000  Uiso   1.00
C944   C     0.19350   0.83325   0.64777   0.00000  Uiso   1.00
C945   C     0.26149   0.79258   0.50745   0.00000  Uiso   1.00
H946   H     0.27856   0.79972   0.58047   0.00000  Uiso   1.00
H947   H     0.25883   0.75969   0.91247   0.00000  Uiso   1.00
C948   C     0.21006   0.82777   0.58917   0.00000  Uiso   1.00
C949   C     0.07747   0.84452   0.94202   0.00000  Uiso   1.00
C950   C     0.06466   0.84945   0.99782   0.00000  Uiso   1.00
C951   C     0.09814   0.84100   0.52276   0.00000  Uiso   1.00
C952   C     0.14456   0.82513   0.99223   0.00000  Uiso   1.00
C953   C     0.15400   0.81355   0.93779   0.00000  Uiso   1.00
C954   C     0.18187   0.82022   0.51387   0.00000  Uiso   1.00
C955   C     0.22488   0.79787   0.98454   0.00000  Uiso   1.00
C956   C     0.22904   0.78000   0.93437   0.00000  Uiso   1.00
C957   C     0.19451   0.78813   0.91111   0.00000  Uiso   1.00
C958   C     0.17749   0.83764   0.56389   0.00000  Uiso   1.00
C959   C     0.25274   0.80645   0.56077   0.00000  Uiso   1.00
C960   C     0.12269   0.82794   0.91141   0.00000  Uiso   1.00
H961   H     0.14749   0.85775   0.58548   0.00000  Uiso   1.00
H962   H     0.05247   0.85464   0.92276   0.00000  Uiso   1.00
H963   H     0.08627   0.84607   0.56609   0.00000  Uiso   1.00
H964   H     0.02938   0.86160   0.52151   0.00000  Uiso   1.00
H965   H     0.19952   0.77358   0.87225   0.00000  Uiso   1.00
C966   C     0.14892   0.97797   0.80161   0.00000  Uiso   1.00
C967   C     0.14851   0.68827   0.80189   0.00000  Uiso   1.00
C968   C     0.16602   0.70928   0.75168   0.00000  Uiso   1.00
C969   C     0.18347   0.68796   0.70193   0.00000  Uiso   1.00
C970   C     0.18338   0.97817   0.70214   0.00000  Uiso   1.00
H971   H     0.19657   0.96096   0.66403   0.00000  Uiso   1.00
C972   C     0.16613   0.95718   0.75151   0.00000  Uiso   1.00
C973   C     0.31684   0.80115   0.72660   0.00000  Uiso   1.00
H974   H     0.30480   0.77536   0.70777   0.00000  Uiso   1.00
C975   C     0.03137   0.80117   0.72656   0.00000  Uiso   1.00
H976   H     0.05534   0.77543   0.70768   0.00000  Uiso   1.00
N977   N     0.04760   0.83334   0.75001   0.00000  Uiso   1.00
C978   C     0.01618   0.86582   0.77322   0.00000  Uiso   1.00
C979   C     0.30183   0.86563   0.77284   0.00000  Uiso   1.00
H980   H     0.27750   0.89120   0.79159   0.00000  Uiso   1.00
N981   N     0.28573   0.83331   0.75000   0.00000  Uiso   1.00
N982   N     0.13006   0.71105   0.85234   0.00000  Uiso   1.00
O983   O     0.09558   0.73842   0.86003   0.00000  Uiso   1.00
O984   O     0.14519   0.70238   0.89211   0.00000  Uiso   1.00
Cl985  Cl    0.20516   0.71435   0.63898   0.00000  Uiso   1.00
N986   N     0.03068   0.90029   0.79866   0.00000  Uiso   1.00
O987   O     0.04159   0.89373   0.84179   0.00000  Uiso   1.00
O988   O     0.02228   0.93857   0.78685   0.00000  Uiso   1.00
N989   N     0.30685   0.77275   0.97802   0.00000  Uiso   1.00
O990   O     0.32862   0.75009   0.50378   0.00000  Uiso   1.00
O991   O     0.33031   0.78306   0.92779   0.00000  Uiso   1.00
Cl992  Cl    0.12648   0.94933   0.86309   0.00000  Uiso   1.00
O993   O     0.46179   0.89442   0.75000   0.00000  Uiso   1.00
O994   O     0.53823   0.89441   0.75000   0.00000  Uiso   1.00
C995   C     0.49995   0.91315   0.75000   0.00000  Uiso   1.00
O996   O     0.44280   0.83333   0.82681   0.00000  Uiso   1.00
O997   O     0.51924   0.83332   0.82681   0.00000  Uiso   1.00
C998   C     0.47326   0.83124   0.85218   0.00000  Uiso   1.00
Zn999  Zn    0.44896   0.83334   0.75000   0.00000  Uiso   1.00
Zn1000 Zn    0.55104   0.83333   0.75000   0.00000  Uiso   1.00
O1001  O     0.46177   0.77226   0.74999   0.00000  Uiso   1.00
O1002  O     0.53821   0.77225   0.74999   0.00000  Uiso   1.00
O1003  O     0.48076   0.83335   0.67319   0.00000  Uiso   1.00
O1004  O     0.55720   0.83334   0.67319   0.00000  Uiso   1.00
C1005  C     0.49975   0.75347   0.75091   0.00000  Uiso   1.00
C1006  C     0.52684   0.83325   0.64777   0.00000  Uiso   1.00
C1007  C     0.59482   0.79258   0.50745   0.00000  Uiso   1.00
H1008  H     0.61189   0.79972   0.58047   0.00000  Uiso   1.00
H1009  H     0.59216   0.75969   0.91247   0.00000  Uiso   1.00
C1010  C     0.54340   0.82777   0.58917   0.00000  Uiso   1.00
C1011  C     0.41080   0.84452   0.94202   0.00000  Uiso   1.00
C1012  C     0.39799   0.84945   0.99782   0.00000  Uiso   1.00
C1013  C     0.43147   0.84100   0.52276   0.00000  Uiso   1.00
C1014  C     0.47790   0.82513   0.99223   0.00000  Uiso   1.00
C1015  C     0.48733   0.81355   0.93779   0.00000  Uiso   1.00
C1016  C     0.51520   0.82022   0.51387   0.00000  Uiso   1.00
C1017  C     0.55822   0.79787   0.98454   0.00000  Uiso   1.00
C1018  C     0.56238   0.78000   0.93437   0.00000  Uiso   1.00
C1019  C     0.52785   0.78813   0.91111   0.00000  Uiso   1.00
C1020  C     0.51082   0.83764   0.56389   0.00000  Uiso   1.00
C1021  C     0.58608   0.80645   0.56077   0.00000  Uiso   1.00
C1022  C     0.45602   0.82794   0.91141   0.00000  Uiso   1.00
H1023  H     0.48083   0.85775   0.58548   0.00000  Uiso   1.00
H1024  H     0.38581   0.85464   0.92276   0.00000  Uiso   1.00
H1025  H     0.41960   0.84607   0.56609   0.00000  Uiso   1.00
H1026  H     0.36271   0.86160   0.52151   0.00000  Uiso   1.00
H1027  H     0.53285   0.77358   0.87225   0.00000  Uiso   1.00
C1028  C     0.48226   0.97797   0.80161   0.00000  Uiso   1.00
C1029  C     0.48185   0.68827   0.80189   0.00000  Uiso   1.00
C1030  C     0.49936   0.70928   0.75168   0.00000  Uiso   1.00
C1031  C     0.51680   0.68796   0.70193   0.00000  Uiso   1.00
C1032  C     0.51671   0.97817   0.70214   0.00000  Uiso   1.00
H1033  H     0.52990   0.96096   0.66403   0.00000  Uiso   1.00
C1034  C     0.49946   0.95718   0.75151   0.00000  Uiso   1.00
C1035  C     0.65017   0.80115   0.72660   0.00000  Uiso   1.00
H1036  H     0.63814   0.77536   0.70777   0.00000  Uiso   1.00
C1037  C     0.36470   0.80117   0.72656   0.00000  Uiso   1.00
H1038  H     0.38867   0.77543   0.70768   0.00000  Uiso   1.00
N1039  N     0.38093   0.83334   0.75001   0.00000  Uiso   1.00
C1040  C     0.34951   0.86582   0.77322   0.00000  Uiso   1.00
C1041  C     0.63516   0.86563   0.77284   0.00000  Uiso   1.00
H1042  H     0.61083   0.89120   0.79159   0.00000  Uiso   1.00
N1043  N     0.61906   0.83331   0.75000   0.00000  Uiso   1.00
N1044  N     0.46339   0.71105   0.85234   0.00000  Uiso   1.00
O1045  O     0.42891   0.73842   0.86003   0.00000  Uiso   1.00
O1046  O     0.47853   0.70238   0.89211   0.00000  Uiso   1.00
Cl1047 Cl    0.53849   0.71435   0.63898   0.00000  Uiso   1.00
N1048  N     0.36401   0.90029   0.79866   0.00000  Uiso   1.00
O1049  O     0.37492   0.89373   0.84179   0.00000  Uiso   1.00
O1050  O     0.35562   0.93857   0.78685   0.00000  Uiso   1.00
N1051  N     0.64018   0.77275   0.97802   0.00000  Uiso   1.00
O1052  O     0.66195   0.75009   0.50378   0.00000  Uiso   1.00
O1053  O     0.66364   0.78306   0.92779   0.00000  Uiso   1.00
Cl1054 Cl    0.45981   0.94933   0.86309   0.00000  Uiso   1.00
O1055  O     0.79512   0.89442   0.75000   0.00000  Uiso   1.00
O1056  O     0.87157   0.89441   0.75000   0.00000  Uiso   1.00
C1057  C     0.83328   0.91315   0.75000   0.00000  Uiso   1.00
O1058  O     0.77613   0.83333   0.82681   0.00000  Uiso   1.00
O1059  O     0.85258   0.83332   0.82681   0.00000  Uiso   1.00
C1060  C     0.80660   0.83124   0.85218   0.00000  Uiso   1.00
Zn1061 Zn    0.78229   0.83334   0.75000   0.00000  Uiso   1.00
Zn1062 Zn    0.88438   0.83333   0.75000   0.00000  Uiso   1.00
O1063  O     0.79510   0.77226   0.74999   0.00000  Uiso   1.00
O1064  O     0.87154   0.77225   0.74999   0.00000  Uiso   1.00
O1065  O     0.81409   0.83335   0.67319   0.00000  Uiso   1.00
O1066  O     0.89053   0.83334   0.67319   0.00000  Uiso   1.00
C1067  C     0.83308   0.75347   0.75091   0.00000  Uiso   1.00
C1068  C     0.86017   0.83325   0.64777   0.00000  Uiso   1.00
C1069  C     0.92815   0.79258   0.50745   0.00000  Uiso   1.00
H1070  H     0.94522   0.79972   0.58047   0.00000  Uiso   1.00
H1071  H     0.92550   0.75969   0.91247   0.00000  Uiso   1.00
C1072  C     0.87673   0.82777   0.58917   0.00000  Uiso   1.00
C1073  C     0.74413   0.84452   0.94202   0.00000  Uiso   1.00
C1074  C     0.73133   0.84945   0.99782   0.00000  Uiso   1.00
C1075  C     0.76480   0.84100   0.52276   0.00000  Uiso   1.00
C1076  C     0.81123   0.82513   0.99223   0.00000  Uiso   1.00
C1077  C     0.82067   0.81355   0.93779   0.00000  Uiso   1.00
C1078  C     0.84854   0.82022   0.51387   0.00000  Uiso   1.00
C1079  C     0.89155   0.79787   0.98454   0.00000  Uiso   1.00
C1080  C     0.89571   0.78000   0.93437   0.00000  Uiso   1.00
C1081  C     0.86118   0.78813   0.91111   0.00000  Uiso   1.00
C1082  C     0.84415   0.83764   0.56389   0.00000  Uiso   1.00
C1083  C     0.91941   0.80645   0.56077   0.00000  Uiso   1.00
C1084  C     0.78936   0.82794   0.91141   0.00000  Uiso   1.00
H1085  H     0.81416   0.85775   0.58548   0.00000  Uiso   1.00
H1086  H     0.71914   0.85464   0.92276   0.00000  Uiso   1.00
H1087  H     0.75293   0.84607   0.56609   0.00000  Uiso   1.00
H1088  H     0.69604   0.86160   0.52151   0.00000  Uiso   1.00
H1089  H     0.86619   0.77358   0.87225   0.00000  Uiso   1.00
C1090  C     0.81559   0.97797   0.80161   0.00000  Uiso   1.00
C1091  C     0.81518   0.68827   0.80189   0.00000  Uiso   1.00
C1092  C     0.83269   0.70928   0.75168   0.00000  Uiso   1.00
C1093  C     0.85013   0.68796   0.70193   0.00000  Uiso   1.00
C1094  C     0.85005   0.97817   0.70214   0.00000  Uiso   1.00
H1095  H     0.86323   0.96096   0.66403   0.00000  Uiso   1.00
C1096  C     0.83279   0.95718   0.75151   0.00000  Uiso   1.00
C1097  C     0.98351   0.80115   0.72660   0.00000  Uiso   1.00
H1098  H     0.97147   0.77536   0.70777   0.00000  Uiso   1.00
C1099  C     0.69803   0.80117   0.72656   0.00000  Uiso   1.00
H1100  H     0.72200   0.77543   0.70768   0.00000  Uiso   1.00
N1101  N     0.71426   0.83334   0.75001   0.00000  Uiso   1.00
C1102  C     0.68284   0.86582   0.77322   0.00000  Uiso   1.00
C1103  C     0.96850   0.86563   0.77284   0.00000  Uiso   1.00
H1104  H     0.94416   0.89120   0.79159   0.00000  Uiso   1.00
N1105  N     0.95239   0.83331   0.75000   0.00000  Uiso   1.00
N1106  N     0.79673   0.71105   0.85234   0.00000  Uiso   1.00
O1107  O     0.76224   0.73842   0.86003   0.00000  Uiso   1.00
O1108  O     0.81186   0.70238   0.89211   0.00000  Uiso   1.00
Cl1109 Cl    0.87183   0.71435   0.63898   0.00000  Uiso   1.00
N1110  N     0.69735   0.90029   0.79866   0.00000  Uiso   1.00
O1111  O     0.70826   0.89373   0.84179   0.00000  Uiso   1.00
O1112  O     0.68895   0.93857   0.78685   0.00000  Uiso   1.00
N1113  N     0.97352   0.77275   0.97802   0.00000  Uiso   1.00
O1114  O     0.99528   0.75009   0.50378   0.00000  Uiso   1.00
O1115  O     0.99697   0.78306   0.92779   0.00000  Uiso   1.00
Cl1116 Cl    0.79314   0.94933   0.86309   0.00000  Uiso   1.00
loop_
_geom_bond_atom_site_label_1
_geom_bond_atom_site_label_2
_geom_bond_distance
_geom_bond_site_symmetry_2
_ccdc_geom_bond_type
O1     Zn7     1.982   .     S
O1     C3      1.282   .     A
O2     C3      1.280   .     A
O2     Zn8     1.978   .     S
C3     C42     1.401   .     S
O4     Zn7     1.960   .     S
O4     C6      1.297   .     A
O5     Zn8     1.905   .     S
O5     C6      1.294   .     A
C6     C30     1.462   .     S
Zn7    O11     1.905   .     S
Zn7    O9      1.978   .     S
Zn7    N47     2.017   .     S
Zn8    O12     1.960   .     S
Zn8    N51     2.017   .     S
Zn8    O10     1.982   .     S
O9     C13     1.280   .     A
O10    C13     1.283   .     A
O11    C14     1.295   .     A
O12    C14     1.294   .     A
C13    C38     1.406   .     S
C14    C18     1.452   .     S
C15    C29     1.402   .     A
C15    C583    1.422   1_554 S
C15    N617    1.439   1_554 S
H16    C29     1.083   .     S
H17    C26     1.081   .     S
C18    C29     1.397   .     A
C18    C28     1.384   .     A
C19    H32     1.081   .     S
C19    C30     1.401   .     A
C19    C20     1.388   .     A
C20    C579    1.392   .     S
C20    H592    1.083   .     S
C21    H33     1.079   .     S
C21    C578    1.392   1_554 S
C21    C580    1.420   1_554 S
C22    C23     1.405   .     A
C22    C579    1.420   .     S
C22    C582    1.417   .     S
C23    C27     1.411   .     A
C23    C30     1.413   .     A
C24    C28     1.388   .     A
C24    C580    1.417   1_554 S
C24    C583    1.425   1_554 S
C25    C26     1.399   .     A
C25    C573    1.422   .     S
C25    C582    1.425   .     S
C26    C27     1.386   .     A
C27    H35     1.082   .     S
C28    H31     1.079   .     S
H34    C578    1.083   1_554 S
C36    C42     1.398   .     A
C36    Cl62    1.771   .     S
C36    C223    1.388   .     S
C37    C38     1.407   .     A
C37    N52     1.438   .     S
C37    C408    1.388   1_545 S
C38    C39     1.399   .     A
C39    Cl55    1.765   .     S
C39    C412    1.372   1_545 S
C40    H41     1.085   .     S
C40    C42     1.389   .     A
C40    C225    1.372   .     S
C43    H44     1.082   .     S
C43    N51     1.368   .     A
C43    C107    1.419   .     S
C45    N47     1.367   .     A
C45    H46     1.082   .     S
C45    C167    1.419   1_455 S
N47    C48     1.379   .     A
C48    N56     1.428   .     S
C48    C173    1.417   1_455 S
C49    N51     1.360   .     A
C49    H50     1.082   .     S
C49    C110    1.417   .     S
N52    O54     1.301   .     A
N52    O53     1.301   .     A
N56    O58     1.301   .     A
N56    O57     1.298   .     A
N59    O61     1.301   .     A
N59    C573    1.439   .     S
N59    O618    1.301   .     S
O60    N617    1.301   1_554 S
O63    Zn69    1.982   .     S
O63    C65     1.282   .     A
O64    C65     1.280   .     A
O64    Zn70    1.978   .     S
C65    C104    1.401   .     S
O66    Zn69    1.960   .     S
O66    C68     1.297   .     A
O67    Zn70    1.905   .     S
O67    C68     1.294   .     A
C68    C92     1.462   .     S
Zn69   O73     1.905   .     S
Zn69   O71     1.978   .     S
Zn69   N109    2.017   .     S
Zn70   O74     1.960   .     S
Zn70   N113    2.017   .     S
Zn70   O72     1.982   .     S
O71    C75     1.280   .     A
O72    C75     1.283   .     A
O73    C76     1.295   .     A
O74    C76     1.294   .     A
C75    C100    1.406   .     S
C76    C80     1.452   .     S
C77    C91     1.402   .     A
C77    C645    1.422   1_554 S
C77    N679    1.439   1_554 S
H78    C91     1.083   .     S
H79    C88     1.081   .     S
C80    C91     1.397   .     A
C80    C90     1.384   .     A
C81    H94     1.081   .     S
C81    C92     1.401   .     A
C81    C82     1.388   .     A
C82    C641    1.392   .     S
C82    H654    1.083   .     S
C83    H95     1.079   .     S
C83    C640    1.392   1_554 S
C83    C642    1.420   1_554 S
C84    C85     1.405   .     A
C84    C641    1.420   .     S
C84    C644    1.417   .     S
C85    C89     1.411   .     A
C85    C92     1.413   .     A
C86    C90     1.388   .     A
C86    C642    1.417   1_554 S
C86    C645    1.425   1_554 S
C87    C88     1.399   .     A
C87    C635    1.422   .     S
C87    C644    1.425   .     S
C88    C89     1.386   .     A
C89    H97     1.082   .     S
C90    H93     1.079   .     S
H96    C640    1.083   1_554 S
C98    C104    1.398   .     A
C98    Cl124   1.771   .     S
C98    C285    1.388   .     S
C99    C100    1.407   .     A
C99    N114    1.438   .     S
C99    C470    1.388   1_545 S
C100   C101    1.399   .     A
C101   Cl117   1.765   .     S
C101   C474    1.372   1_545 S
C102   H103    1.085   .     S
C102   C104    1.389   .     A
C102   C287    1.372   .     S
C105   H106    1.082   .     S
C105   N113    1.368   .     A
C105   C169    1.419   .     S
C107   N109    1.367   .     A
C107   H108    1.082   .     S
N109   C110    1.379   .     A
C110   N118    1.428   .     S
C111   N113    1.360   .     A
C111   H112    1.082   .     S
C111   C172    1.417   .     S
N114   O116    1.301   .     A
N114   O115    1.301   .     A
N118   O120    1.301   .     A
N118   O119    1.298   .     A
N121   O123    1.301   .     A
N121   C635    1.439   .     S
N121   O680    1.301   .     S
O122   N679    1.301   1_554 S
O125   Zn131   1.982   .     S
O125   C127    1.282   .     A
O126   C127    1.280   .     A
O126   Zn132   1.978   .     S
C127   C166    1.401   .     S
O128   Zn131   1.960   .     S
O128   C130    1.297   .     A
O129   Zn132   1.905   .     S
O129   C130    1.294   .     A
C130   C154    1.462   .     S
Zn131  O135    1.905   .     S
Zn131  O133    1.978   .     S
Zn131  N171    2.017   .     S
Zn132  O136    1.960   .     S
Zn132  N175    2.017   .     S
Zn132  O134    1.982   .     S
O133   C137    1.280   .     A
O134   C137    1.283   .     A
O135   C138    1.295   .     A
O136   C138    1.294   .     A
C137   C162    1.406   .     S
C138   C142    1.452   .     S
C139   C153    1.402   .     A
C139   C707    1.422   1_554 S
C139   N741    1.439   1_554 S
H140   C153    1.083   .     S
H141   C150    1.081   .     S
C142   C153    1.397   .     A
C142   C152    1.384   .     A
C143   H156    1.081   .     S
C143   C154    1.401   .     A
C143   C144    1.388   .     A
C144   C703    1.392   .     S
C144   H716    1.083   .     S
C145   H157    1.079   .     S
C145   C702    1.392   1_554 S
C145   C704    1.420   1_554 S
C146   C147    1.405   .     A
C146   C703    1.420   .     S
C146   C706    1.417   .     S
C147   C151    1.411   .     A
C147   C154    1.413   .     A
C148   C152    1.388   .     A
C148   C704    1.417   1_554 S
C148   C707    1.425   1_554 S
C149   C150    1.399   .     A
C149   C697    1.422   .     S
C149   C706    1.425   .     S
C150   C151    1.386   .     A
C151   H159    1.082   .     S
C152   H155    1.079   .     S
H158   C702    1.083   1_554 S
C160   C166    1.398   .     A
C160   Cl186   1.771   .     S
C160   C347    1.388   .     S
C161   C162    1.407   .     A
C161   N176    1.438   .     S
C161   C532    1.388   1_545 S
C162   C163    1.399   .     A
C163   Cl179   1.765   .     S
C163   C536    1.372   1_545 S
C164   H165    1.085   .     S
C164   C166    1.389   .     A
C164   C349    1.372   .     S
C167   H168    1.082   .     S
C167   N175    1.368   .     A
C167   C45     1.419   1_655 S
C169   N171    1.367   .     A
C169   H170    1.082   .     S
N171   C172    1.379   .     A
C172   N180    1.428   .     S
C173   N175    1.360   .     A
C173   H174    1.082   .     S
C173   C48     1.417   1_655 S
N176   O178    1.301   .     A
N176   O177    1.301   .     A
N180   O182    1.301   .     A
N180   O181    1.298   .     A
N183   O185    1.301   .     A
N183   C697    1.439   .     S
N183   O742    1.301   .     S
O184   N741    1.301   1_554 S
O187   Zn193   1.982   .     S
O187   C189    1.282   .     A
O188   C189    1.280   .     A
O188   Zn194   1.978   .     S
C189   C228    1.401   .     S
O190   Zn193   1.960   .     S
O190   C192    1.297   .     A
O191   Zn194   1.905   .     S
O191   C192    1.294   .     A
C192   C216    1.462   .     S
Zn193  O197    1.905   .     S
Zn193  O195    1.978   .     S
Zn193  N233    2.017   .     S
Zn194  O198    1.960   .     S
Zn194  N237    2.017   .     S
Zn194  O196    1.982   .     S
O195   C199    1.280   .     A
O196   C199    1.283   .     A
O197   C200    1.295   .     A
O198   C200    1.294   .     A
C199   C224    1.406   .     S
C200   C204    1.452   .     S
C201   C215    1.402   .     A
C201   C769    1.422   1_554 S
C201   N803    1.439   1_554 S
H202   C215    1.083   .     S
H203   C212    1.081   .     S
C204   C215    1.397   .     A
C204   C214    1.384   .     A
C205   H218    1.081   .     S
C205   C216    1.401   .     A
C205   C206    1.388   .     A
C206   C765    1.392   .     S
C206   H778    1.083   .     S
C207   H219    1.079   .     S
C207   C764    1.392   1_554 S
C207   C766    1.420   1_554 S
C208   C209    1.405   .     A
C208   C765    1.420   .     S
C208   C768    1.417   .     S
C209   C213    1.411   .     A
C209   C216    1.413   .     A
C210   C214    1.388   .     A
C210   C766    1.417   1_554 S
C210   C769    1.425   1_554 S
C211   C212    1.399   .     A
C211   C759    1.422   .     S
C211   C768    1.425   .     S
C212   C213    1.386   .     A
C213   H221    1.082   .     S
C214   H217    1.079   .     S
H220   C764    1.083   1_554 S
C222   C228    1.398   .     A
C222   Cl248   1.771   .     S
C222   C409    1.388   .     S
C223   C224    1.407   .     A
C223   N238    1.438   .     S
C224   C225    1.399   .     A
C225   Cl241   1.765   .     S
C226   H227    1.085   .     S
C226   C228    1.389   .     A
C226   C411    1.372   .     S
C229   H230    1.082   .     S
C229   N237    1.368   .     A
C229   C293    1.419   .     S
C231   N233    1.367   .     A
C231   H232    1.082   .     S
C231   C353    1.419   1_455 S
N233   C234    1.379   .     A
C234   N242    1.428   .     S
C234   C359    1.417   1_455 S
C235   N237    1.360   .     A
C235   H236    1.082   .     S
C235   C296    1.417   .     S
N238   O240    1.301   .     A
N238   O239    1.301   .     A
N242   O244    1.301   .     A
N242   O243    1.298   .     A
N245   O247    1.301   .     A
N245   C759    1.439   .     S
N245   O804    1.301   .     S
O246   N803    1.301   1_554 S
O249   Zn255   1.982   .     S
O249   C251    1.282   .     A
O250   C251    1.280   .     A
O250   Zn256   1.978   .     S
C251   C290    1.401   .     S
O252   Zn255   1.960   .     S
O252   C254    1.297   .     A
O253   Zn256   1.905   .     S
O253   C254    1.294   .     A
C254   C278    1.462   .     S
Zn255  O259    1.905   .     S
Zn255  O257    1.978   .     S
Zn255  N295    2.017   .     S
Zn256  O260    1.960   .     S
Zn256  N299    2.017   .     S
Zn256  O258    1.982   .     S
O257   C261    1.280   .     A
O258   C261    1.283   .     A
O259   C262    1.295   .     A
O260   C262    1.294   .     A
C261   C286    1.406   .     S
C262   C266    1.452   .     S
C263   C277    1.402   .     A
C263   C831    1.422   1_554 S
C263   N865    1.439   1_554 S
H264   C277    1.083   .     S
H265   C274    1.081   .     S
C266   C277    1.397   .     A
C266   C276    1.384   .     A
C267   H280    1.081   .     S
C267   C278    1.401   .     A
C267   C268    1.388   .     A
C268   C827    1.392   .     S
C268   H840    1.083   .     S
C269   H281    1.079   .     S
C269   C826    1.392   1_554 S
C269   C828    1.420   1_554 S
C270   C271    1.405   .     A
C270   C827    1.420   .     S
C270   C830    1.417   .     S
C271   C275    1.411   .     A
C271   C278    1.413   .     A
C272   C276    1.388   .     A
C272   C828    1.417   1_554 S
C272   C831    1.425   1_554 S
C273   C274    1.399   .     A
C273   C821    1.422   .     S
C273   C830    1.425   .     S
C274   C275    1.386   .     A
C275   H283    1.082   .     S
C276   H279    1.079   .     S
H282   C826    1.083   1_554 S
C284   C290    1.398   .     A
C284   Cl310   1.771   .     S
C284   C471    1.388   .     S
C285   C286    1.407   .     A
C285   N300    1.438   .     S
C286   C287    1.399   .     A
C287   Cl303   1.765   .     S
C288   H289    1.085   .     S
C288   C290    1.389   .     A
C288   C473    1.372   .     S
C291   H292    1.082   .     S
C291   N299    1.368   .     A
C291   C355    1.419   .     S
C293   N295    1.367   .     A
C293   H294    1.082   .     S
N295   C296    1.379   .     A
C296   N304    1.428   .     S
C297   N299    1.360   .     A
C297   H298    1.082   .     S
C297   C358    1.417   .     S
N300   O302    1.301   .     A
N300   O301    1.301   .     A
N304   O306    1.301   .     A
N304   O305    1.298   .     A
N307   O309    1.301   .     A
N307   C821    1.439   .     S
N307   O866    1.301   .     S
O308   N865    1.301   1_554 S
O311   Zn317   1.982   .     S
O311   C313    1.282   .     A
O312   C313    1.280   .     A
O312   Zn318   1.978   .     S
C313   C352    1.401   .     S
O314   Zn317   1.960   .     S
O314   C316    1.297   .     A
O315   Zn318   1.905   .     S
O315   C316    1.294   .     A
C316   C340    1.462   .     S
Zn317  O321    1.905   .     S
Zn317  O319    1.978   .     S
Zn317  N357    2.017   .     S
Zn318  O322    1.960   .     S
Zn318  N361    2.017   .     S
Zn318  O320    1.982   .     S
O319   C323    1.280   .     A
O320   C323    1.283   .     A
O321   C324    1.295   .     A
O322   C324    1.294   .     A
C323   C348    1.406   .     S
C324   C328    1.452   .     S
C325   C339    1.402   .     A
C325   C893    1.422   1_554 S
C325   N927    1.439   1_554 S
H326   C339    1.083   .     S
H327   C336    1.081   .     S
C328   C339    1.397   .     A
C328   C338    1.384   .     A
C329   H342    1.081   .     S
C329   C340    1.401   .     A
C329   C330    1.388   .     A
C330   C889    1.392   .     S
C330   H902    1.083   .     S
C331   H343    1.079   .     S
C331   C888    1.392   1_554 S
C331   C890    1.420   1_554 S
C332   C333    1.405   .     A
C332   C889    1.420   .     S
C332   C892    1.417   .     S
C333   C337    1.411   .     A
C333   C340    1.413   .     A
C334   C338    1.388   .     A
C334   C890    1.417   1_554 S
C334   C893    1.425   1_554 S
C335   C336    1.399   .     A
C335   C883    1.422   .     S
C335   C892    1.425   .     S
C336   C337    1.386   .     A
C337   H345    1.082   .     S
C338   H341    1.079   .     S
H344   C888    1.083   1_554 S
C346   C352    1.398   .     A
C346   Cl372   1.771   .     S
C346   C533    1.388   .     S
C347   C348    1.407   .     A
C347   N362    1.438   .     S
C348   C349    1.399   .     A
C349   Cl365   1.765   .     S
C350   H351    1.085   .     S
C350   C352    1.389   .     A
C350   C535    1.372   .     S
C353   H354    1.082   .     S
C353   N361    1.368   .     A
C353   C231    1.419   1_655 S
C355   N357    1.367   .     A
C355   H356    1.082   .     S
N357   C358    1.379   .     A
C358   N366    1.428   .     S
C359   N361    1.360   .     A
C359   H360    1.082   .     S
C359   C234    1.417   1_655 S
N362   O364    1.301   .     A
N362   O363    1.301   .     A
N366   O368    1.301   .     A
N366   O367    1.298   .     A
N369   O371    1.301   .     A
N369   C883    1.439   .     S
N369   O928    1.301   .     S
O370   N927    1.301   1_554 S
O373   Zn379   1.982   .     S
O373   C375    1.282   .     A
O374   C375    1.280   .     A
O374   Zn380   1.978   .     S
C375   C414    1.401   .     S
O376   Zn379   1.960   .     S
O376   C378    1.297   .     A
O377   Zn380   1.905   .     S
O377   C378    1.294   .     A
C378   C402    1.462   .     S
Zn379  O383    1.905   .     S
Zn379  O381    1.978   .     S
Zn379  N419    2.017   .     S
Zn380  O384    1.960   .     S
Zn380  N423    2.017   .     S
Zn380  O382    1.982   .     S
O381   C385    1.280   .     A
O382   C385    1.283   .     A
O383   C386    1.295   .     A
O384   C386    1.294   .     A
C385   C410    1.406   .     S
C386   C390    1.452   .     S
C387   C401    1.402   .     A
C387   C955    1.422   1_554 S
C387   N989    1.439   1_554 S
H388   C401    1.083   .     S
H389   C398    1.081   .     S
C390   C401    1.397   .     A
C390   C400    1.384   .     A
C391   H404    1.081   .     S
C391   C402    1.401   .     A
C391   C392    1.388   .     A
C392   C951    1.392   .     S
C392   H964    1.083   .     S
C393   H405    1.079   .     S
C393   C950    1.392   1_554 S
C393   C952    1.420   1_554 S
C394   C395    1.405   .     A
C394   C951    1.420   .     S
C394   C954    1.417   .     S
C395   C399    1.411   .     A
C395   C402    1.413   .     A
C396   C400    1.388   .     A
C396   C952    1.417   1_554 S
C396   C955    1.425   1_554 S
C397   C398    1.399   .     A
C397   C945    1.422   .     S
C397   C954    1.425   .     S
C398   C399    1.386   .     A
C399   H407    1.082   .     S
C400   H403    1.079   .     S
H406   C950    1.083   1_554 S
C408   C414    1.398   .     A
C408   Cl434   1.771   .     S
C408   C37     1.388   1_565 S
C409   C410    1.407   .     A
C409   N424    1.438   .     S
C410   C411    1.399   .     A
C411   Cl427   1.765   .     S
C412   H413    1.085   .     S
C412   C414    1.389   .     A
C412   C39     1.372   1_565 S
C415   H416    1.082   .     S
C415   N423    1.368   .     A
C415   C479    1.419   .     S
C417   N419    1.367   .     A
C417   H418    1.082   .     S
C417   C539    1.419   1_455 S
N419   C420    1.379   .     A
C420   N428    1.428   .     S
C420   C545    1.417   1_455 S
C421   N423    1.360   .     A
C421   H422    1.082   .     S
C421   C482    1.417   .     S
N424   O426    1.301   .     A
N424   O425    1.301   .     A
N428   O430    1.301   .     A
N428   O429    1.298   .     A
N431   O433    1.301   .     A
N431   C945    1.439   .     S
N431   O990    1.301   .     S
O432   N989    1.301   1_554 S
O435   Zn441   1.982   .     S
O435   C437    1.282   .     A
O436   C437    1.280   .     A
O436   Zn442   1.978   .     S
C437   C476    1.401   .     S
O438   Zn441   1.960   .     S
O438   C440    1.297   .     A
O439   Zn442   1.905   .     S
O439   C440    1.294   .     A
C440   C464    1.462   .     S
Zn441  O445    1.905   .     S
Zn441  O443    1.978   .     S
Zn441  N481    2.017   .     S
Zn442  O446    1.960   .     S
Zn442  N485    2.017   .     S
Zn442  O444    1.982   .     S
O443   C447    1.280   .     A
O444   C447    1.283   .     A
O445   C448    1.295   .     A
O446   C448    1.294   .     A
C447   C472    1.406   .     S
C448   C452    1.452   .     S
C449   C463    1.402   .     A
C449   C1017   1.422   1_554 S
C449   N1051   1.439   1_554 S
H450   C463    1.083   .     S
H451   C460    1.081   .     S
C452   C463    1.397   .     A
C452   C462    1.384   .     A
C453   H466    1.081   .     S
C453   C464    1.401   .     A
C453   C454    1.388   .     A
C454   C1013   1.392   .     S
C454   H1026   1.083   .     S
C455   H467    1.079   .     S
C455   C1012   1.392   1_554 S
C455   C1014   1.420   1_554 S
C456   C457    1.405   .     A
C456   C1013   1.420   .     S
C456   C1016   1.417   .     S
C457   C461    1.411   .     A
C457   C464    1.413   .     A
C458   C462    1.388   .     A
C458   C1014   1.417   1_554 S
C458   C1017   1.425   1_554 S
C459   C460    1.399   .     A
C459   C1007   1.422   .     S
C459   C1016   1.425   .     S
C460   C461    1.386   .     A
C461   H469    1.082   .     S
C462   H465    1.079   .     S
H468   C1012   1.083   1_554 S
C470   C476    1.398   .     A
C470   Cl496   1.771   .     S
C470   C99     1.388   1_565 S
C471   C472    1.407   .     A
C471   N486    1.438   .     S
C472   C473    1.399   .     A
C473   Cl489   1.765   .     S
C474   H475    1.085   .     S
C474   C476    1.389   .     A
C474   C101    1.372   1_565 S
C477   H478    1.082   .     S
C477   N485    1.368   .     A
C477   C541    1.419   .     S
C479   N481    1.367   .     A
C479   H480    1.082   .     S
N481   C482    1.379   .     A
C482   N490    1.428   .     S
C483   N485    1.360   .     A
C483   H484    1.082   .     S
C483   C544    1.417   .     S
N486   O488    1.301   .     A
N486   O487    1.301   .     A
N490   O492    1.301   .     A
N490   O491    1.298   .     A
N493   O495    1.301   .     A
N493   C1007   1.439   .     S
N493   O1052   1.301   .     S
O494   N1051   1.301   1_554 S
O497   Zn503   1.982   .     S
O497   C499    1.282   .     A
O498   C499    1.280   .     A
O498   Zn504   1.978   .     S
C499   C538    1.401   .     S
O500   Zn503   1.960   .     S
O500   C502    1.297   .     A
O501   Zn504   1.905   .     S
O501   C502    1.294   .     A
C502   C526    1.462   .     S
Zn503  O507    1.905   .     S
Zn503  O505    1.978   .     S
Zn503  N543    2.017   .     S
Zn504  O508    1.960   .     S
Zn504  N547    2.017   .     S
Zn504  O506    1.982   .     S
O505   C509    1.280   .     A
O506   C509    1.283   .     A
O507   C510    1.295   .     A
O508   C510    1.294   .     A
C509   C534    1.406   .     S
C510   C514    1.452   .     S
C511   C525    1.402   .     A
C511   C1079   1.422   1_554 S
C511   N1113   1.439   1_554 S
H512   C525    1.083   .     S
H513   C522    1.081   .     S
C514   C525    1.397   .     A
C514   C524    1.384   .     A
C515   H528    1.081   .     S
C515   C526    1.401   .     A
C515   C516    1.388   .     A
C516   C1075   1.392   .     S
C516   H1088   1.083   .     S
C517   H529    1.079   .     S
C517   C1074   1.392   1_554 S
C517   C1076   1.420   1_554 S
C518   C519    1.405   .     A
C518   C1075   1.420   .     S
C518   C1078   1.417   .     S
C519   C523    1.411   .     A
C519   C526    1.413   .     A
C520   C524    1.388   .     A
C520   C1076   1.417   1_554 S
C520   C1079   1.425   1_554 S
C521   C522    1.399   .     A
C521   C1069   1.422   .     S
C521   C1078   1.425   .     S
C522   C523    1.386   .     A
C523   H531    1.082   .     S
C524   H527    1.079   .     S
H530   C1074   1.083   1_554 S
C532   C538    1.398   .     A
C532   Cl558   1.771   .     S
C532   C161    1.388   1_565 S
C533   C534    1.407   .     A
C533   N548    1.438   .     S
C534   C535    1.399   .     A
C535   Cl551   1.765   .     S
C536   H537    1.085   .     S
C536   C538    1.389   .     A
C536   C163    1.372   1_565 S
C539   H540    1.082   .     S
C539   N547    1.368   .     A
C539   C417    1.419   1_655 S
C541   N543    1.367   .     A
C541   H542    1.082   .     S
N543   C544    1.379   .     A
C544   N552    1.428   .     S
C545   N547    1.360   .     A
C545   H546    1.082   .     S
C545   C420    1.417   1_655 S
N548   O550    1.301   .     A
N548   O549    1.301   .     A
N552   O554    1.301   .     A
N552   O553    1.298   .     A
N555   O557    1.301   .     A
N555   C1069   1.439   .     S
N555   O1114   1.301   .     S
O556   N1113   1.301   1_554 S
O559   Zn565   1.982   .     S
O559   C561    1.282   .     A
O560   C561    1.280   .     A
O560   Zn566   1.978   .     S
C561   C600    1.401   .     S
O562   Zn565   1.960   .     S
O562   C564    1.297   .     A
O563   Zn566   1.905   .     S
O563   C564    1.294   .     A
C564   C588    1.462   .     S
Zn565  O569    1.905   .     S
Zn565  O567    1.978   .     S
Zn565  N605    2.017   .     S
Zn566  O570    1.960   .     S
Zn566  N609    2.017   .     S
Zn566  O568    1.982   .     S
O567   C571    1.280   .     A
O568   C571    1.283   .     A
O569   C572    1.295   .     A
O570   C572    1.294   .     A
C571   C596    1.406   .     S
C572   C576    1.452   .     S
C573   C587    1.402   .     A
H574   C587    1.083   .     S
H575   C584    1.081   .     S
C576   C587    1.397   .     A
C576   C586    1.384   .     A
C577   H590    1.081   .     S
C577   C588    1.401   .     A
C577   C578    1.388   .     A
C578   C21     1.392   1_556 S
C578   H34     1.083   1_556 S
C579   H591    1.079   .     S
C580   C581    1.405   .     A
C580   C21     1.420   1_556 S
C580   C24     1.417   1_556 S
C581   C585    1.411   .     A
C581   C588    1.413   .     A
C582   C586    1.388   .     A
C583   C584    1.399   .     A
C583   C15     1.422   1_556 S
C583   C24     1.425   1_556 S
C584   C585    1.386   .     A
C585   H593    1.082   .     S
C586   H589    1.079   .     S
C594   C600    1.398   .     A
C594   Cl620   1.771   .     S
C594   C781    1.388   .     S
C595   C596    1.407   .     A
C595   N610    1.438   .     S
C595   C966    1.388   1_545 S
C596   C597    1.399   .     A
C597   Cl613   1.765   .     S
C597   C970    1.372   1_545 S
C598   H599    1.085   .     S
C598   C600    1.389   .     A
C598   C783    1.372   .     S
C601   H602    1.082   .     S
C601   N609    1.368   .     A
C601   C665    1.419   .     S
C603   N605    1.367   .     A
C603   H604    1.082   .     S
C603   C725    1.419   1_455 S
N605   C606    1.379   .     A
C606   N614    1.428   .     S
C606   C731    1.417   1_455 S
C607   N609    1.360   .     A
C607   H608    1.082   .     S
C607   C668    1.417   .     S
N610   O612    1.301   .     A
N610   O611    1.301   .     A
N614   O616    1.301   .     A
N614   O615    1.298   .     A
N617   O619    1.301   .     A
N617   C15     1.439   1_556 S
N617   O60     1.301   1_556 S
O621   Zn627   1.982   .     S
O621   C623    1.282   .     A
O622   C623    1.280   .     A
O622   Zn628   1.978   .     S
C623   C662    1.401   .     S
O624   Zn627   1.960   .     S
O624   C626    1.297   .     A
O625   Zn628   1.905   .     S
O625   C626    1.294   .     A
C626   C650    1.462   .     S
Zn627  O631    1.905   .     S
Zn627  O629    1.978   .     S
Zn627  N667    2.017   .     S
Zn628  O632    1.960   .     S
Zn628  N671    2.017   .     S
Zn628  O630    1.982   .     S
O629   C633    1.280   .     A
O630   C633    1.283   .     A
O631   C634    1.295   .     A
O632   C634    1.294   .     A
C633   C658    1.406   .     S
C634   C638    1.452   .     S
C635   C649    1.402   .     A
H636   C649    1.083   .     S
H637   C646    1.081   .     S
C638   C649    1.397   .     A
C638   C648    1.384   .     A
C639   H652    1.081   .     S
C639   C650    1.401   .     A
C639   C640    1.388   .     A
C640   C83     1.392   1_556 S
C640   H96     1.083   1_556 S
C641   H653    1.079   .     S
C642   C643    1.405   .     A
C642   C83     1.420   1_556 S
C642   C86     1.417   1_556 S
C643   C647    1.411   .     A
C643   C650    1.413   .     A
C644   C648    1.388   .     A
C645   C646    1.399   .     A
C645   C77     1.422   1_556 S
C645   C86     1.425   1_556 S
C646   C647    1.386   .     A
C647   H655    1.082   .     S
C648   H651    1.079   .     S
C656   C662    1.398   .     A
C656   Cl682   1.771   .     S
C656   C843    1.388   .     S
C657   C658    1.407   .     A
C657   N672    1.438   .     S
C657   C1028   1.388   1_545 S
C658   C659    1.399   .     A
C659   Cl675   1.765   .     S
C659   C1032   1.372   1_545 S
C660   H661    1.085   .     S
C660   C662    1.389   .     A
C660   C845    1.372   .     S
C663   H664    1.082   .     S
C663   N671    1.368   .     A
C663   C727    1.419   .     S
C665   N667    1.367   .     A
C665   H666    1.082   .     S
N667   C668    1.379   .     A
C668   N676    1.428   .     S
C669   N671    1.360   .     A
C669   H670    1.082   .     S
C669   C730    1.417   .     S
N672   O674    1.301   .     A
N672   O673    1.301   .     A
N676   O678    1.301   .     A
N676   O677    1.298   .     A
N679   O681    1.301   .     A
N679   C77     1.439   1_556 S
N679   O122    1.301   1_556 S
O683   Zn689   1.982   .     S
O683   C685    1.282   .     A
O684   C685    1.280   .     A
O684   Zn690   1.978   .     S
C685   C724    1.401   .     S
O686   Zn689   1.960   .     S
O686   C688    1.297   .     A
O687   Zn690   1.905   .     S
O687   C688    1.294   .     A
C688   C712    1.462   .     S
Zn689  O693    1.905   .     S
Zn689  O691    1.978   .     S
Zn689  N729    2.017   .     S
Zn690  O694    1.960   .     S
Zn690  N733    2.017   .     S
Zn690  O692    1.982   .     S
O691   C695    1.280   .     A
O692   C695    1.283   .     A
O693   C696    1.295   .     A
O694   C696    1.294   .     A
C695   C720    1.406   .     S
C696   C700    1.452   .     S
C697   C711    1.402   .     A
H698   C711    1.083   .     S
H699   C708    1.081   .     S
C700   C711    1.397   .     A
C700   C710    1.384   .     A
C701   H714    1.081   .     S
C701   C712    1.401   .     A
C701   C702    1.388   .     A
C702   C145    1.392   1_556 S
C702   H158    1.083   1_556 S
C703   H715    1.079   .     S
C704   C705    1.405   .     A
C704   C145    1.420   1_556 S
C704   C148    1.417   1_556 S
C705   C709    1.411   .     A
C705   C712    1.413   .     A
C706   C710    1.388   .     A
C707   C708    1.399   .     A
C707   C139    1.422   1_556 S
C707   C148    1.425   1_556 S
C708   C709    1.386   .     A
C709   H717    1.082   .     S
C710   H713    1.079   .     S
C718   C724    1.398   .     A
C718   Cl744   1.771   .     S
C718   C905    1.388   .     S
C719   C720    1.407   .     A
C719   N734    1.438   .     S
C719   C1090   1.388   1_545 S
C720   C721    1.399   .     A
C721   Cl737   1.765   .     S
C721   C1094   1.372   1_545 S
C722   H723    1.085   .     S
C722   C724    1.389   .     A
C722   C907    1.372   .     S
C725   H726    1.082   .     S
C725   N733    1.368   .     A
C725   C603    1.419   1_655 S
C727   N729    1.367   .     A
C727   H728    1.082   .     S
N729   C730    1.379   .     A
C730   N738    1.428   .     S
C731   N733    1.360   .     A
C731   H732    1.082   .     S
C731   C606    1.417   1_655 S
N734   O736    1.301   .     A
N734   O735    1.301   .     A
N738   O740    1.301   .     A
N738   O739    1.298   .     A
N741   O743    1.301   .     A
N741   C139    1.439   1_556 S
N741   O184    1.301   1_556 S
O745   Zn751   1.982   .     S
O745   C747    1.282   .     A
O746   C747    1.280   .     A
O746   Zn752   1.978   .     S
C747   C786    1.401   .     S
O748   Zn751   1.960   .     S
O748   C750    1.297   .     A
O749   Zn752   1.905   .     S
O749   C750    1.294   .     A
C750   C774    1.462   .     S
Zn751  O755    1.905   .     S
Zn751  O753    1.978   .     S
Zn751  N791    2.017   .     S
Zn752  O756    1.960   .     S
Zn752  N795    2.017   .     S
Zn752  O754    1.982   .     S
O753   C757    1.280   .     A
O754   C757    1.283   .     A
O755   C758    1.295   .     A
O756   C758    1.294   .     A
C757   C782    1.406   .     S
C758   C762    1.452   .     S
C759   C773    1.402   .     A
H760   C773    1.083   .     S
H761   C770    1.081   .     S
C762   C773    1.397   .     A
C762   C772    1.384   .     A
C763   H776    1.081   .     S
C763   C774    1.401   .     A
C763   C764    1.388   .     A
C764   C207    1.392   1_556 S
C764   H220    1.083   1_556 S
C765   H777    1.079   .     S
C766   C767    1.405   .     A
C766   C207    1.420   1_556 S
C766   C210    1.417   1_556 S
C767   C771    1.411   .     A
C767   C774    1.413   .     A
C768   C772    1.388   .     A
C769   C770    1.399   .     A
C769   C201    1.422   1_556 S
C769   C210    1.425   1_556 S
C770   C771    1.386   .     A
C771   H779    1.082   .     S
C772   H775    1.079   .     S
C780   C786    1.398   .     A
C780   Cl806   1.771   .     S
C780   C967    1.388   .     S
C781   C782    1.407   .     A
C781   N796    1.438   .     S
C782   C783    1.399   .     A
C783   Cl799   1.765   .     S
C784   H785    1.085   .     S
C784   C786    1.389   .     A
C784   C969    1.372   .     S
C787   H788    1.082   .     S
C787   N795    1.368   .     A
C787   C851    1.419   .     S
C789   N791    1.367   .     A
C789   H790    1.082   .     S
C789   C911    1.419   1_455 S
N791   C792    1.379   .     A
C792   N800    1.428   .     S
C792   C917    1.417   1_455 S
C793   N795    1.360   .     A
C793   H794    1.082   .     S
C793   C854    1.417   .     S
N796   O798    1.301   .     A
N796   O797    1.301   .     A
N800   O802    1.301   .     A
N800   O801    1.298   .     A
N803   O805    1.301   .     A
N803   C201    1.439   1_556 S
N803   O246    1.301   1_556 S
O807   Zn813   1.982   .     S
O807   C809    1.282   .     A
O808   C809    1.280   .     A
O808   Zn814   1.978   .     S
C809   C848    1.401   .     S
O810   Zn813   1.960   .     S
O810   C812    1.297   .     A
O811   Zn814   1.905   .     S
O811   C812    1.294   .     A
C812   C836    1.462   .     S
Zn813  O817    1.905   .     S
Zn813  O815    1.978   .     S
Zn813  N853    2.017   .     S
Zn814  O818    1.960   .     S
Zn814  N857    2.017   .     S
Zn814  O816    1.982   .     S
O815   C819    1.280   .     A
O816   C819    1.283   .     A
O817   C820    1.295   .     A
O818   C820    1.294   .     A
C819   C844    1.406   .     S
C820   C824    1.452   .     S
C821   C835    1.402   .     A
H822   C835    1.083   .     S
H823   C832    1.081   .     S
C824   C835    1.397   .     A
C824   C834    1.384   .     A
C825   H838    1.081   .     S
C825   C836    1.401   .     A
C825   C826    1.388   .     A
C826   C269    1.392   1_556 S
C826   H282    1.083   1_556 S
C827   H839    1.079   .     S
C828   C829    1.405   .     A
C828   C269    1.420   1_556 S
C828   C272    1.417   1_556 S
C829   C833    1.411   .     A
C829   C836    1.413   .     A
C830   C834    1.388   .     A
C831   C832    1.399   .     A
C831   C263    1.422   1_556 S
C831   C272    1.425   1_556 S
C832   C833    1.386   .     A
C833   H841    1.082   .     S
C834   H837    1.079   .     S
C842   C848    1.398   .     A
C842   Cl868   1.771   .     S
C842   C1029   1.388   .     S
C843   C844    1.407   .     A
C843   N858    1.438   .     S
C844   C845    1.399   .     A
C845   Cl861   1.765   .     S
C846   H847    1.085   .     S
C846   C848    1.389   .     A
C846   C1031   1.372   .     S
C849   H850    1.082   .     S
C849   N857    1.368   .     A
C849   C913    1.419   .     S
C851   N853    1.367   .     A
C851   H852    1.082   .     S
N853   C854    1.379   .     A
C854   N862    1.428   .     S
C855   N857    1.360   .     A
C855   H856    1.082   .     S
C855   C916    1.417   .     S
N858   O860    1.301   .     A
N858   O859    1.301   .     A
N862   O864    1.301   .     A
N862   O863    1.298   .     A
N865   O867    1.301   .     A
N865   C263    1.439   1_556 S
N865   O308    1.301   1_556 S
O869   Zn875   1.982   .     S
O869   C871    1.282   .     A
O870   C871    1.280   .     A
O870   Zn876   1.978   .     S
C871   C910    1.401   .     S
O872   Zn875   1.960   .     S
O872   C874    1.297   .     A
O873   Zn876   1.905   .     S
O873   C874    1.294   .     A
C874   C898    1.462   .     S
Zn875  O879    1.905   .     S
Zn875  O877    1.978   .     S
Zn875  N915    2.017   .     S
Zn876  O880    1.960   .     S
Zn876  N919    2.017   .     S
Zn876  O878    1.982   .     S
O877   C881    1.280   .     A
O878   C881    1.283   .     A
O879   C882    1.295   .     A
O880   C882    1.294   .     A
C881   C906    1.406   .     S
C882   C886    1.452   .     S
C883   C897    1.402   .     A
H884   C897    1.083   .     S
H885   C894    1.081   .     S
C886   C897    1.397   .     A
C886   C896    1.384   .     A
C887   H900    1.081   .     S
C887   C898    1.401   .     A
C887   C888    1.388   .     A
C888   C331    1.392   1_556 S
C888   H344    1.083   1_556 S
C889   H901    1.079   .     S
C890   C891    1.405   .     A
C890   C331    1.420   1_556 S
C890   C334    1.417   1_556 S
C891   C895    1.411   .     A
C891   C898    1.413   .     A
C892   C896    1.388   .     A
C893   C894    1.399   .     A
C893   C325    1.422   1_556 S
C893   C334    1.425   1_556 S
C894   C895    1.386   .     A
C895   H903    1.082   .     S
C896   H899    1.079   .     S
C904   C910    1.398   .     A
C904   Cl930   1.771   .     S
C904   C1091   1.388   .     S
C905   C906    1.407   .     A
C905   N920    1.438   .     S
C906   C907    1.399   .     A
C907   Cl923   1.765   .     S
C908   H909    1.085   .     S
C908   C910    1.389   .     A
C908   C1093   1.372   .     S
C911   H912    1.082   .     S
C911   N919    1.368   .     A
C911   C789    1.419   1_655 S
C913   N915    1.367   .     A
C913   H914    1.082   .     S
N915   C916    1.379   .     A
C916   N924    1.428   .     S
C917   N919    1.360   .     A
C917   H918    1.082   .     S
C917   C792    1.417   1_655 S
N920   O922    1.301   .     A
N920   O921    1.301   .     A
N924   O926    1.301   .     A
N924   O925    1.298   .     A
N927   O929    1.301   .     A
N927   C325    1.439   1_556 S
N927   O370    1.301   1_556 S
O931   Zn937   1.982   .     S
O931   C933    1.282   .     A
O932   C933    1.280   .     A
O932   Zn938   1.978   .     S
C933   C972    1.401   .     S
O934   Zn937   1.960   .     S
O934   C936    1.297   .     A
O935   Zn938   1.905   .     S
O935   C936    1.294   .     A
C936   C960    1.462   .     S
Zn937  O941    1.905   .     S
Zn937  O939    1.978   .     S
Zn937  N977    2.017   .     S
Zn938  O942    1.960   .     S
Zn938  N981    2.017   .     S
Zn938  O940    1.982   .     S
O939   C943    1.280   .     A
O940   C943    1.283   .     A
O941   C944    1.295   .     A
O942   C944    1.294   .     A
C943   C968    1.406   .     S
C944   C948    1.452   .     S
C945   C959    1.402   .     A
H946   C959    1.083   .     S
H947   C956    1.081   .     S
C948   C959    1.397   .     A
C948   C958    1.384   .     A
C949   H962    1.081   .     S
C949   C960    1.401   .     A
C949   C950    1.388   .     A
C950   C393    1.392   1_556 S
C950   H406    1.083   1_556 S
C951   H963    1.079   .     S
C952   C953    1.405   .     A
C952   C393    1.420   1_556 S
C952   C396    1.417   1_556 S
C953   C957    1.411   .     A
C953   C960    1.413   .     A
C954   C958    1.388   .     A
C955   C956    1.399   .     A
C955   C387    1.422   1_556 S
C955   C396    1.425   1_556 S
C956   C957    1.386   .     A
C957   H965    1.082   .     S
C958   H961    1.079   .     S
C966   C972    1.398   .     A
C966   Cl992   1.771   .     S
C966   C595    1.388   1_565 S
C967   C968    1.407   .     A
C967   N982    1.438   .     S
C968   C969    1.399   .     A
C969   Cl985   1.765   .     S
C970   H971    1.085   .     S
C970   C972    1.389   .     A
C970   C597    1.372   1_565 S
C973   H974    1.082   .     S
C973   N981    1.368   .     A
C973   C1037   1.419   .     S
C975   N977    1.367   .     A
C975   H976    1.082   .     S
C975   C1097   1.419   1_455 S
N977   C978    1.379   .     A
C978   N986    1.428   .     S
C978   C1103   1.417   1_455 S
C979   N981    1.360   .     A
C979   H980    1.082   .     S
C979   C1040   1.417   .     S
N982   O984    1.301   .     A
N982   O983    1.301   .     A
N986   O988    1.301   .     A
N986   O987    1.298   .     A
N989   O991    1.301   .     A
N989   C387    1.439   1_556 S
N989   O432    1.301   1_556 S
O993   Zn999   1.982   .     S
O993   C995    1.282   .     A
O994   C995    1.280   .     A
O994   Zn1000  1.978   .     S
C995   C1034   1.401   .     S
O996   Zn999   1.960   .     S
O996   C998    1.297   .     A
O997   Zn1000  1.905   .     S
O997   C998    1.294   .     A
C998   C1022   1.462   .     S
Zn999  O1003   1.905   .     S
Zn999  O1001   1.978   .     S
Zn999  N1039   2.017   .     S
Zn1000 O1004   1.960   .     S
Zn1000 N1043   2.017   .     S
Zn1000 O1002   1.982   .     S
O1001  C1005   1.280   .     A
O1002  C1005   1.283   .     A
O1003  C1006   1.295   .     A
O1004  C1006   1.294   .     A
C1005  C1030   1.406   .     S
C1006  C1010   1.452   .     S
C1007  C1021   1.402   .     A
H1008  C1021   1.083   .     S
H1009  C1018   1.081   .     S
C1010  C1021   1.397   .     A
C1010  C1020   1.384   .     A
C1011  H1024   1.081   .     S
C1011  C1022   1.401   .     A
C1011  C1012   1.388   .     A
C1012  C455    1.392   1_556 S
C1012  H468    1.083   1_556 S
C1013  H1025   1.079   .     S
C1014  C1015   1.405   .     A
C1014  C455    1.420   1_556 S
C1014  C458    1.417   1_556 S
C1015  C1019   1.411   .     A
C1015  C1022   1.413   .     A
C1016  C1020   1.388   .     A
C1017  C1018   1.399   .     A
C1017  C449    1.422   1_556 S
C1017  C458    1.425   1_556 S
C1018  C1019   1.386   .     A
C1019  H1027   1.082   .     S
C1020  H1023   1.079   .     S
C1028  C1034   1.398   .     A
C1028  Cl1054  1.771   .     S
C1028  C657    1.388   1_565 S
C1029  C1030   1.407   .     A
C1029  N1044   1.438   .     S
C1030  C1031   1.399   .     A
C1031  Cl1047  1.765   .     S
C1032  H1033   1.085   .     S
C1032  C1034   1.389   .     A
C1032  C659    1.372   1_565 S
C1035  H1036   1.082   .     S
C1035  N1043   1.368   .     A
C1035  C1099   1.419   .     S
C1037  N1039   1.367   .     A
C1037  H1038   1.082   .     S
N1039  C1040   1.379   .     A
C1040  N1048   1.428   .     S
C1041  N1043   1.360   .     A
C1041  H1042   1.082   .     S
C1041  C1102   1.417   .     S
N1044  O1046   1.301   .     A
N1044  O1045   1.301   .     A
N1048  O1050   1.301   .     A
N1048  O1049   1.298   .     A
N1051  O1053   1.301   .     A
N1051  C449    1.439   1_556 S
N1051  O494    1.301   1_556 S
O1055  Zn1061  1.982   .     S
O1055  C1057   1.282   .     A
O1056  C1057   1.280   .     A
O1056  Zn1062  1.978   .     S
C1057  C1096   1.401   .     S
O1058  Zn1061  1.960   .     S
O1058  C1060   1.297   .     A
O1059  Zn1062  1.905   .     S
O1059  C1060   1.294   .     A
C1060  C1084   1.462   .     S
Zn1061 O1065   1.905   .     S
Zn1061 O1063   1.978   .     S
Zn1061 N1101   2.017   .     S
Zn1062 O1066   1.960   .     S
Zn1062 N1105   2.017   .     S
Zn1062 O1064   1.982   .     S
O1063  C1067   1.280   .     A
O1064  C1067   1.283   .     A
O1065  C1068   1.295   .     A
O1066  C1068   1.294   .     A
C1067  C1092   1.406   .     S
C1068  C1072   1.452   .     S
C1069  C1083   1.402   .     A
H1070  C1083   1.083   .     S
H1071  C1080   1.081   .     S
C1072  C1083   1.397   .     A
C1072  C1082   1.384   .     A
C1073  H1086   1.081   .     S
C1073  C1084   1.401   .     A
C1073  C1074   1.388   .     A
C1074  C517    1.392   1_556 S
C1074  H530    1.083   1_556 S
C1075  H1087   1.079   .     S
C1076  C1077   1.405   .     A
C1076  C517    1.420   1_556 S
C1076  C520    1.417   1_556 S
C1077  C1081   1.411   .     A
C1077  C1084   1.413   .     A
C1078  C1082   1.388   .     A
C1079  C1080   1.399   .     A
C1079  C511    1.422   1_556 S
C1079  C520    1.425   1_556 S
C1080  C1081   1.386   .     A
C1081  H1089   1.082   .     S
C1082  H1085   1.079   .     S
C1090  C1096   1.398   .     A
C1090  Cl1116  1.771   .     S
C1090  C719    1.388   1_565 S
C1091  C1092   1.407   .     A
C1091  N1106   1.438   .     S
C1092  C1093   1.399   .     A
C1093  Cl1109  1.765   .     S
C1094  H1095   1.085   .     S
C1094  C1096   1.389   .     A
C1094  C721    1.372   1_565 S
C1097  H1098   1.082   .     S
C1097  N1105   1.368   .     A
C1097  C975    1.419   1_655 S
C1099  N1101   1.367   .     A
C1099  H1100   1.082   .     S
N1101  C1102   1.379   .     A
C1102  N1110   1.428   .     S
C1103  N1105   1.360   .     A
C1103  H1104   1.082   .     S
C1103  C978    1.417   1_655 S
N1106  O1108   1.301   .     A
N1106  O1107   1.301   .     A
N1110  O1112   1.301   .     A
N1110  O1111   1.298   .     A
N1113  O1115   1.301   .     A
N1113  C511    1.439   1_556 S
N1113  O556    1.301   1_556 S
