data_str_m3_o1_o18_pcu_sym.193
_audit_creation_date              2020-01-03
_audit_creation_method            'Materials Studio'
_symmetry_space_group_name_H-M    'P1'
_symmetry_Int_Tables_number       1
_symmetry_cell_setting            triclinic
loop_
_symmetry_equiv_pos_as_xyz
  x,y,z
_cell_length_a                    29.5421
_cell_length_b                    32.2544
_cell_length_c                    30.6517
_cell_angle_alpha                 89.9961
_cell_angle_beta                  67.1832
_cell_angle_gamma                 90.8911
loop_
_atom_site_label
_atom_site_type_symbol
_atom_site_fract_x
_atom_site_fract_y
_atom_site_fract_z
_atom_site_U_iso_or_equiv
_atom_site_adp_type
_atom_site_occupancy
C1     C     0.16733   0.24666   0.24943   0.00000  Uiso   1.00
C2     C     0.16606   0.08663   0.25047   0.00000  Uiso   1.00
C3     C     0.12957   0.10563   0.04055   0.00000  Uiso   1.00
C4     C     0.23258   0.15521   0.44056   0.00000  Uiso   1.00
C5     C     0.09557   0.09897   0.01968   0.00000  Uiso   1.00
C6     C     0.26543   0.16475   0.46190   0.00000  Uiso   1.00
C7     C     0.21271   0.31352   0.23244   0.00000  Uiso   1.00
C8     C     0.12105   0.01962   0.26660   0.00000  Uiso   1.00
C9     C     0.21083   0.02278   0.23355   0.00000  Uiso   1.00
C10    C     0.12293   0.31042   0.26654   0.00000  Uiso   1.00
C11    C     0.16551   0.04245   0.25023   0.00000  Uiso   1.00
C12    C     0.16815   0.29078   0.24914   0.00000  Uiso   1.00
C13    C     0.31998   0.13943   0.22260   0.00000  Uiso   1.00
C14    C     0.01333   0.19384   0.27751   0.00000  Uiso   1.00
C15    C     0.03476   0.13988   0.22211   0.00000  Uiso   1.00
C16    C     0.29886   0.19406   0.27716   0.00000  Uiso   1.00
C17    C     0.13571   0.16503   0.33855   0.00000  Uiso   1.00
C18    C     0.19764   0.16676   0.16141   0.00000  Uiso   1.00
C19    C     0.11646   0.15476   0.38940   0.00000  Uiso   1.00
C20    C     0.21821   0.16428   0.10949   0.00000  Uiso   1.00
C21    C     0.06697   0.11207   0.45690   0.00000  Uiso   1.00
C22    C     0.28259   0.17568   0.03185   0.00000  Uiso   1.00
C23    C     0.07508   0.12823   0.41165   0.00000  Uiso   1.00
C24    C     0.26701   0.17627   0.08117   0.00000  Uiso   1.00
C25    C     0.14788   0.16381   0.41238   0.00000  Uiso   1.00
C26    C     0.18718   0.14974   0.08797   0.00000  Uiso   1.00
C27    C     0.14515   0.14128   0.45223   0.00000  Uiso   1.00
C28    C     0.20348   0.14612   0.03882   0.00000  Uiso   1.00
C29    C     0.10218   0.11770   0.47662   0.00000  Uiso   1.00
C30    C     0.25076   0.16194   0.01073   0.00000  Uiso   1.00
C31    C     0.18332   0.14299   0.46930   0.00000  Uiso   1.00
C32    C     0.17197   0.13130   0.01699   0.00000  Uiso   1.00
H33    H     0.06356   0.07928   0.03749   0.00000  Uiso   1.00
H34    H     0.30232   0.17543   0.44029   0.00000  Uiso   1.00
H35    H     0.14916   0.14350   0.11001   0.00000  Uiso   1.00
H36    H     0.17654   0.18698   0.39689   0.00000  Uiso   1.00
H37    H     0.03448   0.09346   0.47608   0.00000  Uiso   1.00
H38    H     0.31924   0.18694   0.01011   0.00000  Uiso   1.00
H39    H     0.24507   0.04044   0.22036   0.00000  Uiso   1.00
H40    H     0.08869   0.29279   0.28040   0.00000  Uiso   1.00
H41    H     0.06170   0.11880   0.19941   0.00000  Uiso   1.00
H42    H     0.27223   0.21584   0.29903   0.00000  Uiso   1.00
N43    N     0.04759   0.16668   0.25001   0.00000  Uiso   1.00
N44    N     0.28574   0.16666   0.24999   0.00000  Uiso   1.00
O45    O     0.12846   0.22775   0.25001   0.00000  Uiso   1.00
O46    O     0.20488   0.10558   0.25000   0.00000  Uiso   1.00
O47    O     0.20490   0.22774   0.25000   0.00000  Uiso   1.00
O48    O     0.12843   0.10559   0.25000   0.00000  Uiso   1.00
O49    O     0.10661   0.16667   0.31613   0.00000  Uiso   1.00
O50    O     0.22672   0.16666   0.18388   0.00000  Uiso   1.00
O51    O     0.18305   0.16666   0.31612   0.00000  Uiso   1.00
O52    O     0.15028   0.16667   0.18388   0.00000  Uiso   1.00
Zn53   Zn    0.11562   0.16667   0.25000   0.00000  Uiso   1.00
Zn54   Zn    0.21771   0.16666   0.25000   0.00000  Uiso   1.00
N55    N     0.29919   0.19218   0.10179   0.00000  Uiso   1.00
H56    H     0.31220   0.22156   0.08955   0.00000  Uiso   1.00
C57    C     0.00551   0.16491   0.09812   0.00000  Uiso   1.00
H58    H     0.03248   0.16393   0.06093   0.00000  Uiso   1.00
H59    H     0.32454   0.13308   0.11011   0.00000  Uiso   1.00
H60    H     0.02450   0.17674   0.12068   0.00000  Uiso   1.00
N61    N     0.04416   0.11640   0.38743   0.00000  Uiso   1.00
H62    H     0.02891   0.14058   0.37619   0.00000  Uiso   1.00
C63    C     0.01293   0.07979   0.40297   0.00000  Uiso   1.00
H64    H     0.33178   0.07113   0.37587   0.00000  Uiso   1.00
H65    H     0.31468   0.08597   0.43660   0.00000  Uiso   1.00
H66    H     0.03426   0.05322   0.40745   0.00000  Uiso   1.00
N67    N     0.12276   0.08327   0.08284   0.00000  Uiso   1.00
H68    H     0.08674   0.07516   0.10309   0.00000  Uiso   1.00
C69    C     0.15582   0.04912   0.07662   0.00000  Uiso   1.00
H70    H     0.14914   0.02507   0.05374   0.00000  Uiso   1.00
H71    H     0.14945   0.03507   0.11164   0.00000  Uiso   1.00
H72    H     0.19467   0.06001   0.06045   0.00000  Uiso   1.00
N73    N     0.25081   0.15494   0.39012   0.00000  Uiso   1.00
H74    H     0.28192   0.17292   0.37333   0.00000  Uiso   1.00
C75    C     0.25194   0.11486   0.36821   0.00000  Uiso   1.00
H76    H     0.28884   0.10982   0.34012   0.00000  Uiso   1.00
H77    H     0.22494   0.11399   0.35131   0.00000  Uiso   1.00
H78    H     0.24317   0.08898   0.39434   0.00000  Uiso   1.00
N79    N     0.25927   0.29408   0.21446   0.00000  Uiso   1.00
H80    H     0.28597   0.30976   0.22216   0.00000  Uiso   1.00
C81    C     0.27619   0.28328   0.16500   0.00000  Uiso   1.00
H82    H     0.31130   0.26646   0.15462   0.00000  Uiso   1.00
H83    H     0.28252   0.31174   0.14282   0.00000  Uiso   1.00
H84    H     0.24885   0.26282   0.15855   0.00000  Uiso   1.00
N85    N     0.07452   0.03895   0.28503   0.00000  Uiso   1.00
H86    H     0.05288   0.02807   0.31836   0.00000  Uiso   1.00
C87    C     0.04835   0.03725   0.25374   0.00000  Uiso   1.00
H88    H     0.03661   0.00485   0.25061   0.00000  Uiso   1.00
H89    H     0.07204   0.04913   0.21800   0.00000  Uiso   1.00
H90    H     0.01514   0.05665   0.26829   0.00000  Uiso   1.00
F91    F     0.30782   0.11163   0.19569   0.00000  Uiso   1.00
F92    F     0.02509   0.22078   0.30553   0.00000  Uiso   1.00
C93    C     0.50066   0.24666   0.24943   0.00000  Uiso   1.00
C94    C     0.49939   0.08663   0.25047   0.00000  Uiso   1.00
C95    C     0.46290   0.10563   0.04055   0.00000  Uiso   1.00
C96    C     0.56592   0.15521   0.44056   0.00000  Uiso   1.00
C97    C     0.42890   0.09897   0.01968   0.00000  Uiso   1.00
C98    C     0.59877   0.16475   0.46190   0.00000  Uiso   1.00
C99    C     0.54604   0.31352   0.23244   0.00000  Uiso   1.00
C100   C     0.45438   0.01962   0.26660   0.00000  Uiso   1.00
C101   C     0.54416   0.02278   0.23355   0.00000  Uiso   1.00
C102   C     0.45627   0.31042   0.26654   0.00000  Uiso   1.00
C103   C     0.49884   0.04245   0.25023   0.00000  Uiso   1.00
C104   C     0.50148   0.29078   0.24914   0.00000  Uiso   1.00
C105   C     0.65331   0.13943   0.22260   0.00000  Uiso   1.00
C106   C     0.34667   0.19384   0.27751   0.00000  Uiso   1.00
C107   C     0.36809   0.13988   0.22211   0.00000  Uiso   1.00
C108   C     0.63220   0.19406   0.27716   0.00000  Uiso   1.00
C109   C     0.46904   0.16503   0.33855   0.00000  Uiso   1.00
C110   C     0.53097   0.16676   0.16141   0.00000  Uiso   1.00
C111   C     0.44979   0.15476   0.38940   0.00000  Uiso   1.00
C112   C     0.55154   0.16428   0.10949   0.00000  Uiso   1.00
C113   C     0.40030   0.11207   0.45690   0.00000  Uiso   1.00
C114   C     0.61592   0.17568   0.03185   0.00000  Uiso   1.00
C115   C     0.40842   0.12823   0.41165   0.00000  Uiso   1.00
C116   C     0.60035   0.17627   0.08117   0.00000  Uiso   1.00
C117   C     0.48122   0.16381   0.41238   0.00000  Uiso   1.00
C118   C     0.52052   0.14974   0.08797   0.00000  Uiso   1.00
C119   C     0.47848   0.14128   0.45223   0.00000  Uiso   1.00
C120   C     0.53681   0.14612   0.03882   0.00000  Uiso   1.00
C121   C     0.43551   0.11770   0.47662   0.00000  Uiso   1.00
C122   C     0.58409   0.16194   0.01073   0.00000  Uiso   1.00
C123   C     0.51666   0.14299   0.46930   0.00000  Uiso   1.00
C124   C     0.50530   0.13130   0.01699   0.00000  Uiso   1.00
H125   H     0.39690   0.07928   0.03749   0.00000  Uiso   1.00
H126   H     0.63565   0.17543   0.44029   0.00000  Uiso   1.00
H127   H     0.48250   0.14350   0.11001   0.00000  Uiso   1.00
H128   H     0.50987   0.18698   0.39689   0.00000  Uiso   1.00
H129   H     0.36781   0.09346   0.47608   0.00000  Uiso   1.00
H130   H     0.65257   0.18694   0.01011   0.00000  Uiso   1.00
H131   H     0.57840   0.04044   0.22036   0.00000  Uiso   1.00
H132   H     0.42202   0.29279   0.28040   0.00000  Uiso   1.00
H133   H     0.39504   0.11880   0.19941   0.00000  Uiso   1.00
H134   H     0.60556   0.21584   0.29903   0.00000  Uiso   1.00
N135   N     0.38093   0.16668   0.25001   0.00000  Uiso   1.00
N136   N     0.61907   0.16666   0.24999   0.00000  Uiso   1.00
O137   O     0.46179   0.22775   0.25001   0.00000  Uiso   1.00
O138   O     0.53821   0.10558   0.25000   0.00000  Uiso   1.00
O139   O     0.53823   0.22774   0.25000   0.00000  Uiso   1.00
O140   O     0.46177   0.10559   0.25000   0.00000  Uiso   1.00
O141   O     0.43994   0.16667   0.31613   0.00000  Uiso   1.00
O142   O     0.56006   0.16666   0.18388   0.00000  Uiso   1.00
O143   O     0.51639   0.16666   0.31612   0.00000  Uiso   1.00
O144   O     0.48361   0.16667   0.18388   0.00000  Uiso   1.00
Zn145  Zn    0.44896   0.16667   0.25000   0.00000  Uiso   1.00
Zn146  Zn    0.55104   0.16666   0.25000   0.00000  Uiso   1.00
N147   N     0.63252   0.19218   0.10179   0.00000  Uiso   1.00
H148   H     0.64554   0.22156   0.08955   0.00000  Uiso   1.00
C149   C     0.33884   0.16491   0.09812   0.00000  Uiso   1.00
H150   H     0.36582   0.16393   0.06093   0.00000  Uiso   1.00
H151   H     0.65788   0.13308   0.11011   0.00000  Uiso   1.00
H152   H     0.35783   0.17674   0.12068   0.00000  Uiso   1.00
N153   N     0.37749   0.11640   0.38743   0.00000  Uiso   1.00
H154   H     0.36224   0.14058   0.37619   0.00000  Uiso   1.00
C155   C     0.34626   0.07979   0.40297   0.00000  Uiso   1.00
H156   H     0.66512   0.07113   0.37587   0.00000  Uiso   1.00
H157   H     0.64801   0.08597   0.43660   0.00000  Uiso   1.00
H158   H     0.36759   0.05322   0.40745   0.00000  Uiso   1.00
N159   N     0.45609   0.08327   0.08284   0.00000  Uiso   1.00
H160   H     0.42007   0.07516   0.10309   0.00000  Uiso   1.00
C161   C     0.48915   0.04912   0.07662   0.00000  Uiso   1.00
H162   H     0.48247   0.02507   0.05374   0.00000  Uiso   1.00
H163   H     0.48278   0.03507   0.11164   0.00000  Uiso   1.00
H164   H     0.52801   0.06001   0.06045   0.00000  Uiso   1.00
N165   N     0.58414   0.15494   0.39012   0.00000  Uiso   1.00
H166   H     0.61525   0.17292   0.37333   0.00000  Uiso   1.00
C167   C     0.58528   0.11486   0.36821   0.00000  Uiso   1.00
H168   H     0.62218   0.10982   0.34012   0.00000  Uiso   1.00
H169   H     0.55827   0.11399   0.35131   0.00000  Uiso   1.00
H170   H     0.57650   0.08898   0.39434   0.00000  Uiso   1.00
N171   N     0.59260   0.29408   0.21446   0.00000  Uiso   1.00
H172   H     0.61930   0.30976   0.22216   0.00000  Uiso   1.00
C173   C     0.60953   0.28328   0.16500   0.00000  Uiso   1.00
H174   H     0.64463   0.26646   0.15462   0.00000  Uiso   1.00
H175   H     0.61586   0.31174   0.14282   0.00000  Uiso   1.00
H176   H     0.58218   0.26282   0.15855   0.00000  Uiso   1.00
N177   N     0.40785   0.03895   0.28503   0.00000  Uiso   1.00
H178   H     0.38621   0.02807   0.31836   0.00000  Uiso   1.00
C179   C     0.38168   0.03725   0.25374   0.00000  Uiso   1.00
H180   H     0.36995   0.00485   0.25061   0.00000  Uiso   1.00
H181   H     0.40537   0.04913   0.21800   0.00000  Uiso   1.00
H182   H     0.34847   0.05665   0.26829   0.00000  Uiso   1.00
F183   F     0.64116   0.11163   0.19569   0.00000  Uiso   1.00
F184   F     0.35842   0.22078   0.30553   0.00000  Uiso   1.00
C185   C     0.83400   0.24666   0.24943   0.00000  Uiso   1.00
C186   C     0.83272   0.08663   0.25047   0.00000  Uiso   1.00
C187   C     0.79624   0.10563   0.04055   0.00000  Uiso   1.00
C188   C     0.89925   0.15521   0.44056   0.00000  Uiso   1.00
C189   C     0.76224   0.09897   0.01968   0.00000  Uiso   1.00
C190   C     0.93210   0.16475   0.46190   0.00000  Uiso   1.00
C191   C     0.87937   0.31352   0.23244   0.00000  Uiso   1.00
C192   C     0.78772   0.01962   0.26660   0.00000  Uiso   1.00
C193   C     0.87750   0.02278   0.23355   0.00000  Uiso   1.00
C194   C     0.78960   0.31042   0.26654   0.00000  Uiso   1.00
C195   C     0.83218   0.04245   0.25023   0.00000  Uiso   1.00
C196   C     0.83482   0.29078   0.24914   0.00000  Uiso   1.00
C197   C     0.98665   0.13943   0.22260   0.00000  Uiso   1.00
C198   C     0.68000   0.19384   0.27751   0.00000  Uiso   1.00
C199   C     0.70142   0.13988   0.22211   0.00000  Uiso   1.00
C200   C     0.96553   0.19406   0.27716   0.00000  Uiso   1.00
C201   C     0.80238   0.16503   0.33855   0.00000  Uiso   1.00
C202   C     0.86431   0.16676   0.16141   0.00000  Uiso   1.00
C203   C     0.78312   0.15476   0.38940   0.00000  Uiso   1.00
C204   C     0.88487   0.16428   0.10949   0.00000  Uiso   1.00
C205   C     0.73363   0.11207   0.45690   0.00000  Uiso   1.00
C206   C     0.94926   0.17568   0.03185   0.00000  Uiso   1.00
C207   C     0.74175   0.12823   0.41165   0.00000  Uiso   1.00
C208   C     0.93368   0.17627   0.08117   0.00000  Uiso   1.00
C209   C     0.81455   0.16381   0.41238   0.00000  Uiso   1.00
C210   C     0.85385   0.14974   0.08797   0.00000  Uiso   1.00
C211   C     0.81182   0.14128   0.45223   0.00000  Uiso   1.00
C212   C     0.87015   0.14612   0.03882   0.00000  Uiso   1.00
C213   C     0.76885   0.11770   0.47662   0.00000  Uiso   1.00
C214   C     0.91742   0.16194   0.01073   0.00000  Uiso   1.00
C215   C     0.84999   0.14299   0.46930   0.00000  Uiso   1.00
C216   C     0.83864   0.13130   0.01699   0.00000  Uiso   1.00
H217   H     0.73023   0.07928   0.03749   0.00000  Uiso   1.00
H218   H     0.96898   0.17543   0.44029   0.00000  Uiso   1.00
H219   H     0.81583   0.14350   0.11001   0.00000  Uiso   1.00
H220   H     0.84320   0.18698   0.39689   0.00000  Uiso   1.00
H221   H     0.70115   0.09346   0.47608   0.00000  Uiso   1.00
H222   H     0.98591   0.18694   0.01011   0.00000  Uiso   1.00
H223   H     0.91173   0.04044   0.22036   0.00000  Uiso   1.00
H224   H     0.75536   0.29279   0.28040   0.00000  Uiso   1.00
H225   H     0.72837   0.11880   0.19941   0.00000  Uiso   1.00
H226   H     0.93889   0.21584   0.29903   0.00000  Uiso   1.00
N227   N     0.71426   0.16668   0.25001   0.00000  Uiso   1.00
N228   N     0.95241   0.16666   0.24999   0.00000  Uiso   1.00
O229   O     0.79512   0.22775   0.25001   0.00000  Uiso   1.00
O230   O     0.87154   0.10558   0.25000   0.00000  Uiso   1.00
O231   O     0.87157   0.22774   0.25000   0.00000  Uiso   1.00
O232   O     0.79510   0.10559   0.25000   0.00000  Uiso   1.00
O233   O     0.77328   0.16667   0.31613   0.00000  Uiso   1.00
O234   O     0.89339   0.16666   0.18388   0.00000  Uiso   1.00
O235   O     0.84972   0.16666   0.31612   0.00000  Uiso   1.00
O236   O     0.81695   0.16667   0.18388   0.00000  Uiso   1.00
Zn237  Zn    0.78229   0.16667   0.25000   0.00000  Uiso   1.00
Zn238  Zn    0.88438   0.16666   0.25000   0.00000  Uiso   1.00
N239   N     0.96585   0.19218   0.10179   0.00000  Uiso   1.00
H240   H     0.97887   0.22156   0.08955   0.00000  Uiso   1.00
C241   C     0.67217   0.16491   0.09812   0.00000  Uiso   1.00
H242   H     0.69915   0.16393   0.06093   0.00000  Uiso   1.00
H243   H     0.99121   0.13308   0.11011   0.00000  Uiso   1.00
H244   H     0.69116   0.17674   0.12068   0.00000  Uiso   1.00
N245   N     0.71082   0.11640   0.38743   0.00000  Uiso   1.00
H246   H     0.69557   0.14058   0.37619   0.00000  Uiso   1.00
C247   C     0.67959   0.07979   0.40297   0.00000  Uiso   1.00
H248   H     0.99845   0.07113   0.37587   0.00000  Uiso   1.00
H249   H     0.98134   0.08597   0.43660   0.00000  Uiso   1.00
H250   H     0.70093   0.05322   0.40745   0.00000  Uiso   1.00
N251   N     0.78942   0.08327   0.08284   0.00000  Uiso   1.00
H252   H     0.75341   0.07516   0.10309   0.00000  Uiso   1.00
C253   C     0.82248   0.04912   0.07662   0.00000  Uiso   1.00
H254   H     0.81581   0.02507   0.05374   0.00000  Uiso   1.00
H255   H     0.81612   0.03507   0.11164   0.00000  Uiso   1.00
H256   H     0.86134   0.06001   0.06045   0.00000  Uiso   1.00
N257   N     0.91748   0.15494   0.39012   0.00000  Uiso   1.00
H258   H     0.94858   0.17292   0.37333   0.00000  Uiso   1.00
C259   C     0.91861   0.11486   0.36821   0.00000  Uiso   1.00
H260   H     0.95551   0.10982   0.34012   0.00000  Uiso   1.00
H261   H     0.89161   0.11399   0.35131   0.00000  Uiso   1.00
H262   H     0.90983   0.08898   0.39434   0.00000  Uiso   1.00
N263   N     0.92593   0.29408   0.21446   0.00000  Uiso   1.00
H264   H     0.95264   0.30976   0.22216   0.00000  Uiso   1.00
C265   C     0.94286   0.28328   0.16500   0.00000  Uiso   1.00
H266   H     0.97796   0.26646   0.15462   0.00000  Uiso   1.00
H267   H     0.94919   0.31174   0.14282   0.00000  Uiso   1.00
H268   H     0.91552   0.26282   0.15855   0.00000  Uiso   1.00
N269   N     0.74118   0.03895   0.28503   0.00000  Uiso   1.00
H270   H     0.71954   0.02807   0.31836   0.00000  Uiso   1.00
C271   C     0.71501   0.03725   0.25374   0.00000  Uiso   1.00
H272   H     0.70328   0.00485   0.25061   0.00000  Uiso   1.00
H273   H     0.73870   0.04913   0.21800   0.00000  Uiso   1.00
H274   H     0.68181   0.05665   0.26829   0.00000  Uiso   1.00
F275   F     0.97449   0.11163   0.19569   0.00000  Uiso   1.00
F276   F     0.69176   0.22078   0.30553   0.00000  Uiso   1.00
C277   C     0.16733   0.57999   0.24943   0.00000  Uiso   1.00
C278   C     0.16606   0.41996   0.25047   0.00000  Uiso   1.00
C279   C     0.12957   0.43896   0.04055   0.00000  Uiso   1.00
C280   C     0.23258   0.48854   0.44056   0.00000  Uiso   1.00
C281   C     0.09557   0.43230   0.01968   0.00000  Uiso   1.00
C282   C     0.26543   0.49809   0.46190   0.00000  Uiso   1.00
C283   C     0.21271   0.64686   0.23244   0.00000  Uiso   1.00
C284   C     0.12105   0.35295   0.26660   0.00000  Uiso   1.00
C285   C     0.21083   0.35612   0.23355   0.00000  Uiso   1.00
C286   C     0.12293   0.64375   0.26654   0.00000  Uiso   1.00
C287   C     0.16551   0.37578   0.25023   0.00000  Uiso   1.00
C288   C     0.16815   0.62411   0.24914   0.00000  Uiso   1.00
C289   C     0.31998   0.47276   0.22260   0.00000  Uiso   1.00
C290   C     0.01333   0.52718   0.27751   0.00000  Uiso   1.00
C291   C     0.03476   0.47321   0.22211   0.00000  Uiso   1.00
C292   C     0.29886   0.52739   0.27716   0.00000  Uiso   1.00
C293   C     0.13571   0.49836   0.33855   0.00000  Uiso   1.00
C294   C     0.19764   0.50009   0.16141   0.00000  Uiso   1.00
C295   C     0.11646   0.48810   0.38940   0.00000  Uiso   1.00
C296   C     0.21821   0.49762   0.10949   0.00000  Uiso   1.00
C297   C     0.06697   0.44540   0.45690   0.00000  Uiso   1.00
C298   C     0.28259   0.50901   0.03185   0.00000  Uiso   1.00
C299   C     0.07508   0.46156   0.41165   0.00000  Uiso   1.00
C300   C     0.26701   0.50960   0.08117   0.00000  Uiso   1.00
C301   C     0.14788   0.49714   0.41238   0.00000  Uiso   1.00
C302   C     0.18718   0.48307   0.08797   0.00000  Uiso   1.00
C303   C     0.14515   0.47461   0.45223   0.00000  Uiso   1.00
C304   C     0.20348   0.47945   0.03882   0.00000  Uiso   1.00
C305   C     0.10218   0.45103   0.47662   0.00000  Uiso   1.00
C306   C     0.25076   0.49527   0.01073   0.00000  Uiso   1.00
C307   C     0.18332   0.47632   0.46930   0.00000  Uiso   1.00
C308   C     0.17197   0.46464   0.01699   0.00000  Uiso   1.00
H309   H     0.06356   0.41261   0.03749   0.00000  Uiso   1.00
H310   H     0.30232   0.50876   0.44029   0.00000  Uiso   1.00
H311   H     0.14916   0.47683   0.11001   0.00000  Uiso   1.00
H312   H     0.17654   0.52031   0.39689   0.00000  Uiso   1.00
H313   H     0.03448   0.42679   0.47608   0.00000  Uiso   1.00
H314   H     0.31924   0.52027   0.01011   0.00000  Uiso   1.00
H315   H     0.24507   0.37378   0.22036   0.00000  Uiso   1.00
H316   H     0.08869   0.62612   0.28040   0.00000  Uiso   1.00
H317   H     0.06170   0.45213   0.19941   0.00000  Uiso   1.00
H318   H     0.27223   0.54917   0.29903   0.00000  Uiso   1.00
N319   N     0.04759   0.50001   0.25001   0.00000  Uiso   1.00
N320   N     0.28574   0.49999   0.24999   0.00000  Uiso   1.00
O321   O     0.12846   0.56108   0.25001   0.00000  Uiso   1.00
O322   O     0.20488   0.43892   0.25000   0.00000  Uiso   1.00
O323   O     0.20490   0.56107   0.25000   0.00000  Uiso   1.00
O324   O     0.12843   0.43893   0.25000   0.00000  Uiso   1.00
O325   O     0.10661   0.50001   0.31613   0.00000  Uiso   1.00
O326   O     0.22672   0.49999   0.18388   0.00000  Uiso   1.00
O327   O     0.18305   0.50000   0.31612   0.00000  Uiso   1.00
O328   O     0.15028   0.50000   0.18388   0.00000  Uiso   1.00
Zn329  Zn    0.11562   0.50001   0.25000   0.00000  Uiso   1.00
Zn330  Zn    0.21771   0.49999   0.25000   0.00000  Uiso   1.00
N331   N     0.29919   0.52552   0.10179   0.00000  Uiso   1.00
H332   H     0.31220   0.55489   0.08955   0.00000  Uiso   1.00
C333   C     0.00551   0.49825   0.09812   0.00000  Uiso   1.00
H334   H     0.03248   0.49726   0.06093   0.00000  Uiso   1.00
H335   H     0.32454   0.46641   0.11011   0.00000  Uiso   1.00
H336   H     0.02450   0.51007   0.12068   0.00000  Uiso   1.00
N337   N     0.04416   0.44974   0.38743   0.00000  Uiso   1.00
H338   H     0.02891   0.47392   0.37619   0.00000  Uiso   1.00
C339   C     0.01293   0.41312   0.40297   0.00000  Uiso   1.00
H340   H     0.33178   0.40446   0.37587   0.00000  Uiso   1.00
H341   H     0.31468   0.41930   0.43660   0.00000  Uiso   1.00
H342   H     0.03426   0.38655   0.40745   0.00000  Uiso   1.00
N343   N     0.12276   0.41661   0.08284   0.00000  Uiso   1.00
H344   H     0.08674   0.40849   0.10309   0.00000  Uiso   1.00
C345   C     0.15582   0.38245   0.07662   0.00000  Uiso   1.00
H346   H     0.14914   0.35841   0.05374   0.00000  Uiso   1.00
H347   H     0.14945   0.36841   0.11164   0.00000  Uiso   1.00
H348   H     0.19467   0.39334   0.06045   0.00000  Uiso   1.00
N349   N     0.25081   0.48827   0.39012   0.00000  Uiso   1.00
H350   H     0.28192   0.50626   0.37333   0.00000  Uiso   1.00
C351   C     0.25194   0.44819   0.36821   0.00000  Uiso   1.00
H352   H     0.28884   0.44315   0.34012   0.00000  Uiso   1.00
H353   H     0.22494   0.44732   0.35131   0.00000  Uiso   1.00
H354   H     0.24317   0.42231   0.39434   0.00000  Uiso   1.00
N355   N     0.25927   0.62742   0.21446   0.00000  Uiso   1.00
H356   H     0.28597   0.64309   0.22216   0.00000  Uiso   1.00
C357   C     0.27619   0.61661   0.16500   0.00000  Uiso   1.00
H358   H     0.31130   0.59980   0.15462   0.00000  Uiso   1.00
H359   H     0.28252   0.64507   0.14282   0.00000  Uiso   1.00
H360   H     0.24885   0.59615   0.15855   0.00000  Uiso   1.00
N361   N     0.07452   0.37228   0.28503   0.00000  Uiso   1.00
H362   H     0.05288   0.36141   0.31836   0.00000  Uiso   1.00
C363   C     0.04835   0.37058   0.25374   0.00000  Uiso   1.00
H364   H     0.03661   0.33818   0.25061   0.00000  Uiso   1.00
H365   H     0.07204   0.38246   0.21800   0.00000  Uiso   1.00
H366   H     0.01514   0.38998   0.26829   0.00000  Uiso   1.00
F367   F     0.30782   0.44496   0.19569   0.00000  Uiso   1.00
F368   F     0.02509   0.55412   0.30553   0.00000  Uiso   1.00
C369   C     0.50066   0.57999   0.24943   0.00000  Uiso   1.00
C370   C     0.49939   0.41996   0.25047   0.00000  Uiso   1.00
C371   C     0.46290   0.43896   0.04055   0.00000  Uiso   1.00
C372   C     0.56592   0.48854   0.44056   0.00000  Uiso   1.00
C373   C     0.42890   0.43230   0.01968   0.00000  Uiso   1.00
C374   C     0.59877   0.49809   0.46190   0.00000  Uiso   1.00
C375   C     0.54604   0.64686   0.23244   0.00000  Uiso   1.00
C376   C     0.45438   0.35295   0.26660   0.00000  Uiso   1.00
C377   C     0.54416   0.35612   0.23355   0.00000  Uiso   1.00
C378   C     0.45627   0.64375   0.26654   0.00000  Uiso   1.00
C379   C     0.49884   0.37578   0.25023   0.00000  Uiso   1.00
C380   C     0.50148   0.62411   0.24914   0.00000  Uiso   1.00
C381   C     0.65331   0.47276   0.22260   0.00000  Uiso   1.00
C382   C     0.34667   0.52718   0.27751   0.00000  Uiso   1.00
C383   C     0.36809   0.47321   0.22211   0.00000  Uiso   1.00
C384   C     0.63220   0.52739   0.27716   0.00000  Uiso   1.00
C385   C     0.46904   0.49836   0.33855   0.00000  Uiso   1.00
C386   C     0.53097   0.50009   0.16141   0.00000  Uiso   1.00
C387   C     0.44979   0.48810   0.38940   0.00000  Uiso   1.00
C388   C     0.55154   0.49762   0.10949   0.00000  Uiso   1.00
C389   C     0.40030   0.44540   0.45690   0.00000  Uiso   1.00
C390   C     0.61592   0.50901   0.03185   0.00000  Uiso   1.00
C391   C     0.40842   0.46156   0.41165   0.00000  Uiso   1.00
C392   C     0.60035   0.50960   0.08117   0.00000  Uiso   1.00
C393   C     0.48122   0.49714   0.41238   0.00000  Uiso   1.00
C394   C     0.52052   0.48307   0.08797   0.00000  Uiso   1.00
C395   C     0.47848   0.47461   0.45223   0.00000  Uiso   1.00
C396   C     0.53681   0.47945   0.03882   0.00000  Uiso   1.00
C397   C     0.43551   0.45103   0.47662   0.00000  Uiso   1.00
C398   C     0.58409   0.49527   0.01073   0.00000  Uiso   1.00
C399   C     0.51666   0.47632   0.46930   0.00000  Uiso   1.00
C400   C     0.50530   0.46464   0.01699   0.00000  Uiso   1.00
H401   H     0.39690   0.41261   0.03749   0.00000  Uiso   1.00
H402   H     0.63565   0.50876   0.44029   0.00000  Uiso   1.00
H403   H     0.48250   0.47683   0.11001   0.00000  Uiso   1.00
H404   H     0.50987   0.52031   0.39689   0.00000  Uiso   1.00
H405   H     0.36781   0.42679   0.47608   0.00000  Uiso   1.00
H406   H     0.65257   0.52027   0.01011   0.00000  Uiso   1.00
H407   H     0.57840   0.37378   0.22036   0.00000  Uiso   1.00
H408   H     0.42202   0.62612   0.28040   0.00000  Uiso   1.00
H409   H     0.39504   0.45213   0.19941   0.00000  Uiso   1.00
H410   H     0.60556   0.54917   0.29903   0.00000  Uiso   1.00
N411   N     0.38093   0.50001   0.25001   0.00000  Uiso   1.00
N412   N     0.61907   0.49999   0.24999   0.00000  Uiso   1.00
O413   O     0.46179   0.56108   0.25001   0.00000  Uiso   1.00
O414   O     0.53821   0.43892   0.25000   0.00000  Uiso   1.00
O415   O     0.53823   0.56107   0.25000   0.00000  Uiso   1.00
O416   O     0.46177   0.43893   0.25000   0.00000  Uiso   1.00
O417   O     0.43994   0.50001   0.31613   0.00000  Uiso   1.00
O418   O     0.56006   0.49999   0.18388   0.00000  Uiso   1.00
O419   O     0.51639   0.50000   0.31612   0.00000  Uiso   1.00
O420   O     0.48361   0.50000   0.18388   0.00000  Uiso   1.00
Zn421  Zn    0.44896   0.50001   0.25000   0.00000  Uiso   1.00
Zn422  Zn    0.55104   0.49999   0.25000   0.00000  Uiso   1.00
N423   N     0.63252   0.52552   0.10179   0.00000  Uiso   1.00
H424   H     0.64554   0.55489   0.08955   0.00000  Uiso   1.00
C425   C     0.33884   0.49825   0.09812   0.00000  Uiso   1.00
H426   H     0.36582   0.49726   0.06093   0.00000  Uiso   1.00
H427   H     0.65788   0.46641   0.11011   0.00000  Uiso   1.00
H428   H     0.35783   0.51007   0.12068   0.00000  Uiso   1.00
N429   N     0.37749   0.44974   0.38743   0.00000  Uiso   1.00
H430   H     0.36224   0.47392   0.37619   0.00000  Uiso   1.00
C431   C     0.34626   0.41312   0.40297   0.00000  Uiso   1.00
H432   H     0.66512   0.40446   0.37587   0.00000  Uiso   1.00
H433   H     0.64801   0.41930   0.43660   0.00000  Uiso   1.00
H434   H     0.36759   0.38655   0.40745   0.00000  Uiso   1.00
N435   N     0.45609   0.41661   0.08284   0.00000  Uiso   1.00
H436   H     0.42007   0.40849   0.10309   0.00000  Uiso   1.00
C437   C     0.48915   0.38245   0.07662   0.00000  Uiso   1.00
H438   H     0.48247   0.35841   0.05374   0.00000  Uiso   1.00
H439   H     0.48278   0.36841   0.11164   0.00000  Uiso   1.00
H440   H     0.52801   0.39334   0.06045   0.00000  Uiso   1.00
N441   N     0.58414   0.48827   0.39012   0.00000  Uiso   1.00
H442   H     0.61525   0.50626   0.37333   0.00000  Uiso   1.00
C443   C     0.58528   0.44819   0.36821   0.00000  Uiso   1.00
H444   H     0.62218   0.44315   0.34012   0.00000  Uiso   1.00
H445   H     0.55827   0.44732   0.35131   0.00000  Uiso   1.00
H446   H     0.57650   0.42231   0.39434   0.00000  Uiso   1.00
N447   N     0.59260   0.62742   0.21446   0.00000  Uiso   1.00
H448   H     0.61930   0.64309   0.22216   0.00000  Uiso   1.00
C449   C     0.60953   0.61661   0.16500   0.00000  Uiso   1.00
H450   H     0.64463   0.59980   0.15462   0.00000  Uiso   1.00
H451   H     0.61586   0.64507   0.14282   0.00000  Uiso   1.00
H452   H     0.58218   0.59615   0.15855   0.00000  Uiso   1.00
N453   N     0.40785   0.37228   0.28503   0.00000  Uiso   1.00
H454   H     0.38621   0.36141   0.31836   0.00000  Uiso   1.00
C455   C     0.38168   0.37058   0.25374   0.00000  Uiso   1.00
H456   H     0.36995   0.33818   0.25061   0.00000  Uiso   1.00
H457   H     0.40537   0.38246   0.21800   0.00000  Uiso   1.00
H458   H     0.34847   0.38998   0.26829   0.00000  Uiso   1.00
F459   F     0.64116   0.44496   0.19569   0.00000  Uiso   1.00
F460   F     0.35842   0.55412   0.30553   0.00000  Uiso   1.00
C461   C     0.83400   0.57999   0.24943   0.00000  Uiso   1.00
C462   C     0.83272   0.41996   0.25047   0.00000  Uiso   1.00
C463   C     0.79624   0.43896   0.04055   0.00000  Uiso   1.00
C464   C     0.89925   0.48854   0.44056   0.00000  Uiso   1.00
C465   C     0.76224   0.43230   0.01968   0.00000  Uiso   1.00
C466   C     0.93210   0.49809   0.46190   0.00000  Uiso   1.00
C467   C     0.87937   0.64686   0.23244   0.00000  Uiso   1.00
C468   C     0.78772   0.35295   0.26660   0.00000  Uiso   1.00
C469   C     0.87750   0.35612   0.23355   0.00000  Uiso   1.00
C470   C     0.78960   0.64375   0.26654   0.00000  Uiso   1.00
C471   C     0.83218   0.37578   0.25023   0.00000  Uiso   1.00
C472   C     0.83482   0.62411   0.24914   0.00000  Uiso   1.00
C473   C     0.98665   0.47276   0.22260   0.00000  Uiso   1.00
C474   C     0.68000   0.52718   0.27751   0.00000  Uiso   1.00
C475   C     0.70142   0.47321   0.22211   0.00000  Uiso   1.00
C476   C     0.96553   0.52739   0.27716   0.00000  Uiso   1.00
C477   C     0.80238   0.49836   0.33855   0.00000  Uiso   1.00
C478   C     0.86431   0.50009   0.16141   0.00000  Uiso   1.00
C479   C     0.78312   0.48810   0.38940   0.00000  Uiso   1.00
C480   C     0.88487   0.49762   0.10949   0.00000  Uiso   1.00
C481   C     0.73363   0.44540   0.45690   0.00000  Uiso   1.00
C482   C     0.94926   0.50901   0.03185   0.00000  Uiso   1.00
C483   C     0.74175   0.46156   0.41165   0.00000  Uiso   1.00
C484   C     0.93368   0.50960   0.08117   0.00000  Uiso   1.00
C485   C     0.81455   0.49714   0.41238   0.00000  Uiso   1.00
C486   C     0.85385   0.48307   0.08797   0.00000  Uiso   1.00
C487   C     0.81182   0.47461   0.45223   0.00000  Uiso   1.00
C488   C     0.87015   0.47945   0.03882   0.00000  Uiso   1.00
C489   C     0.76885   0.45103   0.47662   0.00000  Uiso   1.00
C490   C     0.91742   0.49527   0.01073   0.00000  Uiso   1.00
C491   C     0.84999   0.47632   0.46930   0.00000  Uiso   1.00
C492   C     0.83864   0.46464   0.01699   0.00000  Uiso   1.00
H493   H     0.73023   0.41261   0.03749   0.00000  Uiso   1.00
H494   H     0.96898   0.50876   0.44029   0.00000  Uiso   1.00
H495   H     0.81583   0.47683   0.11001   0.00000  Uiso   1.00
H496   H     0.84320   0.52031   0.39689   0.00000  Uiso   1.00
H497   H     0.70115   0.42679   0.47608   0.00000  Uiso   1.00
H498   H     0.98591   0.52027   0.01011   0.00000  Uiso   1.00
H499   H     0.91173   0.37378   0.22036   0.00000  Uiso   1.00
H500   H     0.75536   0.62612   0.28040   0.00000  Uiso   1.00
H501   H     0.72837   0.45213   0.19941   0.00000  Uiso   1.00
H502   H     0.93889   0.54917   0.29903   0.00000  Uiso   1.00
N503   N     0.71426   0.50001   0.25001   0.00000  Uiso   1.00
N504   N     0.95241   0.49999   0.24999   0.00000  Uiso   1.00
O505   O     0.79512   0.56108   0.25001   0.00000  Uiso   1.00
O506   O     0.87154   0.43892   0.25000   0.00000  Uiso   1.00
O507   O     0.87157   0.56107   0.25000   0.00000  Uiso   1.00
O508   O     0.79510   0.43893   0.25000   0.00000  Uiso   1.00
O509   O     0.77328   0.50001   0.31613   0.00000  Uiso   1.00
O510   O     0.89339   0.49999   0.18388   0.00000  Uiso   1.00
O511   O     0.84972   0.50000   0.31612   0.00000  Uiso   1.00
O512   O     0.81695   0.50000   0.18388   0.00000  Uiso   1.00
Zn513  Zn    0.78229   0.50001   0.25000   0.00000  Uiso   1.00
Zn514  Zn    0.88438   0.49999   0.25000   0.00000  Uiso   1.00
N515   N     0.96585   0.52552   0.10179   0.00000  Uiso   1.00
H516   H     0.97887   0.55489   0.08955   0.00000  Uiso   1.00
C517   C     0.67217   0.49825   0.09812   0.00000  Uiso   1.00
H518   H     0.69915   0.49726   0.06093   0.00000  Uiso   1.00
H519   H     0.99121   0.46641   0.11011   0.00000  Uiso   1.00
H520   H     0.69116   0.51007   0.12068   0.00000  Uiso   1.00
N521   N     0.71082   0.44974   0.38743   0.00000  Uiso   1.00
H522   H     0.69557   0.47392   0.37619   0.00000  Uiso   1.00
C523   C     0.67959   0.41312   0.40297   0.00000  Uiso   1.00
H524   H     0.99845   0.40446   0.37587   0.00000  Uiso   1.00
H525   H     0.98134   0.41930   0.43660   0.00000  Uiso   1.00
H526   H     0.70093   0.38655   0.40745   0.00000  Uiso   1.00
N527   N     0.78942   0.41661   0.08284   0.00000  Uiso   1.00
H528   H     0.75341   0.40849   0.10309   0.00000  Uiso   1.00
C529   C     0.82248   0.38245   0.07662   0.00000  Uiso   1.00
H530   H     0.81581   0.35841   0.05374   0.00000  Uiso   1.00
H531   H     0.81612   0.36841   0.11164   0.00000  Uiso   1.00
H532   H     0.86134   0.39334   0.06045   0.00000  Uiso   1.00
N533   N     0.91748   0.48827   0.39012   0.00000  Uiso   1.00
H534   H     0.94858   0.50626   0.37333   0.00000  Uiso   1.00
C535   C     0.91861   0.44819   0.36821   0.00000  Uiso   1.00
H536   H     0.95551   0.44315   0.34012   0.00000  Uiso   1.00
H537   H     0.89161   0.44732   0.35131   0.00000  Uiso   1.00
H538   H     0.90983   0.42231   0.39434   0.00000  Uiso   1.00
N539   N     0.92593   0.62742   0.21446   0.00000  Uiso   1.00
H540   H     0.95264   0.64309   0.22216   0.00000  Uiso   1.00
C541   C     0.94286   0.61661   0.16500   0.00000  Uiso   1.00
H542   H     0.97796   0.59980   0.15462   0.00000  Uiso   1.00
H543   H     0.94919   0.64507   0.14282   0.00000  Uiso   1.00
H544   H     0.91552   0.59615   0.15855   0.00000  Uiso   1.00
N545   N     0.74118   0.37228   0.28503   0.00000  Uiso   1.00
H546   H     0.71954   0.36141   0.31836   0.00000  Uiso   1.00
C547   C     0.71501   0.37058   0.25374   0.00000  Uiso   1.00
H548   H     0.70328   0.33818   0.25061   0.00000  Uiso   1.00
H549   H     0.73870   0.38246   0.21800   0.00000  Uiso   1.00
H550   H     0.68181   0.38998   0.26829   0.00000  Uiso   1.00
F551   F     0.97449   0.44496   0.19569   0.00000  Uiso   1.00
F552   F     0.69176   0.55412   0.30553   0.00000  Uiso   1.00
C553   C     0.16733   0.91333   0.24943   0.00000  Uiso   1.00
C554   C     0.16606   0.75330   0.25047   0.00000  Uiso   1.00
C555   C     0.12957   0.77230   0.04055   0.00000  Uiso   1.00
C556   C     0.23258   0.82188   0.44056   0.00000  Uiso   1.00
C557   C     0.09557   0.76563   0.01968   0.00000  Uiso   1.00
C558   C     0.26543   0.83142   0.46190   0.00000  Uiso   1.00
C559   C     0.21271   0.98019   0.23244   0.00000  Uiso   1.00
C560   C     0.12105   0.68629   0.26660   0.00000  Uiso   1.00
C561   C     0.21083   0.68945   0.23355   0.00000  Uiso   1.00
C562   C     0.12293   0.97709   0.26654   0.00000  Uiso   1.00
C563   C     0.16551   0.70911   0.25023   0.00000  Uiso   1.00
C564   C     0.16815   0.95745   0.24914   0.00000  Uiso   1.00
C565   C     0.31998   0.80609   0.22260   0.00000  Uiso   1.00
C566   C     0.01333   0.86051   0.27751   0.00000  Uiso   1.00
C567   C     0.03476   0.80655   0.22211   0.00000  Uiso   1.00
C568   C     0.29886   0.86072   0.27716   0.00000  Uiso   1.00
C569   C     0.13571   0.83169   0.33855   0.00000  Uiso   1.00
C570   C     0.19764   0.83342   0.16141   0.00000  Uiso   1.00
C571   C     0.11646   0.82143   0.38940   0.00000  Uiso   1.00
C572   C     0.21821   0.83095   0.10949   0.00000  Uiso   1.00
C573   C     0.06697   0.77873   0.45690   0.00000  Uiso   1.00
C574   C     0.28259   0.84234   0.03185   0.00000  Uiso   1.00
C575   C     0.07508   0.79490   0.41165   0.00000  Uiso   1.00
C576   C     0.26701   0.84294   0.08117   0.00000  Uiso   1.00
C577   C     0.14788   0.83048   0.41238   0.00000  Uiso   1.00
C578   C     0.18718   0.81641   0.08797   0.00000  Uiso   1.00
C579   C     0.14515   0.80794   0.45223   0.00000  Uiso   1.00
C580   C     0.20348   0.81278   0.03882   0.00000  Uiso   1.00
C581   C     0.10218   0.78437   0.47662   0.00000  Uiso   1.00
C582   C     0.25076   0.82860   0.01073   0.00000  Uiso   1.00
C583   C     0.18332   0.80966   0.46930   0.00000  Uiso   1.00
C584   C     0.17197   0.79797   0.01699   0.00000  Uiso   1.00
H585   H     0.06356   0.74595   0.03749   0.00000  Uiso   1.00
H586   H     0.30232   0.84209   0.44029   0.00000  Uiso   1.00
H587   H     0.14916   0.81016   0.11001   0.00000  Uiso   1.00
H588   H     0.17654   0.85364   0.39689   0.00000  Uiso   1.00
H589   H     0.03448   0.76012   0.47608   0.00000  Uiso   1.00
H590   H     0.31924   0.85361   0.01011   0.00000  Uiso   1.00
H591   H     0.24507   0.70711   0.22036   0.00000  Uiso   1.00
H592   H     0.08869   0.95946   0.28040   0.00000  Uiso   1.00
H593   H     0.06170   0.78546   0.19941   0.00000  Uiso   1.00
H594   H     0.27223   0.88251   0.29903   0.00000  Uiso   1.00
N595   N     0.04759   0.83334   0.25001   0.00000  Uiso   1.00
N596   N     0.28574   0.83332   0.24999   0.00000  Uiso   1.00
O597   O     0.12846   0.89442   0.25001   0.00000  Uiso   1.00
O598   O     0.20488   0.77225   0.25000   0.00000  Uiso   1.00
O599   O     0.20490   0.89441   0.25000   0.00000  Uiso   1.00
O600   O     0.12843   0.77226   0.25000   0.00000  Uiso   1.00
O601   O     0.10661   0.83334   0.31613   0.00000  Uiso   1.00
O602   O     0.22672   0.83333   0.18388   0.00000  Uiso   1.00
O603   O     0.18305   0.83333   0.31612   0.00000  Uiso   1.00
O604   O     0.15028   0.83334   0.18388   0.00000  Uiso   1.00
Zn605  Zn    0.11562   0.83334   0.25000   0.00000  Uiso   1.00
Zn606  Zn    0.21771   0.83333   0.25000   0.00000  Uiso   1.00
N607   N     0.29919   0.85885   0.10179   0.00000  Uiso   1.00
H608   H     0.31220   0.88823   0.08955   0.00000  Uiso   1.00
C609   C     0.00551   0.83158   0.09812   0.00000  Uiso   1.00
H610   H     0.03248   0.83059   0.06093   0.00000  Uiso   1.00
H611   H     0.32454   0.79974   0.11011   0.00000  Uiso   1.00
H612   H     0.02450   0.84340   0.12068   0.00000  Uiso   1.00
N613   N     0.04416   0.78307   0.38743   0.00000  Uiso   1.00
H614   H     0.02891   0.80725   0.37619   0.00000  Uiso   1.00
C615   C     0.01293   0.74646   0.40297   0.00000  Uiso   1.00
H616   H     0.33178   0.73779   0.37587   0.00000  Uiso   1.00
H617   H     0.31468   0.75263   0.43660   0.00000  Uiso   1.00
H618   H     0.03426   0.71989   0.40745   0.00000  Uiso   1.00
N619   N     0.12276   0.74994   0.08284   0.00000  Uiso   1.00
H620   H     0.08674   0.74182   0.10309   0.00000  Uiso   1.00
C621   C     0.15582   0.71579   0.07662   0.00000  Uiso   1.00
H622   H     0.14914   0.69174   0.05374   0.00000  Uiso   1.00
H623   H     0.14945   0.70174   0.11164   0.00000  Uiso   1.00
H624   H     0.19467   0.72668   0.06045   0.00000  Uiso   1.00
N625   N     0.25081   0.82160   0.39012   0.00000  Uiso   1.00
H626   H     0.28192   0.83959   0.37333   0.00000  Uiso   1.00
C627   C     0.25194   0.78152   0.36821   0.00000  Uiso   1.00
H628   H     0.28884   0.77649   0.34012   0.00000  Uiso   1.00
H629   H     0.22494   0.78065   0.35131   0.00000  Uiso   1.00
H630   H     0.24317   0.75565   0.39434   0.00000  Uiso   1.00
N631   N     0.25927   0.96075   0.21446   0.00000  Uiso   1.00
H632   H     0.28597   0.97642   0.22216   0.00000  Uiso   1.00
C633   C     0.27619   0.94994   0.16500   0.00000  Uiso   1.00
H634   H     0.31130   0.93313   0.15462   0.00000  Uiso   1.00
H635   H     0.28252   0.97841   0.14282   0.00000  Uiso   1.00
H636   H     0.24885   0.92948   0.15855   0.00000  Uiso   1.00
N637   N     0.07452   0.70561   0.28503   0.00000  Uiso   1.00
H638   H     0.05288   0.69474   0.31836   0.00000  Uiso   1.00
C639   C     0.04835   0.70391   0.25374   0.00000  Uiso   1.00
H640   H     0.03661   0.67152   0.25061   0.00000  Uiso   1.00
H641   H     0.07204   0.71580   0.21800   0.00000  Uiso   1.00
H642   H     0.01514   0.72331   0.26829   0.00000  Uiso   1.00
F643   F     0.30782   0.77829   0.19569   0.00000  Uiso   1.00
F644   F     0.02509   0.88745   0.30553   0.00000  Uiso   1.00
C645   C     0.50066   0.91333   0.24943   0.00000  Uiso   1.00
C646   C     0.49939   0.75330   0.25047   0.00000  Uiso   1.00
C647   C     0.46290   0.77230   0.04055   0.00000  Uiso   1.00
C648   C     0.56592   0.82188   0.44056   0.00000  Uiso   1.00
C649   C     0.42890   0.76563   0.01968   0.00000  Uiso   1.00
C650   C     0.59877   0.83142   0.46190   0.00000  Uiso   1.00
C651   C     0.54604   0.98019   0.23244   0.00000  Uiso   1.00
C652   C     0.45438   0.68629   0.26660   0.00000  Uiso   1.00
C653   C     0.54416   0.68945   0.23355   0.00000  Uiso   1.00
C654   C     0.45627   0.97709   0.26654   0.00000  Uiso   1.00
C655   C     0.49884   0.70911   0.25023   0.00000  Uiso   1.00
C656   C     0.50148   0.95745   0.24914   0.00000  Uiso   1.00
C657   C     0.65331   0.80609   0.22260   0.00000  Uiso   1.00
C658   C     0.34667   0.86051   0.27751   0.00000  Uiso   1.00
C659   C     0.36809   0.80655   0.22211   0.00000  Uiso   1.00
C660   C     0.63220   0.86072   0.27716   0.00000  Uiso   1.00
C661   C     0.46904   0.83169   0.33855   0.00000  Uiso   1.00
C662   C     0.53097   0.83342   0.16141   0.00000  Uiso   1.00
C663   C     0.44979   0.82143   0.38940   0.00000  Uiso   1.00
C664   C     0.55154   0.83095   0.10949   0.00000  Uiso   1.00
C665   C     0.40030   0.77873   0.45690   0.00000  Uiso   1.00
C666   C     0.61592   0.84234   0.03185   0.00000  Uiso   1.00
C667   C     0.40842   0.79490   0.41165   0.00000  Uiso   1.00
C668   C     0.60035   0.84294   0.08117   0.00000  Uiso   1.00
C669   C     0.48122   0.83048   0.41238   0.00000  Uiso   1.00
C670   C     0.52052   0.81641   0.08797   0.00000  Uiso   1.00
C671   C     0.47848   0.80794   0.45223   0.00000  Uiso   1.00
C672   C     0.53681   0.81278   0.03882   0.00000  Uiso   1.00
C673   C     0.43551   0.78437   0.47662   0.00000  Uiso   1.00
C674   C     0.58409   0.82860   0.01073   0.00000  Uiso   1.00
C675   C     0.51666   0.80966   0.46930   0.00000  Uiso   1.00
C676   C     0.50530   0.79797   0.01699   0.00000  Uiso   1.00
H677   H     0.39690   0.74595   0.03749   0.00000  Uiso   1.00
H678   H     0.63565   0.84209   0.44029   0.00000  Uiso   1.00
H679   H     0.48250   0.81016   0.11001   0.00000  Uiso   1.00
H680   H     0.50987   0.85364   0.39689   0.00000  Uiso   1.00
H681   H     0.36781   0.76012   0.47608   0.00000  Uiso   1.00
H682   H     0.65257   0.85361   0.01011   0.00000  Uiso   1.00
H683   H     0.57840   0.70711   0.22036   0.00000  Uiso   1.00
H684   H     0.42202   0.95946   0.28040   0.00000  Uiso   1.00
H685   H     0.39504   0.78546   0.19941   0.00000  Uiso   1.00
H686   H     0.60556   0.88251   0.29903   0.00000  Uiso   1.00
N687   N     0.38093   0.83334   0.25001   0.00000  Uiso   1.00
N688   N     0.61907   0.83332   0.24999   0.00000  Uiso   1.00
O689   O     0.46179   0.89442   0.25001   0.00000  Uiso   1.00
O690   O     0.53821   0.77225   0.25000   0.00000  Uiso   1.00
O691   O     0.53823   0.89441   0.25000   0.00000  Uiso   1.00
O692   O     0.46177   0.77226   0.25000   0.00000  Uiso   1.00
O693   O     0.43994   0.83334   0.31613   0.00000  Uiso   1.00
O694   O     0.56006   0.83333   0.18388   0.00000  Uiso   1.00
O695   O     0.51639   0.83333   0.31612   0.00000  Uiso   1.00
O696   O     0.48361   0.83334   0.18388   0.00000  Uiso   1.00
Zn697  Zn    0.44896   0.83334   0.25000   0.00000  Uiso   1.00
Zn698  Zn    0.55104   0.83333   0.25000   0.00000  Uiso   1.00
N699   N     0.63252   0.85885   0.10179   0.00000  Uiso   1.00
H700   H     0.64554   0.88823   0.08955   0.00000  Uiso   1.00
C701   C     0.33884   0.83158   0.09812   0.00000  Uiso   1.00
H702   H     0.36582   0.83059   0.06093   0.00000  Uiso   1.00
H703   H     0.65788   0.79974   0.11011   0.00000  Uiso   1.00
H704   H     0.35783   0.84340   0.12068   0.00000  Uiso   1.00
N705   N     0.37749   0.78307   0.38743   0.00000  Uiso   1.00
H706   H     0.36224   0.80725   0.37619   0.00000  Uiso   1.00
C707   C     0.34626   0.74646   0.40297   0.00000  Uiso   1.00
H708   H     0.66512   0.73779   0.37587   0.00000  Uiso   1.00
H709   H     0.64801   0.75263   0.43660   0.00000  Uiso   1.00
H710   H     0.36759   0.71989   0.40745   0.00000  Uiso   1.00
N711   N     0.45609   0.74994   0.08284   0.00000  Uiso   1.00
H712   H     0.42007   0.74182   0.10309   0.00000  Uiso   1.00
C713   C     0.48915   0.71579   0.07662   0.00000  Uiso   1.00
H714   H     0.48247   0.69174   0.05374   0.00000  Uiso   1.00
H715   H     0.48278   0.70174   0.11164   0.00000  Uiso   1.00
H716   H     0.52801   0.72668   0.06045   0.00000  Uiso   1.00
N717   N     0.58414   0.82160   0.39012   0.00000  Uiso   1.00
H718   H     0.61525   0.83959   0.37333   0.00000  Uiso   1.00
C719   C     0.58528   0.78152   0.36821   0.00000  Uiso   1.00
H720   H     0.62218   0.77649   0.34012   0.00000  Uiso   1.00
H721   H     0.55827   0.78065   0.35131   0.00000  Uiso   1.00
H722   H     0.57650   0.75565   0.39434   0.00000  Uiso   1.00
N723   N     0.59260   0.96075   0.21446   0.00000  Uiso   1.00
H724   H     0.61930   0.97642   0.22216   0.00000  Uiso   1.00
C725   C     0.60953   0.94994   0.16500   0.00000  Uiso   1.00
H726   H     0.64463   0.93313   0.15462   0.00000  Uiso   1.00
H727   H     0.61586   0.97841   0.14282   0.00000  Uiso   1.00
H728   H     0.58218   0.92948   0.15855   0.00000  Uiso   1.00
N729   N     0.40785   0.70561   0.28503   0.00000  Uiso   1.00
H730   H     0.38621   0.69474   0.31836   0.00000  Uiso   1.00
C731   C     0.38168   0.70391   0.25374   0.00000  Uiso   1.00
H732   H     0.36995   0.67152   0.25061   0.00000  Uiso   1.00
H733   H     0.40537   0.71580   0.21800   0.00000  Uiso   1.00
H734   H     0.34847   0.72331   0.26829   0.00000  Uiso   1.00
F735   F     0.64116   0.77829   0.19569   0.00000  Uiso   1.00
F736   F     0.35842   0.88745   0.30553   0.00000  Uiso   1.00
C737   C     0.83400   0.91333   0.24943   0.00000  Uiso   1.00
C738   C     0.83272   0.75330   0.25047   0.00000  Uiso   1.00
C739   C     0.79624   0.77230   0.04055   0.00000  Uiso   1.00
C740   C     0.89925   0.82188   0.44056   0.00000  Uiso   1.00
C741   C     0.76224   0.76563   0.01968   0.00000  Uiso   1.00
C742   C     0.93210   0.83142   0.46190   0.00000  Uiso   1.00
C743   C     0.87937   0.98019   0.23244   0.00000  Uiso   1.00
C744   C     0.78772   0.68629   0.26660   0.00000  Uiso   1.00
C745   C     0.87750   0.68945   0.23355   0.00000  Uiso   1.00
C746   C     0.78960   0.97709   0.26654   0.00000  Uiso   1.00
C747   C     0.83218   0.70911   0.25023   0.00000  Uiso   1.00
C748   C     0.83482   0.95745   0.24914   0.00000  Uiso   1.00
C749   C     0.98665   0.80609   0.22260   0.00000  Uiso   1.00
C750   C     0.68000   0.86051   0.27751   0.00000  Uiso   1.00
C751   C     0.70142   0.80655   0.22211   0.00000  Uiso   1.00
C752   C     0.96553   0.86072   0.27716   0.00000  Uiso   1.00
C753   C     0.80238   0.83169   0.33855   0.00000  Uiso   1.00
C754   C     0.86431   0.83342   0.16141   0.00000  Uiso   1.00
C755   C     0.78312   0.82143   0.38940   0.00000  Uiso   1.00
C756   C     0.88487   0.83095   0.10949   0.00000  Uiso   1.00
C757   C     0.73363   0.77873   0.45690   0.00000  Uiso   1.00
C758   C     0.94926   0.84234   0.03185   0.00000  Uiso   1.00
C759   C     0.74175   0.79490   0.41165   0.00000  Uiso   1.00
C760   C     0.93368   0.84294   0.08117   0.00000  Uiso   1.00
C761   C     0.81455   0.83048   0.41238   0.00000  Uiso   1.00
C762   C     0.85385   0.81641   0.08797   0.00000  Uiso   1.00
C763   C     0.81182   0.80794   0.45223   0.00000  Uiso   1.00
C764   C     0.87015   0.81278   0.03882   0.00000  Uiso   1.00
C765   C     0.76885   0.78437   0.47662   0.00000  Uiso   1.00
C766   C     0.91742   0.82860   0.01073   0.00000  Uiso   1.00
C767   C     0.84999   0.80966   0.46930   0.00000  Uiso   1.00
C768   C     0.83864   0.79797   0.01699   0.00000  Uiso   1.00
H769   H     0.73023   0.74595   0.03749   0.00000  Uiso   1.00
H770   H     0.96898   0.84209   0.44029   0.00000  Uiso   1.00
H771   H     0.81583   0.81016   0.11001   0.00000  Uiso   1.00
H772   H     0.84320   0.85364   0.39689   0.00000  Uiso   1.00
H773   H     0.70115   0.76012   0.47608   0.00000  Uiso   1.00
H774   H     0.98591   0.85361   0.01011   0.00000  Uiso   1.00
H775   H     0.91173   0.70711   0.22036   0.00000  Uiso   1.00
H776   H     0.75536   0.95946   0.28040   0.00000  Uiso   1.00
H777   H     0.72837   0.78546   0.19941   0.00000  Uiso   1.00
H778   H     0.93889   0.88251   0.29903   0.00000  Uiso   1.00
N779   N     0.71426   0.83334   0.25001   0.00000  Uiso   1.00
N780   N     0.95241   0.83332   0.24999   0.00000  Uiso   1.00
O781   O     0.79512   0.89442   0.25001   0.00000  Uiso   1.00
O782   O     0.87154   0.77225   0.25000   0.00000  Uiso   1.00
O783   O     0.87157   0.89441   0.25000   0.00000  Uiso   1.00
O784   O     0.79510   0.77226   0.25000   0.00000  Uiso   1.00
O785   O     0.77328   0.83334   0.31613   0.00000  Uiso   1.00
O786   O     0.89339   0.83333   0.18388   0.00000  Uiso   1.00
O787   O     0.84972   0.83333   0.31612   0.00000  Uiso   1.00
O788   O     0.81695   0.83334   0.18388   0.00000  Uiso   1.00
Zn789  Zn    0.78229   0.83334   0.25000   0.00000  Uiso   1.00
Zn790  Zn    0.88438   0.83333   0.25000   0.00000  Uiso   1.00
N791   N     0.96585   0.85885   0.10179   0.00000  Uiso   1.00
H792   H     0.97887   0.88823   0.08955   0.00000  Uiso   1.00
C793   C     0.67217   0.83158   0.09812   0.00000  Uiso   1.00
H794   H     0.69915   0.83059   0.06093   0.00000  Uiso   1.00
H795   H     0.99121   0.79974   0.11011   0.00000  Uiso   1.00
H796   H     0.69116   0.84340   0.12068   0.00000  Uiso   1.00
N797   N     0.71082   0.78307   0.38743   0.00000  Uiso   1.00
H798   H     0.69557   0.80725   0.37619   0.00000  Uiso   1.00
C799   C     0.67959   0.74646   0.40297   0.00000  Uiso   1.00
H800   H     0.99845   0.73779   0.37587   0.00000  Uiso   1.00
H801   H     0.98134   0.75263   0.43660   0.00000  Uiso   1.00
H802   H     0.70093   0.71989   0.40745   0.00000  Uiso   1.00
N803   N     0.78942   0.74994   0.08284   0.00000  Uiso   1.00
H804   H     0.75341   0.74182   0.10309   0.00000  Uiso   1.00
C805   C     0.82248   0.71579   0.07662   0.00000  Uiso   1.00
H806   H     0.81581   0.69174   0.05374   0.00000  Uiso   1.00
H807   H     0.81612   0.70174   0.11164   0.00000  Uiso   1.00
H808   H     0.86134   0.72668   0.06045   0.00000  Uiso   1.00
N809   N     0.91748   0.82160   0.39012   0.00000  Uiso   1.00
H810   H     0.94858   0.83959   0.37333   0.00000  Uiso   1.00
C811   C     0.91861   0.78152   0.36821   0.00000  Uiso   1.00
H812   H     0.95551   0.77649   0.34012   0.00000  Uiso   1.00
H813   H     0.89161   0.78065   0.35131   0.00000  Uiso   1.00
H814   H     0.90983   0.75565   0.39434   0.00000  Uiso   1.00
N815   N     0.92593   0.96075   0.21446   0.00000  Uiso   1.00
H816   H     0.95264   0.97642   0.22216   0.00000  Uiso   1.00
C817   C     0.94286   0.94994   0.16500   0.00000  Uiso   1.00
H818   H     0.97796   0.93313   0.15462   0.00000  Uiso   1.00
H819   H     0.94919   0.97841   0.14282   0.00000  Uiso   1.00
H820   H     0.91552   0.92948   0.15855   0.00000  Uiso   1.00
N821   N     0.74118   0.70561   0.28503   0.00000  Uiso   1.00
H822   H     0.71954   0.69474   0.31836   0.00000  Uiso   1.00
C823   C     0.71501   0.70391   0.25374   0.00000  Uiso   1.00
H824   H     0.70328   0.67152   0.25061   0.00000  Uiso   1.00
H825   H     0.73870   0.71580   0.21800   0.00000  Uiso   1.00
H826   H     0.68181   0.72331   0.26829   0.00000  Uiso   1.00
F827   F     0.97449   0.77829   0.19569   0.00000  Uiso   1.00
F828   F     0.69176   0.88745   0.30553   0.00000  Uiso   1.00
C829   C     0.16733   0.24666   0.74943   0.00000  Uiso   1.00
C830   C     0.16606   0.08663   0.75047   0.00000  Uiso   1.00
C831   C     0.12957   0.10563   0.54055   0.00000  Uiso   1.00
C832   C     0.23258   0.15521   0.94056   0.00000  Uiso   1.00
C833   C     0.09557   0.09897   0.51968   0.00000  Uiso   1.00
C834   C     0.26543   0.16475   0.96190   0.00000  Uiso   1.00
C835   C     0.21271   0.31352   0.73244   0.00000  Uiso   1.00
C836   C     0.12105   0.01962   0.76660   0.00000  Uiso   1.00
C837   C     0.21083   0.02278   0.73355   0.00000  Uiso   1.00
C838   C     0.12293   0.31042   0.76654   0.00000  Uiso   1.00
C839   C     0.16551   0.04245   0.75023   0.00000  Uiso   1.00
C840   C     0.16815   0.29078   0.74914   0.00000  Uiso   1.00
C841   C     0.31998   0.13943   0.72260   0.00000  Uiso   1.00
C842   C     0.01333   0.19384   0.77751   0.00000  Uiso   1.00
C843   C     0.03476   0.13988   0.72211   0.00000  Uiso   1.00
C844   C     0.29886   0.19406   0.77716   0.00000  Uiso   1.00
C845   C     0.13571   0.16503   0.83855   0.00000  Uiso   1.00
C846   C     0.19764   0.16676   0.66141   0.00000  Uiso   1.00
C847   C     0.11646   0.15476   0.88940   0.00000  Uiso   1.00
C848   C     0.21821   0.16428   0.60949   0.00000  Uiso   1.00
C849   C     0.06697   0.11207   0.95690   0.00000  Uiso   1.00
C850   C     0.28259   0.17568   0.53185   0.00000  Uiso   1.00
C851   C     0.07508   0.12823   0.91165   0.00000  Uiso   1.00
C852   C     0.26701   0.17627   0.58117   0.00000  Uiso   1.00
C853   C     0.14788   0.16381   0.91238   0.00000  Uiso   1.00
C854   C     0.18718   0.14974   0.58797   0.00000  Uiso   1.00
C855   C     0.14515   0.14128   0.95223   0.00000  Uiso   1.00
C856   C     0.20348   0.14612   0.53882   0.00000  Uiso   1.00
C857   C     0.10218   0.11770   0.97662   0.00000  Uiso   1.00
C858   C     0.25076   0.16194   0.51073   0.00000  Uiso   1.00
C859   C     0.18332   0.14299   0.96930   0.00000  Uiso   1.00
C860   C     0.17197   0.13130   0.51699   0.00000  Uiso   1.00
H861   H     0.06356   0.07928   0.53749   0.00000  Uiso   1.00
H862   H     0.30232   0.17543   0.94029   0.00000  Uiso   1.00
H863   H     0.14916   0.14350   0.61001   0.00000  Uiso   1.00
H864   H     0.17654   0.18698   0.89689   0.00000  Uiso   1.00
H865   H     0.03448   0.09346   0.97608   0.00000  Uiso   1.00
H866   H     0.31924   0.18694   0.51011   0.00000  Uiso   1.00
H867   H     0.24507   0.04044   0.72036   0.00000  Uiso   1.00
H868   H     0.08869   0.29279   0.78040   0.00000  Uiso   1.00
H869   H     0.06170   0.11880   0.69941   0.00000  Uiso   1.00
H870   H     0.27223   0.21584   0.79903   0.00000  Uiso   1.00
N871   N     0.04759   0.16668   0.75001   0.00000  Uiso   1.00
N872   N     0.28574   0.16666   0.74999   0.00000  Uiso   1.00
O873   O     0.12846   0.22775   0.75001   0.00000  Uiso   1.00
O874   O     0.20488   0.10558   0.75000   0.00000  Uiso   1.00
O875   O     0.20490   0.22774   0.75000   0.00000  Uiso   1.00
O876   O     0.12843   0.10559   0.75000   0.00000  Uiso   1.00
O877   O     0.10661   0.16667   0.81613   0.00000  Uiso   1.00
O878   O     0.22672   0.16666   0.68388   0.00000  Uiso   1.00
O879   O     0.18305   0.16666   0.81612   0.00000  Uiso   1.00
O880   O     0.15028   0.16667   0.68388   0.00000  Uiso   1.00
Zn881  Zn    0.11562   0.16667   0.75000   0.00000  Uiso   1.00
Zn882  Zn    0.21771   0.16666   0.75000   0.00000  Uiso   1.00
N883   N     0.29919   0.19218   0.60179   0.00000  Uiso   1.00
H884   H     0.31220   0.22156   0.58955   0.00000  Uiso   1.00
C885   C     0.00551   0.16491   0.59812   0.00000  Uiso   1.00
H886   H     0.03248   0.16393   0.56093   0.00000  Uiso   1.00
H887   H     0.32454   0.13308   0.61011   0.00000  Uiso   1.00
H888   H     0.02450   0.17674   0.62068   0.00000  Uiso   1.00
N889   N     0.04416   0.11640   0.88743   0.00000  Uiso   1.00
H890   H     0.02891   0.14058   0.87619   0.00000  Uiso   1.00
C891   C     0.01293   0.07979   0.90297   0.00000  Uiso   1.00
H892   H     0.33178   0.07113   0.87587   0.00000  Uiso   1.00
H893   H     0.31468   0.08597   0.93660   0.00000  Uiso   1.00
H894   H     0.03426   0.05322   0.90745   0.00000  Uiso   1.00
N895   N     0.12276   0.08327   0.58284   0.00000  Uiso   1.00
H896   H     0.08674   0.07516   0.60309   0.00000  Uiso   1.00
C897   C     0.15582   0.04912   0.57662   0.00000  Uiso   1.00
H898   H     0.14914   0.02507   0.55374   0.00000  Uiso   1.00
H899   H     0.14945   0.03507   0.61164   0.00000  Uiso   1.00
H900   H     0.19467   0.06001   0.56045   0.00000  Uiso   1.00
N901   N     0.25081   0.15494   0.89012   0.00000  Uiso   1.00
H902   H     0.28192   0.17292   0.87333   0.00000  Uiso   1.00
C903   C     0.25194   0.11486   0.86821   0.00000  Uiso   1.00
H904   H     0.28884   0.10982   0.84012   0.00000  Uiso   1.00
H905   H     0.22494   0.11399   0.85131   0.00000  Uiso   1.00
H906   H     0.24317   0.08898   0.89434   0.00000  Uiso   1.00
N907   N     0.25927   0.29408   0.71446   0.00000  Uiso   1.00
H908   H     0.28597   0.30976   0.72216   0.00000  Uiso   1.00
C909   C     0.27619   0.28328   0.66500   0.00000  Uiso   1.00
H910   H     0.31130   0.26646   0.65462   0.00000  Uiso   1.00
H911   H     0.28252   0.31174   0.64282   0.00000  Uiso   1.00
H912   H     0.24885   0.26282   0.65855   0.00000  Uiso   1.00
N913   N     0.07452   0.03895   0.78503   0.00000  Uiso   1.00
H914   H     0.05288   0.02807   0.81836   0.00000  Uiso   1.00
C915   C     0.04835   0.03725   0.75374   0.00000  Uiso   1.00
H916   H     0.03661   0.00485   0.75061   0.00000  Uiso   1.00
H917   H     0.07204   0.04913   0.71800   0.00000  Uiso   1.00
H918   H     0.01514   0.05665   0.76829   0.00000  Uiso   1.00
F919   F     0.30782   0.11163   0.69569   0.00000  Uiso   1.00
F920   F     0.02509   0.22078   0.80553   0.00000  Uiso   1.00
C921   C     0.50066   0.24666   0.74943   0.00000  Uiso   1.00
C922   C     0.49939   0.08663   0.75047   0.00000  Uiso   1.00
C923   C     0.46290   0.10563   0.54055   0.00000  Uiso   1.00
C924   C     0.56592   0.15521   0.94056   0.00000  Uiso   1.00
C925   C     0.42890   0.09897   0.51968   0.00000  Uiso   1.00
C926   C     0.59877   0.16475   0.96190   0.00000  Uiso   1.00
C927   C     0.54604   0.31352   0.73244   0.00000  Uiso   1.00
C928   C     0.45438   0.01962   0.76660   0.00000  Uiso   1.00
C929   C     0.54416   0.02278   0.73355   0.00000  Uiso   1.00
C930   C     0.45627   0.31042   0.76654   0.00000  Uiso   1.00
C931   C     0.49884   0.04245   0.75023   0.00000  Uiso   1.00
C932   C     0.50148   0.29078   0.74914   0.00000  Uiso   1.00
C933   C     0.65331   0.13943   0.72260   0.00000  Uiso   1.00
C934   C     0.34667   0.19384   0.77751   0.00000  Uiso   1.00
C935   C     0.36809   0.13988   0.72211   0.00000  Uiso   1.00
C936   C     0.63220   0.19406   0.77716   0.00000  Uiso   1.00
C937   C     0.46904   0.16503   0.83855   0.00000  Uiso   1.00
C938   C     0.53097   0.16676   0.66141   0.00000  Uiso   1.00
C939   C     0.44979   0.15476   0.88940   0.00000  Uiso   1.00
C940   C     0.55154   0.16428   0.60949   0.00000  Uiso   1.00
C941   C     0.40030   0.11207   0.95690   0.00000  Uiso   1.00
C942   C     0.61592   0.17568   0.53185   0.00000  Uiso   1.00
C943   C     0.40842   0.12823   0.91165   0.00000  Uiso   1.00
C944   C     0.60035   0.17627   0.58117   0.00000  Uiso   1.00
C945   C     0.48122   0.16381   0.91238   0.00000  Uiso   1.00
C946   C     0.52052   0.14974   0.58797   0.00000  Uiso   1.00
C947   C     0.47848   0.14128   0.95223   0.00000  Uiso   1.00
C948   C     0.53681   0.14612   0.53882   0.00000  Uiso   1.00
C949   C     0.43551   0.11770   0.97662   0.00000  Uiso   1.00
C950   C     0.58409   0.16194   0.51073   0.00000  Uiso   1.00
C951   C     0.51666   0.14299   0.96930   0.00000  Uiso   1.00
C952   C     0.50530   0.13130   0.51699   0.00000  Uiso   1.00
H953   H     0.39690   0.07928   0.53749   0.00000  Uiso   1.00
H954   H     0.63565   0.17543   0.94029   0.00000  Uiso   1.00
H955   H     0.48250   0.14350   0.61001   0.00000  Uiso   1.00
H956   H     0.50987   0.18698   0.89689   0.00000  Uiso   1.00
H957   H     0.36781   0.09346   0.97608   0.00000  Uiso   1.00
H958   H     0.65257   0.18694   0.51011   0.00000  Uiso   1.00
H959   H     0.57840   0.04044   0.72036   0.00000  Uiso   1.00
H960   H     0.42202   0.29279   0.78040   0.00000  Uiso   1.00
H961   H     0.39504   0.11880   0.69941   0.00000  Uiso   1.00
H962   H     0.60556   0.21584   0.79903   0.00000  Uiso   1.00
N963   N     0.38093   0.16668   0.75001   0.00000  Uiso   1.00
N964   N     0.61907   0.16666   0.74999   0.00000  Uiso   1.00
O965   O     0.46179   0.22775   0.75001   0.00000  Uiso   1.00
O966   O     0.53821   0.10558   0.75000   0.00000  Uiso   1.00
O967   O     0.53823   0.22774   0.75000   0.00000  Uiso   1.00
O968   O     0.46177   0.10559   0.75000   0.00000  Uiso   1.00
O969   O     0.43994   0.16667   0.81613   0.00000  Uiso   1.00
O970   O     0.56006   0.16666   0.68388   0.00000  Uiso   1.00
O971   O     0.51639   0.16666   0.81612   0.00000  Uiso   1.00
O972   O     0.48361   0.16667   0.68388   0.00000  Uiso   1.00
Zn973  Zn    0.44896   0.16667   0.75000   0.00000  Uiso   1.00
Zn974  Zn    0.55104   0.16666   0.75000   0.00000  Uiso   1.00
N975   N     0.63252   0.19218   0.60179   0.00000  Uiso   1.00
H976   H     0.64554   0.22156   0.58955   0.00000  Uiso   1.00
C977   C     0.33884   0.16491   0.59812   0.00000  Uiso   1.00
H978   H     0.36582   0.16393   0.56093   0.00000  Uiso   1.00
H979   H     0.65788   0.13308   0.61011   0.00000  Uiso   1.00
H980   H     0.35783   0.17674   0.62068   0.00000  Uiso   1.00
N981   N     0.37749   0.11640   0.88743   0.00000  Uiso   1.00
H982   H     0.36224   0.14058   0.87619   0.00000  Uiso   1.00
C983   C     0.34626   0.07979   0.90297   0.00000  Uiso   1.00
H984   H     0.66512   0.07113   0.87587   0.00000  Uiso   1.00
H985   H     0.64801   0.08597   0.93660   0.00000  Uiso   1.00
H986   H     0.36759   0.05322   0.90745   0.00000  Uiso   1.00
N987   N     0.45609   0.08327   0.58284   0.00000  Uiso   1.00
H988   H     0.42007   0.07516   0.60309   0.00000  Uiso   1.00
C989   C     0.48915   0.04912   0.57662   0.00000  Uiso   1.00
H990   H     0.48247   0.02507   0.55374   0.00000  Uiso   1.00
H991   H     0.48278   0.03507   0.61164   0.00000  Uiso   1.00
H992   H     0.52801   0.06001   0.56045   0.00000  Uiso   1.00
N993   N     0.58414   0.15494   0.89012   0.00000  Uiso   1.00
H994   H     0.61525   0.17292   0.87333   0.00000  Uiso   1.00
C995   C     0.58528   0.11486   0.86821   0.00000  Uiso   1.00
H996   H     0.62218   0.10982   0.84012   0.00000  Uiso   1.00
H997   H     0.55827   0.11399   0.85131   0.00000  Uiso   1.00
H998   H     0.57650   0.08898   0.89434   0.00000  Uiso   1.00
N999   N     0.59260   0.29408   0.71446   0.00000  Uiso   1.00
H1000  H     0.61930   0.30976   0.72216   0.00000  Uiso   1.00
C1001  C     0.60953   0.28328   0.66500   0.00000  Uiso   1.00
H1002  H     0.64463   0.26646   0.65462   0.00000  Uiso   1.00
H1003  H     0.61586   0.31174   0.64282   0.00000  Uiso   1.00
H1004  H     0.58218   0.26282   0.65855   0.00000  Uiso   1.00
N1005  N     0.40785   0.03895   0.78503   0.00000  Uiso   1.00
H1006  H     0.38621   0.02807   0.81836   0.00000  Uiso   1.00
C1007  C     0.38168   0.03725   0.75374   0.00000  Uiso   1.00
H1008  H     0.36995   0.00485   0.75061   0.00000  Uiso   1.00
H1009  H     0.40537   0.04913   0.71800   0.00000  Uiso   1.00
H1010  H     0.34847   0.05665   0.76829   0.00000  Uiso   1.00
F1011  F     0.64116   0.11163   0.69569   0.00000  Uiso   1.00
F1012  F     0.35842   0.22078   0.80553   0.00000  Uiso   1.00
C1013  C     0.83400   0.24666   0.74943   0.00000  Uiso   1.00
C1014  C     0.83272   0.08663   0.75047   0.00000  Uiso   1.00
C1015  C     0.79624   0.10563   0.54055   0.00000  Uiso   1.00
C1016  C     0.89925   0.15521   0.94056   0.00000  Uiso   1.00
C1017  C     0.76224   0.09897   0.51968   0.00000  Uiso   1.00
C1018  C     0.93210   0.16475   0.96190   0.00000  Uiso   1.00
C1019  C     0.87937   0.31352   0.73244   0.00000  Uiso   1.00
C1020  C     0.78772   0.01962   0.76660   0.00000  Uiso   1.00
C1021  C     0.87750   0.02278   0.73355   0.00000  Uiso   1.00
C1022  C     0.78960   0.31042   0.76654   0.00000  Uiso   1.00
C1023  C     0.83218   0.04245   0.75023   0.00000  Uiso   1.00
C1024  C     0.83482   0.29078   0.74914   0.00000  Uiso   1.00
C1025  C     0.98665   0.13943   0.72260   0.00000  Uiso   1.00
C1026  C     0.68000   0.19384   0.77751   0.00000  Uiso   1.00
C1027  C     0.70142   0.13988   0.72211   0.00000  Uiso   1.00
C1028  C     0.96553   0.19406   0.77716   0.00000  Uiso   1.00
C1029  C     0.80238   0.16503   0.83855   0.00000  Uiso   1.00
C1030  C     0.86431   0.16676   0.66141   0.00000  Uiso   1.00
C1031  C     0.78312   0.15476   0.88940   0.00000  Uiso   1.00
C1032  C     0.88487   0.16428   0.60949   0.00000  Uiso   1.00
C1033  C     0.73363   0.11207   0.95690   0.00000  Uiso   1.00
C1034  C     0.94926   0.17568   0.53185   0.00000  Uiso   1.00
C1035  C     0.74175   0.12823   0.91165   0.00000  Uiso   1.00
C1036  C     0.93368   0.17627   0.58117   0.00000  Uiso   1.00
C1037  C     0.81455   0.16381   0.91238   0.00000  Uiso   1.00
C1038  C     0.85385   0.14974   0.58797   0.00000  Uiso   1.00
C1039  C     0.81182   0.14128   0.95223   0.00000  Uiso   1.00
C1040  C     0.87015   0.14612   0.53882   0.00000  Uiso   1.00
C1041  C     0.76885   0.11770   0.97662   0.00000  Uiso   1.00
C1042  C     0.91742   0.16194   0.51073   0.00000  Uiso   1.00
C1043  C     0.84999   0.14299   0.96930   0.00000  Uiso   1.00
C1044  C     0.83864   0.13130   0.51699   0.00000  Uiso   1.00
H1045  H     0.73023   0.07928   0.53749   0.00000  Uiso   1.00
H1046  H     0.96898   0.17543   0.94029   0.00000  Uiso   1.00
H1047  H     0.81583   0.14350   0.61001   0.00000  Uiso   1.00
H1048  H     0.84320   0.18698   0.89689   0.00000  Uiso   1.00
H1049  H     0.70115   0.09346   0.97608   0.00000  Uiso   1.00
H1050  H     0.98591   0.18694   0.51011   0.00000  Uiso   1.00
H1051  H     0.91173   0.04044   0.72036   0.00000  Uiso   1.00
H1052  H     0.75536   0.29279   0.78040   0.00000  Uiso   1.00
H1053  H     0.72837   0.11880   0.69941   0.00000  Uiso   1.00
H1054  H     0.93889   0.21584   0.79903   0.00000  Uiso   1.00
N1055  N     0.71426   0.16668   0.75001   0.00000  Uiso   1.00
N1056  N     0.95241   0.16666   0.74999   0.00000  Uiso   1.00
O1057  O     0.79512   0.22775   0.75001   0.00000  Uiso   1.00
O1058  O     0.87154   0.10558   0.75000   0.00000  Uiso   1.00
O1059  O     0.87157   0.22774   0.75000   0.00000  Uiso   1.00
O1060  O     0.79510   0.10559   0.75000   0.00000  Uiso   1.00
O1061  O     0.77328   0.16667   0.81613   0.00000  Uiso   1.00
O1062  O     0.89339   0.16666   0.68388   0.00000  Uiso   1.00
O1063  O     0.84972   0.16666   0.81612   0.00000  Uiso   1.00
O1064  O     0.81695   0.16667   0.68388   0.00000  Uiso   1.00
Zn1065 Zn    0.78229   0.16667   0.75000   0.00000  Uiso   1.00
Zn1066 Zn    0.88438   0.16666   0.75000   0.00000  Uiso   1.00
N1067  N     0.96585   0.19218   0.60179   0.00000  Uiso   1.00
H1068  H     0.97887   0.22156   0.58955   0.00000  Uiso   1.00
C1069  C     0.67217   0.16491   0.59812   0.00000  Uiso   1.00
H1070  H     0.69915   0.16393   0.56093   0.00000  Uiso   1.00
H1071  H     0.99121   0.13308   0.61011   0.00000  Uiso   1.00
H1072  H     0.69116   0.17674   0.62068   0.00000  Uiso   1.00
N1073  N     0.71082   0.11640   0.88743   0.00000  Uiso   1.00
H1074  H     0.69557   0.14058   0.87619   0.00000  Uiso   1.00
C1075  C     0.67959   0.07979   0.90297   0.00000  Uiso   1.00
H1076  H     0.99845   0.07113   0.87587   0.00000  Uiso   1.00
H1077  H     0.98134   0.08597   0.93660   0.00000  Uiso   1.00
H1078  H     0.70093   0.05322   0.90745   0.00000  Uiso   1.00
N1079  N     0.78942   0.08327   0.58284   0.00000  Uiso   1.00
H1080  H     0.75341   0.07516   0.60309   0.00000  Uiso   1.00
C1081  C     0.82248   0.04912   0.57662   0.00000  Uiso   1.00
H1082  H     0.81581   0.02507   0.55374   0.00000  Uiso   1.00
H1083  H     0.81612   0.03507   0.61164   0.00000  Uiso   1.00
H1084  H     0.86134   0.06001   0.56045   0.00000  Uiso   1.00
N1085  N     0.91748   0.15494   0.89012   0.00000  Uiso   1.00
H1086  H     0.94858   0.17292   0.87333   0.00000  Uiso   1.00
C1087  C     0.91861   0.11486   0.86821   0.00000  Uiso   1.00
H1088  H     0.95551   0.10982   0.84012   0.00000  Uiso   1.00
H1089  H     0.89161   0.11399   0.85131   0.00000  Uiso   1.00
H1090  H     0.90983   0.08898   0.89434   0.00000  Uiso   1.00
N1091  N     0.92593   0.29408   0.71446   0.00000  Uiso   1.00
H1092  H     0.95264   0.30976   0.72216   0.00000  Uiso   1.00
C1093  C     0.94286   0.28328   0.66500   0.00000  Uiso   1.00
H1094  H     0.97796   0.26646   0.65462   0.00000  Uiso   1.00
H1095  H     0.94919   0.31174   0.64282   0.00000  Uiso   1.00
H1096  H     0.91552   0.26282   0.65855   0.00000  Uiso   1.00
N1097  N     0.74118   0.03895   0.78503   0.00000  Uiso   1.00
H1098  H     0.71954   0.02807   0.81836   0.00000  Uiso   1.00
C1099  C     0.71501   0.03725   0.75374   0.00000  Uiso   1.00
H1100  H     0.70328   0.00485   0.75061   0.00000  Uiso   1.00
H1101  H     0.73870   0.04913   0.71800   0.00000  Uiso   1.00
H1102  H     0.68181   0.05665   0.76829   0.00000  Uiso   1.00
F1103  F     0.97449   0.11163   0.69569   0.00000  Uiso   1.00
F1104  F     0.69176   0.22078   0.80553   0.00000  Uiso   1.00
C1105  C     0.16733   0.57999   0.74943   0.00000  Uiso   1.00
C1106  C     0.16606   0.41996   0.75047   0.00000  Uiso   1.00
C1107  C     0.12957   0.43896   0.54055   0.00000  Uiso   1.00
C1108  C     0.23258   0.48854   0.94056   0.00000  Uiso   1.00
C1109  C     0.09557   0.43230   0.51968   0.00000  Uiso   1.00
C1110  C     0.26543   0.49809   0.96190   0.00000  Uiso   1.00
C1111  C     0.21271   0.64686   0.73244   0.00000  Uiso   1.00
C1112  C     0.12105   0.35295   0.76660   0.00000  Uiso   1.00
C1113  C     0.21083   0.35612   0.73355   0.00000  Uiso   1.00
C1114  C     0.12293   0.64375   0.76654   0.00000  Uiso   1.00
C1115  C     0.16551   0.37578   0.75023   0.00000  Uiso   1.00
C1116  C     0.16815   0.62411   0.74914   0.00000  Uiso   1.00
C1117  C     0.31998   0.47276   0.72260   0.00000  Uiso   1.00
C1118  C     0.01333   0.52718   0.77751   0.00000  Uiso   1.00
C1119  C     0.03476   0.47321   0.72211   0.00000  Uiso   1.00
C1120  C     0.29886   0.52739   0.77716   0.00000  Uiso   1.00
C1121  C     0.13571   0.49836   0.83855   0.00000  Uiso   1.00
C1122  C     0.19764   0.50009   0.66141   0.00000  Uiso   1.00
C1123  C     0.11646   0.48810   0.88940   0.00000  Uiso   1.00
C1124  C     0.21821   0.49762   0.60949   0.00000  Uiso   1.00
C1125  C     0.06697   0.44540   0.95690   0.00000  Uiso   1.00
C1126  C     0.28259   0.50901   0.53185   0.00000  Uiso   1.00
C1127  C     0.07508   0.46156   0.91165   0.00000  Uiso   1.00
C1128  C     0.26701   0.50960   0.58117   0.00000  Uiso   1.00
C1129  C     0.14788   0.49714   0.91238   0.00000  Uiso   1.00
C1130  C     0.18718   0.48307   0.58797   0.00000  Uiso   1.00
C1131  C     0.14515   0.47461   0.95223   0.00000  Uiso   1.00
C1132  C     0.20348   0.47945   0.53882   0.00000  Uiso   1.00
C1133  C     0.10218   0.45103   0.97662   0.00000  Uiso   1.00
C1134  C     0.25076   0.49527   0.51073   0.00000  Uiso   1.00
C1135  C     0.18332   0.47632   0.96930   0.00000  Uiso   1.00
C1136  C     0.17197   0.46464   0.51699   0.00000  Uiso   1.00
H1137  H     0.06356   0.41261   0.53749   0.00000  Uiso   1.00
H1138  H     0.30232   0.50876   0.94029   0.00000  Uiso   1.00
H1139  H     0.14916   0.47683   0.61001   0.00000  Uiso   1.00
H1140  H     0.17654   0.52031   0.89689   0.00000  Uiso   1.00
H1141  H     0.03448   0.42679   0.97608   0.00000  Uiso   1.00
H1142  H     0.31924   0.52027   0.51011   0.00000  Uiso   1.00
H1143  H     0.24507   0.37378   0.72036   0.00000  Uiso   1.00
H1144  H     0.08869   0.62612   0.78040   0.00000  Uiso   1.00
H1145  H     0.06170   0.45213   0.69941   0.00000  Uiso   1.00
H1146  H     0.27223   0.54917   0.79903   0.00000  Uiso   1.00
N1147  N     0.04759   0.50001   0.75001   0.00000  Uiso   1.00
N1148  N     0.28574   0.49999   0.74999   0.00000  Uiso   1.00
O1149  O     0.12846   0.56108   0.75001   0.00000  Uiso   1.00
O1150  O     0.20488   0.43892   0.75000   0.00000  Uiso   1.00
O1151  O     0.20490   0.56107   0.75000   0.00000  Uiso   1.00
O1152  O     0.12843   0.43893   0.75000   0.00000  Uiso   1.00
O1153  O     0.10661   0.50001   0.81613   0.00000  Uiso   1.00
O1154  O     0.22672   0.49999   0.68388   0.00000  Uiso   1.00
O1155  O     0.18305   0.50000   0.81612   0.00000  Uiso   1.00
O1156  O     0.15028   0.50000   0.68388   0.00000  Uiso   1.00
Zn1157 Zn    0.11562   0.50001   0.75000   0.00000  Uiso   1.00
Zn1158 Zn    0.21771   0.49999   0.75000   0.00000  Uiso   1.00
N1159  N     0.29919   0.52552   0.60179   0.00000  Uiso   1.00
H1160  H     0.31220   0.55489   0.58955   0.00000  Uiso   1.00
C1161  C     0.00551   0.49825   0.59812   0.00000  Uiso   1.00
H1162  H     0.03248   0.49726   0.56093   0.00000  Uiso   1.00
H1163  H     0.32454   0.46641   0.61011   0.00000  Uiso   1.00
H1164  H     0.02450   0.51007   0.62068   0.00000  Uiso   1.00
N1165  N     0.04416   0.44974   0.88743   0.00000  Uiso   1.00
H1166  H     0.02891   0.47392   0.87619   0.00000  Uiso   1.00
C1167  C     0.01293   0.41312   0.90297   0.00000  Uiso   1.00
H1168  H     0.33178   0.40446   0.87587   0.00000  Uiso   1.00
H1169  H     0.31468   0.41930   0.93660   0.00000  Uiso   1.00
H1170  H     0.03426   0.38655   0.90745   0.00000  Uiso   1.00
N1171  N     0.12276   0.41661   0.58284   0.00000  Uiso   1.00
H1172  H     0.08674   0.40849   0.60309   0.00000  Uiso   1.00
C1173  C     0.15582   0.38245   0.57662   0.00000  Uiso   1.00
H1174  H     0.14914   0.35841   0.55374   0.00000  Uiso   1.00
H1175  H     0.14945   0.36841   0.61164   0.00000  Uiso   1.00
H1176  H     0.19467   0.39334   0.56045   0.00000  Uiso   1.00
N1177  N     0.25081   0.48827   0.89012   0.00000  Uiso   1.00
H1178  H     0.28192   0.50626   0.87333   0.00000  Uiso   1.00
C1179  C     0.25194   0.44819   0.86821   0.00000  Uiso   1.00
H1180  H     0.28884   0.44315   0.84012   0.00000  Uiso   1.00
H1181  H     0.22494   0.44732   0.85131   0.00000  Uiso   1.00
H1182  H     0.24317   0.42231   0.89434   0.00000  Uiso   1.00
N1183  N     0.25927   0.62742   0.71446   0.00000  Uiso   1.00
H1184  H     0.28597   0.64309   0.72216   0.00000  Uiso   1.00
C1185  C     0.27619   0.61661   0.66500   0.00000  Uiso   1.00
H1186  H     0.31130   0.59980   0.65462   0.00000  Uiso   1.00
H1187  H     0.28252   0.64507   0.64282   0.00000  Uiso   1.00
H1188  H     0.24885   0.59615   0.65855   0.00000  Uiso   1.00
N1189  N     0.07452   0.37228   0.78503   0.00000  Uiso   1.00
H1190  H     0.05288   0.36141   0.81836   0.00000  Uiso   1.00
C1191  C     0.04835   0.37058   0.75374   0.00000  Uiso   1.00
H1192  H     0.03661   0.33818   0.75061   0.00000  Uiso   1.00
H1193  H     0.07204   0.38246   0.71800   0.00000  Uiso   1.00
H1194  H     0.01514   0.38998   0.76829   0.00000  Uiso   1.00
F1195  F     0.30782   0.44496   0.69569   0.00000  Uiso   1.00
F1196  F     0.02509   0.55412   0.80553   0.00000  Uiso   1.00
C1197  C     0.50066   0.57999   0.74943   0.00000  Uiso   1.00
C1198  C     0.49939   0.41996   0.75047   0.00000  Uiso   1.00
C1199  C     0.46290   0.43896   0.54055   0.00000  Uiso   1.00
C1200  C     0.56592   0.48854   0.94056   0.00000  Uiso   1.00
C1201  C     0.42890   0.43230   0.51968   0.00000  Uiso   1.00
C1202  C     0.59877   0.49809   0.96190   0.00000  Uiso   1.00
C1203  C     0.54604   0.64686   0.73244   0.00000  Uiso   1.00
C1204  C     0.45438   0.35295   0.76660   0.00000  Uiso   1.00
C1205  C     0.54416   0.35612   0.73355   0.00000  Uiso   1.00
C1206  C     0.45627   0.64375   0.76654   0.00000  Uiso   1.00
C1207  C     0.49884   0.37578   0.75023   0.00000  Uiso   1.00
C1208  C     0.50148   0.62411   0.74914   0.00000  Uiso   1.00
C1209  C     0.65331   0.47276   0.72260   0.00000  Uiso   1.00
C1210  C     0.34667   0.52718   0.77751   0.00000  Uiso   1.00
C1211  C     0.36809   0.47321   0.72211   0.00000  Uiso   1.00
C1212  C     0.63220   0.52739   0.77716   0.00000  Uiso   1.00
C1213  C     0.46904   0.49836   0.83855   0.00000  Uiso   1.00
C1214  C     0.53097   0.50009   0.66141   0.00000  Uiso   1.00
C1215  C     0.44979   0.48810   0.88940   0.00000  Uiso   1.00
C1216  C     0.55154   0.49762   0.60949   0.00000  Uiso   1.00
C1217  C     0.40030   0.44540   0.95690   0.00000  Uiso   1.00
C1218  C     0.61592   0.50901   0.53185   0.00000  Uiso   1.00
C1219  C     0.40842   0.46156   0.91165   0.00000  Uiso   1.00
C1220  C     0.60035   0.50960   0.58117   0.00000  Uiso   1.00
C1221  C     0.48122   0.49714   0.91238   0.00000  Uiso   1.00
C1222  C     0.52052   0.48307   0.58797   0.00000  Uiso   1.00
C1223  C     0.47848   0.47461   0.95223   0.00000  Uiso   1.00
C1224  C     0.53681   0.47945   0.53882   0.00000  Uiso   1.00
C1225  C     0.43551   0.45103   0.97662   0.00000  Uiso   1.00
C1226  C     0.58409   0.49527   0.51073   0.00000  Uiso   1.00
C1227  C     0.51666   0.47632   0.96930   0.00000  Uiso   1.00
C1228  C     0.50530   0.46464   0.51699   0.00000  Uiso   1.00
H1229  H     0.39690   0.41261   0.53749   0.00000  Uiso   1.00
H1230  H     0.63565   0.50876   0.94029   0.00000  Uiso   1.00
H1231  H     0.48250   0.47683   0.61001   0.00000  Uiso   1.00
H1232  H     0.50987   0.52031   0.89689   0.00000  Uiso   1.00
H1233  H     0.36781   0.42679   0.97608   0.00000  Uiso   1.00
H1234  H     0.65257   0.52027   0.51011   0.00000  Uiso   1.00
H1235  H     0.57840   0.37378   0.72036   0.00000  Uiso   1.00
H1236  H     0.42202   0.62612   0.78040   0.00000  Uiso   1.00
H1237  H     0.39504   0.45213   0.69941   0.00000  Uiso   1.00
H1238  H     0.60556   0.54917   0.79903   0.00000  Uiso   1.00
N1239  N     0.38093   0.50001   0.75001   0.00000  Uiso   1.00
N1240  N     0.61907   0.49999   0.74999   0.00000  Uiso   1.00
O1241  O     0.46179   0.56108   0.75001   0.00000  Uiso   1.00
O1242  O     0.53821   0.43892   0.75000   0.00000  Uiso   1.00
O1243  O     0.53823   0.56107   0.75000   0.00000  Uiso   1.00
O1244  O     0.46177   0.43893   0.75000   0.00000  Uiso   1.00
O1245  O     0.43994   0.50001   0.81613   0.00000  Uiso   1.00
O1246  O     0.56006   0.49999   0.68388   0.00000  Uiso   1.00
O1247  O     0.51639   0.50000   0.81612   0.00000  Uiso   1.00
O1248  O     0.48361   0.50000   0.68388   0.00000  Uiso   1.00
Zn1249 Zn    0.44896   0.50001   0.75000   0.00000  Uiso   1.00
Zn1250 Zn    0.55104   0.49999   0.75000   0.00000  Uiso   1.00
N1251  N     0.63252   0.52552   0.60179   0.00000  Uiso   1.00
H1252  H     0.64554   0.55489   0.58955   0.00000  Uiso   1.00
C1253  C     0.33884   0.49825   0.59812   0.00000  Uiso   1.00
H1254  H     0.36582   0.49726   0.56093   0.00000  Uiso   1.00
H1255  H     0.65788   0.46641   0.61011   0.00000  Uiso   1.00
H1256  H     0.35783   0.51007   0.62068   0.00000  Uiso   1.00
N1257  N     0.37749   0.44974   0.88743   0.00000  Uiso   1.00
H1258  H     0.36224   0.47392   0.87619   0.00000  Uiso   1.00
C1259  C     0.34626   0.41312   0.90297   0.00000  Uiso   1.00
H1260  H     0.66512   0.40446   0.87587   0.00000  Uiso   1.00
H1261  H     0.64801   0.41930   0.93660   0.00000  Uiso   1.00
H1262  H     0.36759   0.38655   0.90745   0.00000  Uiso   1.00
N1263  N     0.45609   0.41661   0.58284   0.00000  Uiso   1.00
H1264  H     0.42007   0.40849   0.60309   0.00000  Uiso   1.00
C1265  C     0.48915   0.38245   0.57662   0.00000  Uiso   1.00
H1266  H     0.48247   0.35841   0.55374   0.00000  Uiso   1.00
H1267  H     0.48278   0.36841   0.61164   0.00000  Uiso   1.00
H1268  H     0.52801   0.39334   0.56045   0.00000  Uiso   1.00
N1269  N     0.58414   0.48827   0.89012   0.00000  Uiso   1.00
H1270  H     0.61525   0.50626   0.87333   0.00000  Uiso   1.00
C1271  C     0.58528   0.44819   0.86821   0.00000  Uiso   1.00
H1272  H     0.62218   0.44315   0.84012   0.00000  Uiso   1.00
H1273  H     0.55827   0.44732   0.85131   0.00000  Uiso   1.00
H1274  H     0.57650   0.42231   0.89434   0.00000  Uiso   1.00
N1275  N     0.59260   0.62742   0.71446   0.00000  Uiso   1.00
H1276  H     0.61930   0.64309   0.72216   0.00000  Uiso   1.00
C1277  C     0.60953   0.61661   0.66500   0.00000  Uiso   1.00
H1278  H     0.64463   0.59980   0.65462   0.00000  Uiso   1.00
H1279  H     0.61586   0.64507   0.64282   0.00000  Uiso   1.00
H1280  H     0.58218   0.59615   0.65855   0.00000  Uiso   1.00
N1281  N     0.40785   0.37228   0.78503   0.00000  Uiso   1.00
H1282  H     0.38621   0.36141   0.81836   0.00000  Uiso   1.00
C1283  C     0.38168   0.37058   0.75374   0.00000  Uiso   1.00
H1284  H     0.36995   0.33818   0.75061   0.00000  Uiso   1.00
H1285  H     0.40537   0.38246   0.71800   0.00000  Uiso   1.00
H1286  H     0.34847   0.38998   0.76829   0.00000  Uiso   1.00
F1287  F     0.64116   0.44496   0.69569   0.00000  Uiso   1.00
F1288  F     0.35842   0.55412   0.80553   0.00000  Uiso   1.00
C1289  C     0.83400   0.57999   0.74943   0.00000  Uiso   1.00
C1290  C     0.83272   0.41996   0.75047   0.00000  Uiso   1.00
C1291  C     0.79624   0.43896   0.54055   0.00000  Uiso   1.00
C1292  C     0.89925   0.48854   0.94056   0.00000  Uiso   1.00
C1293  C     0.76224   0.43230   0.51968   0.00000  Uiso   1.00
C1294  C     0.93210   0.49809   0.96190   0.00000  Uiso   1.00
C1295  C     0.87937   0.64686   0.73244   0.00000  Uiso   1.00
C1296  C     0.78772   0.35295   0.76660   0.00000  Uiso   1.00
C1297  C     0.87750   0.35612   0.73355   0.00000  Uiso   1.00
C1298  C     0.78960   0.64375   0.76654   0.00000  Uiso   1.00
C1299  C     0.83218   0.37578   0.75023   0.00000  Uiso   1.00
C1300  C     0.83482   0.62411   0.74914   0.00000  Uiso   1.00
C1301  C     0.98665   0.47276   0.72260   0.00000  Uiso   1.00
C1302  C     0.68000   0.52718   0.77751   0.00000  Uiso   1.00
C1303  C     0.70142   0.47321   0.72211   0.00000  Uiso   1.00
C1304  C     0.96553   0.52739   0.77716   0.00000  Uiso   1.00
C1305  C     0.80238   0.49836   0.83855   0.00000  Uiso   1.00
C1306  C     0.86431   0.50009   0.66141   0.00000  Uiso   1.00
C1307  C     0.78312   0.48810   0.88940   0.00000  Uiso   1.00
C1308  C     0.88487   0.49762   0.60949   0.00000  Uiso   1.00
C1309  C     0.73363   0.44540   0.95690   0.00000  Uiso   1.00
C1310  C     0.94926   0.50901   0.53185   0.00000  Uiso   1.00
C1311  C     0.74175   0.46156   0.91165   0.00000  Uiso   1.00
C1312  C     0.93368   0.50960   0.58117   0.00000  Uiso   1.00
C1313  C     0.81455   0.49714   0.91238   0.00000  Uiso   1.00
C1314  C     0.85385   0.48307   0.58797   0.00000  Uiso   1.00
C1315  C     0.81182   0.47461   0.95223   0.00000  Uiso   1.00
C1316  C     0.87015   0.47945   0.53882   0.00000  Uiso   1.00
C1317  C     0.76885   0.45103   0.97662   0.00000  Uiso   1.00
C1318  C     0.91742   0.49527   0.51073   0.00000  Uiso   1.00
C1319  C     0.84999   0.47632   0.96930   0.00000  Uiso   1.00
C1320  C     0.83864   0.46464   0.51699   0.00000  Uiso   1.00
H1321  H     0.73023   0.41261   0.53749   0.00000  Uiso   1.00
H1322  H     0.96898   0.50876   0.94029   0.00000  Uiso   1.00
H1323  H     0.81583   0.47683   0.61001   0.00000  Uiso   1.00
H1324  H     0.84320   0.52031   0.89689   0.00000  Uiso   1.00
H1325  H     0.70115   0.42679   0.97608   0.00000  Uiso   1.00
H1326  H     0.98591   0.52027   0.51011   0.00000  Uiso   1.00
H1327  H     0.91173   0.37378   0.72036   0.00000  Uiso   1.00
H1328  H     0.75536   0.62612   0.78040   0.00000  Uiso   1.00
H1329  H     0.72837   0.45213   0.69941   0.00000  Uiso   1.00
H1330  H     0.93889   0.54917   0.79903   0.00000  Uiso   1.00
N1331  N     0.71426   0.50001   0.75001   0.00000  Uiso   1.00
N1332  N     0.95241   0.49999   0.74999   0.00000  Uiso   1.00
O1333  O     0.79512   0.56108   0.75001   0.00000  Uiso   1.00
O1334  O     0.87154   0.43892   0.75000   0.00000  Uiso   1.00
O1335  O     0.87157   0.56107   0.75000   0.00000  Uiso   1.00
O1336  O     0.79510   0.43893   0.75000   0.00000  Uiso   1.00
O1337  O     0.77328   0.50001   0.81613   0.00000  Uiso   1.00
O1338  O     0.89339   0.49999   0.68388   0.00000  Uiso   1.00
O1339  O     0.84972   0.50000   0.81612   0.00000  Uiso   1.00
O1340  O     0.81695   0.50000   0.68388   0.00000  Uiso   1.00
Zn1341 Zn    0.78229   0.50001   0.75000   0.00000  Uiso   1.00
Zn1342 Zn    0.88438   0.49999   0.75000   0.00000  Uiso   1.00
N1343  N     0.96585   0.52552   0.60179   0.00000  Uiso   1.00
H1344  H     0.97887   0.55489   0.58955   0.00000  Uiso   1.00
C1345  C     0.67217   0.49825   0.59812   0.00000  Uiso   1.00
H1346  H     0.69915   0.49726   0.56093   0.00000  Uiso   1.00
H1347  H     0.99121   0.46641   0.61011   0.00000  Uiso   1.00
H1348  H     0.69116   0.51007   0.62068   0.00000  Uiso   1.00
N1349  N     0.71082   0.44974   0.88743   0.00000  Uiso   1.00
H1350  H     0.69557   0.47392   0.87619   0.00000  Uiso   1.00
C1351  C     0.67959   0.41312   0.90297   0.00000  Uiso   1.00
H1352  H     0.99845   0.40446   0.87587   0.00000  Uiso   1.00
H1353  H     0.98134   0.41930   0.93660   0.00000  Uiso   1.00
H1354  H     0.70093   0.38655   0.90745   0.00000  Uiso   1.00
N1355  N     0.78942   0.41661   0.58284   0.00000  Uiso   1.00
H1356  H     0.75341   0.40849   0.60309   0.00000  Uiso   1.00
C1357  C     0.82248   0.38245   0.57662   0.00000  Uiso   1.00
H1358  H     0.81581   0.35841   0.55374   0.00000  Uiso   1.00
H1359  H     0.81612   0.36841   0.61164   0.00000  Uiso   1.00
H1360  H     0.86134   0.39334   0.56045   0.00000  Uiso   1.00
N1361  N     0.91748   0.48827   0.89012   0.00000  Uiso   1.00
H1362  H     0.94858   0.50626   0.87333   0.00000  Uiso   1.00
C1363  C     0.91861   0.44819   0.86821   0.00000  Uiso   1.00
H1364  H     0.95551   0.44315   0.84012   0.00000  Uiso   1.00
H1365  H     0.89161   0.44732   0.85131   0.00000  Uiso   1.00
H1366  H     0.90983   0.42231   0.89434   0.00000  Uiso   1.00
N1367  N     0.92593   0.62742   0.71446   0.00000  Uiso   1.00
H1368  H     0.95264   0.64309   0.72216   0.00000  Uiso   1.00
C1369  C     0.94286   0.61661   0.66500   0.00000  Uiso   1.00
H1370  H     0.97796   0.59980   0.65462   0.00000  Uiso   1.00
H1371  H     0.94919   0.64507   0.64282   0.00000  Uiso   1.00
H1372  H     0.91552   0.59615   0.65855   0.00000  Uiso   1.00
N1373  N     0.74118   0.37228   0.78503   0.00000  Uiso   1.00
H1374  H     0.71954   0.36141   0.81836   0.00000  Uiso   1.00
C1375  C     0.71501   0.37058   0.75374   0.00000  Uiso   1.00
H1376  H     0.70328   0.33818   0.75061   0.00000  Uiso   1.00
H1377  H     0.73870   0.38246   0.71800   0.00000  Uiso   1.00
H1378  H     0.68181   0.38998   0.76829   0.00000  Uiso   1.00
F1379  F     0.97449   0.44496   0.69569   0.00000  Uiso   1.00
F1380  F     0.69176   0.55412   0.80553   0.00000  Uiso   1.00
C1381  C     0.16733   0.91333   0.74943   0.00000  Uiso   1.00
C1382  C     0.16606   0.75330   0.75047   0.00000  Uiso   1.00
C1383  C     0.12957   0.77230   0.54055   0.00000  Uiso   1.00
C1384  C     0.23258   0.82188   0.94056   0.00000  Uiso   1.00
C1385  C     0.09557   0.76563   0.51968   0.00000  Uiso   1.00
C1386  C     0.26543   0.83142   0.96190   0.00000  Uiso   1.00
C1387  C     0.21271   0.98019   0.73244   0.00000  Uiso   1.00
C1388  C     0.12105   0.68629   0.76660   0.00000  Uiso   1.00
C1389  C     0.21083   0.68945   0.73355   0.00000  Uiso   1.00
C1390  C     0.12293   0.97709   0.76654   0.00000  Uiso   1.00
C1391  C     0.16551   0.70911   0.75023   0.00000  Uiso   1.00
C1392  C     0.16815   0.95745   0.74914   0.00000  Uiso   1.00
C1393  C     0.31998   0.80609   0.72260   0.00000  Uiso   1.00
C1394  C     0.01333   0.86051   0.77751   0.00000  Uiso   1.00
C1395  C     0.03476   0.80655   0.72211   0.00000  Uiso   1.00
C1396  C     0.29886   0.86072   0.77716   0.00000  Uiso   1.00
C1397  C     0.13571   0.83169   0.83855   0.00000  Uiso   1.00
C1398  C     0.19764   0.83342   0.66141   0.00000  Uiso   1.00
C1399  C     0.11646   0.82143   0.88940   0.00000  Uiso   1.00
C1400  C     0.21821   0.83095   0.60949   0.00000  Uiso   1.00
C1401  C     0.06697   0.77873   0.95690   0.00000  Uiso   1.00
C1402  C     0.28259   0.84234   0.53185   0.00000  Uiso   1.00
C1403  C     0.07508   0.79490   0.91165   0.00000  Uiso   1.00
C1404  C     0.26701   0.84294   0.58117   0.00000  Uiso   1.00
C1405  C     0.14788   0.83048   0.91238   0.00000  Uiso   1.00
C1406  C     0.18718   0.81641   0.58797   0.00000  Uiso   1.00
C1407  C     0.14515   0.80794   0.95223   0.00000  Uiso   1.00
C1408  C     0.20348   0.81278   0.53882   0.00000  Uiso   1.00
C1409  C     0.10218   0.78437   0.97662   0.00000  Uiso   1.00
C1410  C     0.25076   0.82860   0.51073   0.00000  Uiso   1.00
C1411  C     0.18332   0.80966   0.96930   0.00000  Uiso   1.00
C1412  C     0.17197   0.79797   0.51699   0.00000  Uiso   1.00
H1413  H     0.06356   0.74595   0.53749   0.00000  Uiso   1.00
H1414  H     0.30232   0.84209   0.94029   0.00000  Uiso   1.00
H1415  H     0.14916   0.81016   0.61001   0.00000  Uiso   1.00
H1416  H     0.17654   0.85364   0.89689   0.00000  Uiso   1.00
H1417  H     0.03448   0.76012   0.97608   0.00000  Uiso   1.00
H1418  H     0.31924   0.85361   0.51011   0.00000  Uiso   1.00
H1419  H     0.24507   0.70711   0.72036   0.00000  Uiso   1.00
H1420  H     0.08869   0.95946   0.78040   0.00000  Uiso   1.00
H1421  H     0.06170   0.78546   0.69941   0.00000  Uiso   1.00
H1422  H     0.27223   0.88251   0.79903   0.00000  Uiso   1.00
N1423  N     0.04759   0.83334   0.75001   0.00000  Uiso   1.00
N1424  N     0.28574   0.83332   0.74999   0.00000  Uiso   1.00
O1425  O     0.12846   0.89442   0.75001   0.00000  Uiso   1.00
O1426  O     0.20488   0.77225   0.75000   0.00000  Uiso   1.00
O1427  O     0.20490   0.89441   0.75000   0.00000  Uiso   1.00
O1428  O     0.12843   0.77226   0.75000   0.00000  Uiso   1.00
O1429  O     0.10661   0.83334   0.81613   0.00000  Uiso   1.00
O1430  O     0.22672   0.83333   0.68388   0.00000  Uiso   1.00
O1431  O     0.18305   0.83333   0.81612   0.00000  Uiso   1.00
O1432  O     0.15028   0.83334   0.68388   0.00000  Uiso   1.00
Zn1433 Zn    0.11562   0.83334   0.75000   0.00000  Uiso   1.00
Zn1434 Zn    0.21771   0.83333   0.75000   0.00000  Uiso   1.00
N1435  N     0.29919   0.85885   0.60179   0.00000  Uiso   1.00
H1436  H     0.31220   0.88823   0.58955   0.00000  Uiso   1.00
C1437  C     0.00551   0.83158   0.59812   0.00000  Uiso   1.00
H1438  H     0.03248   0.83059   0.56093   0.00000  Uiso   1.00
H1439  H     0.32454   0.79974   0.61011   0.00000  Uiso   1.00
H1440  H     0.02450   0.84340   0.62068   0.00000  Uiso   1.00
N1441  N     0.04416   0.78307   0.88743   0.00000  Uiso   1.00
H1442  H     0.02891   0.80725   0.87619   0.00000  Uiso   1.00
C1443  C     0.01293   0.74646   0.90297   0.00000  Uiso   1.00
H1444  H     0.33178   0.73779   0.87587   0.00000  Uiso   1.00
H1445  H     0.31468   0.75263   0.93660   0.00000  Uiso   1.00
H1446  H     0.03426   0.71989   0.90745   0.00000  Uiso   1.00
N1447  N     0.12276   0.74994   0.58284   0.00000  Uiso   1.00
H1448  H     0.08674   0.74182   0.60309   0.00000  Uiso   1.00
C1449  C     0.15582   0.71579   0.57662   0.00000  Uiso   1.00
H1450  H     0.14914   0.69174   0.55374   0.00000  Uiso   1.00
H1451  H     0.14945   0.70174   0.61164   0.00000  Uiso   1.00
H1452  H     0.19467   0.72668   0.56045   0.00000  Uiso   1.00
N1453  N     0.25081   0.82160   0.89012   0.00000  Uiso   1.00
H1454  H     0.28192   0.83959   0.87333   0.00000  Uiso   1.00
C1455  C     0.25194   0.78152   0.86821   0.00000  Uiso   1.00
H1456  H     0.28884   0.77649   0.84012   0.00000  Uiso   1.00
H1457  H     0.22494   0.78065   0.85131   0.00000  Uiso   1.00
H1458  H     0.24317   0.75565   0.89434   0.00000  Uiso   1.00
N1459  N     0.25927   0.96075   0.71446   0.00000  Uiso   1.00
H1460  H     0.28597   0.97642   0.72216   0.00000  Uiso   1.00
C1461  C     0.27619   0.94994   0.66500   0.00000  Uiso   1.00
H1462  H     0.31130   0.93313   0.65462   0.00000  Uiso   1.00
H1463  H     0.28252   0.97841   0.64282   0.00000  Uiso   1.00
H1464  H     0.24885   0.92948   0.65855   0.00000  Uiso   1.00
N1465  N     0.07452   0.70561   0.78503   0.00000  Uiso   1.00
H1466  H     0.05288   0.69474   0.81836   0.00000  Uiso   1.00
C1467  C     0.04835   0.70391   0.75374   0.00000  Uiso   1.00
H1468  H     0.03661   0.67152   0.75061   0.00000  Uiso   1.00
H1469  H     0.07204   0.71580   0.71800   0.00000  Uiso   1.00
H1470  H     0.01514   0.72331   0.76829   0.00000  Uiso   1.00
F1471  F     0.30782   0.77829   0.69569   0.00000  Uiso   1.00
F1472  F     0.02509   0.88745   0.80553   0.00000  Uiso   1.00
C1473  C     0.50066   0.91333   0.74943   0.00000  Uiso   1.00
C1474  C     0.49939   0.75330   0.75047   0.00000  Uiso   1.00
C1475  C     0.46290   0.77230   0.54055   0.00000  Uiso   1.00
C1476  C     0.56592   0.82188   0.94056   0.00000  Uiso   1.00
C1477  C     0.42890   0.76563   0.51968   0.00000  Uiso   1.00
C1478  C     0.59877   0.83142   0.96190   0.00000  Uiso   1.00
C1479  C     0.54604   0.98019   0.73244   0.00000  Uiso   1.00
C1480  C     0.45438   0.68629   0.76660   0.00000  Uiso   1.00
C1481  C     0.54416   0.68945   0.73355   0.00000  Uiso   1.00
C1482  C     0.45627   0.97709   0.76654   0.00000  Uiso   1.00
C1483  C     0.49884   0.70911   0.75023   0.00000  Uiso   1.00
C1484  C     0.50148   0.95745   0.74914   0.00000  Uiso   1.00
C1485  C     0.65331   0.80609   0.72260   0.00000  Uiso   1.00
C1486  C     0.34667   0.86051   0.77751   0.00000  Uiso   1.00
C1487  C     0.36809   0.80655   0.72211   0.00000  Uiso   1.00
C1488  C     0.63220   0.86072   0.77716   0.00000  Uiso   1.00
C1489  C     0.46904   0.83169   0.83855   0.00000  Uiso   1.00
C1490  C     0.53097   0.83342   0.66141   0.00000  Uiso   1.00
C1491  C     0.44979   0.82143   0.88940   0.00000  Uiso   1.00
C1492  C     0.55154   0.83095   0.60949   0.00000  Uiso   1.00
C1493  C     0.40030   0.77873   0.95690   0.00000  Uiso   1.00
C1494  C     0.61592   0.84234   0.53185   0.00000  Uiso   1.00
C1495  C     0.40842   0.79490   0.91165   0.00000  Uiso   1.00
C1496  C     0.60035   0.84294   0.58117   0.00000  Uiso   1.00
C1497  C     0.48122   0.83048   0.91238   0.00000  Uiso   1.00
C1498  C     0.52052   0.81641   0.58797   0.00000  Uiso   1.00
C1499  C     0.47848   0.80794   0.95223   0.00000  Uiso   1.00
C1500  C     0.53681   0.81278   0.53882   0.00000  Uiso   1.00
C1501  C     0.43551   0.78437   0.97662   0.00000  Uiso   1.00
C1502  C     0.58409   0.82860   0.51073   0.00000  Uiso   1.00
C1503  C     0.51666   0.80966   0.96930   0.00000  Uiso   1.00
C1504  C     0.50530   0.79797   0.51699   0.00000  Uiso   1.00
H1505  H     0.39690   0.74595   0.53749   0.00000  Uiso   1.00
H1506  H     0.63565   0.84209   0.94029   0.00000  Uiso   1.00
H1507  H     0.48250   0.81016   0.61001   0.00000  Uiso   1.00
H1508  H     0.50987   0.85364   0.89689   0.00000  Uiso   1.00
H1509  H     0.36781   0.76012   0.97608   0.00000  Uiso   1.00
H1510  H     0.65257   0.85361   0.51011   0.00000  Uiso   1.00
H1511  H     0.57840   0.70711   0.72036   0.00000  Uiso   1.00
H1512  H     0.42202   0.95946   0.78040   0.00000  Uiso   1.00
H1513  H     0.39504   0.78546   0.69941   0.00000  Uiso   1.00
H1514  H     0.60556   0.88251   0.79903   0.00000  Uiso   1.00
N1515  N     0.38093   0.83334   0.75001   0.00000  Uiso   1.00
N1516  N     0.61907   0.83332   0.74999   0.00000  Uiso   1.00
O1517  O     0.46179   0.89442   0.75001   0.00000  Uiso   1.00
O1518  O     0.53821   0.77225   0.75000   0.00000  Uiso   1.00
O1519  O     0.53823   0.89441   0.75000   0.00000  Uiso   1.00
O1520  O     0.46177   0.77226   0.75000   0.00000  Uiso   1.00
O1521  O     0.43994   0.83334   0.81613   0.00000  Uiso   1.00
O1522  O     0.56006   0.83333   0.68388   0.00000  Uiso   1.00
O1523  O     0.51639   0.83333   0.81612   0.00000  Uiso   1.00
O1524  O     0.48361   0.83334   0.68388   0.00000  Uiso   1.00
Zn1525 Zn    0.44896   0.83334   0.75000   0.00000  Uiso   1.00
Zn1526 Zn    0.55104   0.83333   0.75000   0.00000  Uiso   1.00
N1527  N     0.63252   0.85885   0.60179   0.00000  Uiso   1.00
H1528  H     0.64554   0.88823   0.58955   0.00000  Uiso   1.00
C1529  C     0.33884   0.83158   0.59812   0.00000  Uiso   1.00
H1530  H     0.36582   0.83059   0.56093   0.00000  Uiso   1.00
H1531  H     0.65788   0.79974   0.61011   0.00000  Uiso   1.00
H1532  H     0.35783   0.84340   0.62068   0.00000  Uiso   1.00
N1533  N     0.37749   0.78307   0.88743   0.00000  Uiso   1.00
H1534  H     0.36224   0.80725   0.87619   0.00000  Uiso   1.00
C1535  C     0.34626   0.74646   0.90297   0.00000  Uiso   1.00
H1536  H     0.66512   0.73779   0.87587   0.00000  Uiso   1.00
H1537  H     0.64801   0.75263   0.93660   0.00000  Uiso   1.00
H1538  H     0.36759   0.71989   0.90745   0.00000  Uiso   1.00
N1539  N     0.45609   0.74994   0.58284   0.00000  Uiso   1.00
H1540  H     0.42007   0.74182   0.60309   0.00000  Uiso   1.00
C1541  C     0.48915   0.71579   0.57662   0.00000  Uiso   1.00
H1542  H     0.48247   0.69174   0.55374   0.00000  Uiso   1.00
H1543  H     0.48278   0.70174   0.61164   0.00000  Uiso   1.00
H1544  H     0.52801   0.72668   0.56045   0.00000  Uiso   1.00
N1545  N     0.58414   0.82160   0.89012   0.00000  Uiso   1.00
H1546  H     0.61525   0.83959   0.87333   0.00000  Uiso   1.00
C1547  C     0.58528   0.78152   0.86821   0.00000  Uiso   1.00
H1548  H     0.62218   0.77649   0.84012   0.00000  Uiso   1.00
H1549  H     0.55827   0.78065   0.85131   0.00000  Uiso   1.00
H1550  H     0.57650   0.75565   0.89434   0.00000  Uiso   1.00
N1551  N     0.59260   0.96075   0.71446   0.00000  Uiso   1.00
H1552  H     0.61930   0.97642   0.72216   0.00000  Uiso   1.00
C1553  C     0.60953   0.94994   0.66500   0.00000  Uiso   1.00
H1554  H     0.64463   0.93313   0.65462   0.00000  Uiso   1.00
H1555  H     0.61586   0.97841   0.64282   0.00000  Uiso   1.00
H1556  H     0.58218   0.92948   0.65855   0.00000  Uiso   1.00
N1557  N     0.40785   0.70561   0.78503   0.00000  Uiso   1.00
H1558  H     0.38621   0.69474   0.81836   0.00000  Uiso   1.00
C1559  C     0.38168   0.70391   0.75374   0.00000  Uiso   1.00
H1560  H     0.36995   0.67152   0.75061   0.00000  Uiso   1.00
H1561  H     0.40537   0.71580   0.71800   0.00000  Uiso   1.00
H1562  H     0.34847   0.72331   0.76829   0.00000  Uiso   1.00
F1563  F     0.64116   0.77829   0.69569   0.00000  Uiso   1.00
F1564  F     0.35842   0.88745   0.80553   0.00000  Uiso   1.00
C1565  C     0.83400   0.91333   0.74943   0.00000  Uiso   1.00
C1566  C     0.83272   0.75330   0.75047   0.00000  Uiso   1.00
C1567  C     0.79624   0.77230   0.54055   0.00000  Uiso   1.00
C1568  C     0.89925   0.82188   0.94056   0.00000  Uiso   1.00
C1569  C     0.76224   0.76563   0.51968   0.00000  Uiso   1.00
C1570  C     0.93210   0.83142   0.96190   0.00000  Uiso   1.00
C1571  C     0.87937   0.98019   0.73244   0.00000  Uiso   1.00
C1572  C     0.78772   0.68629   0.76660   0.00000  Uiso   1.00
C1573  C     0.87750   0.68945   0.73355   0.00000  Uiso   1.00
C1574  C     0.78960   0.97709   0.76654   0.00000  Uiso   1.00
C1575  C     0.83218   0.70911   0.75023   0.00000  Uiso   1.00
C1576  C     0.83482   0.95745   0.74914   0.00000  Uiso   1.00
C1577  C     0.98665   0.80609   0.72260   0.00000  Uiso   1.00
C1578  C     0.68000   0.86051   0.77751   0.00000  Uiso   1.00
C1579  C     0.70142   0.80655   0.72211   0.00000  Uiso   1.00
C1580  C     0.96553   0.86072   0.77716   0.00000  Uiso   1.00
C1581  C     0.80238   0.83169   0.83855   0.00000  Uiso   1.00
C1582  C     0.86431   0.83342   0.66141   0.00000  Uiso   1.00
C1583  C     0.78312   0.82143   0.88940   0.00000  Uiso   1.00
C1584  C     0.88487   0.83095   0.60949   0.00000  Uiso   1.00
C1585  C     0.73363   0.77873   0.95690   0.00000  Uiso   1.00
C1586  C     0.94926   0.84234   0.53185   0.00000  Uiso   1.00
C1587  C     0.74175   0.79490   0.91165   0.00000  Uiso   1.00
C1588  C     0.93368   0.84294   0.58117   0.00000  Uiso   1.00
C1589  C     0.81455   0.83048   0.91238   0.00000  Uiso   1.00
C1590  C     0.85385   0.81641   0.58797   0.00000  Uiso   1.00
C1591  C     0.81182   0.80794   0.95223   0.00000  Uiso   1.00
C1592  C     0.87015   0.81278   0.53882   0.00000  Uiso   1.00
C1593  C     0.76885   0.78437   0.97662   0.00000  Uiso   1.00
C1594  C     0.91742   0.82860   0.51073   0.00000  Uiso   1.00
C1595  C     0.84999   0.80966   0.96930   0.00000  Uiso   1.00
C1596  C     0.83864   0.79797   0.51699   0.00000  Uiso   1.00
H1597  H     0.73023   0.74595   0.53749   0.00000  Uiso   1.00
H1598  H     0.96898   0.84209   0.94029   0.00000  Uiso   1.00
H1599  H     0.81583   0.81016   0.61001   0.00000  Uiso   1.00
H1600  H     0.84320   0.85364   0.89689   0.00000  Uiso   1.00
H1601  H     0.70115   0.76012   0.97608   0.00000  Uiso   1.00
H1602  H     0.98591   0.85361   0.51011   0.00000  Uiso   1.00
H1603  H     0.91173   0.70711   0.72036   0.00000  Uiso   1.00
H1604  H     0.75536   0.95946   0.78040   0.00000  Uiso   1.00
H1605  H     0.72837   0.78546   0.69941   0.00000  Uiso   1.00
H1606  H     0.93889   0.88251   0.79903   0.00000  Uiso   1.00
N1607  N     0.71426   0.83334   0.75001   0.00000  Uiso   1.00
N1608  N     0.95241   0.83332   0.74999   0.00000  Uiso   1.00
O1609  O     0.79512   0.89442   0.75001   0.00000  Uiso   1.00
O1610  O     0.87154   0.77225   0.75000   0.00000  Uiso   1.00
O1611  O     0.87157   0.89441   0.75000   0.00000  Uiso   1.00
O1612  O     0.79510   0.77226   0.75000   0.00000  Uiso   1.00
O1613  O     0.77328   0.83334   0.81613   0.00000  Uiso   1.00
O1614  O     0.89339   0.83333   0.68388   0.00000  Uiso   1.00
O1615  O     0.84972   0.83333   0.81612   0.00000  Uiso   1.00
O1616  O     0.81695   0.83334   0.68388   0.00000  Uiso   1.00
Zn1617 Zn    0.78229   0.83334   0.75000   0.00000  Uiso   1.00
Zn1618 Zn    0.88438   0.83333   0.75000   0.00000  Uiso   1.00
N1619  N     0.96585   0.85885   0.60179   0.00000  Uiso   1.00
H1620  H     0.97887   0.88823   0.58955   0.00000  Uiso   1.00
C1621  C     0.67217   0.83158   0.59812   0.00000  Uiso   1.00
H1622  H     0.69915   0.83059   0.56093   0.00000  Uiso   1.00
H1623  H     0.99121   0.79974   0.61011   0.00000  Uiso   1.00
H1624  H     0.69116   0.84340   0.62068   0.00000  Uiso   1.00
N1625  N     0.71082   0.78307   0.88743   0.00000  Uiso   1.00
H1626  H     0.69557   0.80725   0.87619   0.00000  Uiso   1.00
C1627  C     0.67959   0.74646   0.90297   0.00000  Uiso   1.00
H1628  H     0.99845   0.73779   0.87587   0.00000  Uiso   1.00
H1629  H     0.98134   0.75263   0.93660   0.00000  Uiso   1.00
H1630  H     0.70093   0.71989   0.90745   0.00000  Uiso   1.00
N1631  N     0.78942   0.74994   0.58284   0.00000  Uiso   1.00
H1632  H     0.75341   0.74182   0.60309   0.00000  Uiso   1.00
C1633  C     0.82248   0.71579   0.57662   0.00000  Uiso   1.00
H1634  H     0.81581   0.69174   0.55374   0.00000  Uiso   1.00
H1635  H     0.81612   0.70174   0.61164   0.00000  Uiso   1.00
H1636  H     0.86134   0.72668   0.56045   0.00000  Uiso   1.00
N1637  N     0.91748   0.82160   0.89012   0.00000  Uiso   1.00
H1638  H     0.94858   0.83959   0.87333   0.00000  Uiso   1.00
C1639  C     0.91861   0.78152   0.86821   0.00000  Uiso   1.00
H1640  H     0.95551   0.77649   0.84012   0.00000  Uiso   1.00
H1641  H     0.89161   0.78065   0.85131   0.00000  Uiso   1.00
H1642  H     0.90983   0.75565   0.89434   0.00000  Uiso   1.00
N1643  N     0.92593   0.96075   0.71446   0.00000  Uiso   1.00
H1644  H     0.95264   0.97642   0.72216   0.00000  Uiso   1.00
C1645  C     0.94286   0.94994   0.66500   0.00000  Uiso   1.00
H1646  H     0.97796   0.93313   0.65462   0.00000  Uiso   1.00
H1647  H     0.94919   0.97841   0.64282   0.00000  Uiso   1.00
H1648  H     0.91552   0.92948   0.65855   0.00000  Uiso   1.00
N1649  N     0.74118   0.70561   0.78503   0.00000  Uiso   1.00
H1650  H     0.71954   0.69474   0.81836   0.00000  Uiso   1.00
C1651  C     0.71501   0.70391   0.75374   0.00000  Uiso   1.00
H1652  H     0.70328   0.67152   0.75061   0.00000  Uiso   1.00
H1653  H     0.73870   0.71580   0.71800   0.00000  Uiso   1.00
H1654  H     0.68181   0.72331   0.76829   0.00000  Uiso   1.00
F1655  F     0.97449   0.77829   0.69569   0.00000  Uiso   1.00
F1656  F     0.69176   0.88745   0.80553   0.00000  Uiso   1.00
loop_
_geom_bond_atom_site_label_1
_geom_bond_atom_site_label_2
_geom_bond_distance
_geom_bond_site_symmetry_2
_ccdc_geom_bond_type
C1     C12     1.423   .     S
C1     O47     1.281   .     A
C1     O45     1.286   .     A
C2     O46     1.286   .     A
C2     C11     1.425   .     S
C2     O48     1.282   .     A
C3     N67     1.426   .     S
C3     C5      1.399   .     A
C3     C32     1.429   .     A
C4     C6      1.395   .     A
C4     N73     1.427   .     S
C4     C31     1.427   .     A
C5     H33     1.085   .     S
C5     C857    1.393   1_554 S
C6     H34     1.083   .     S
C6     C858    1.390   .     S
C7     C12     1.407   .     A
C7     N79     1.424   .     S
C7     C285    1.376   .     S
C8     N85     1.422   .     S
C8     C11     1.406   .     A
C8     C562    1.374   1_545 S
C9     H39     1.084   .     S
C9     C11     1.397   .     A
C9     C559    1.376   1_545 S
C10    H40     1.084   .     S
C10    C12     1.394   .     A
C10    C284    1.374   .     S
C13    F91     1.354   .     S
C13    N44     1.367   .     A
C13    C107    1.415   .     S
C14    F92     1.355   .     S
C14    N43     1.367   .     A
C14    C200    1.417   1_455 S
C15    H41     1.081   .     S
C15    N43     1.365   .     A
C15    C197    1.415   1_455 S
C16    N44     1.366   .     A
C16    H42     1.082   .     S
C16    C106    1.417   .     S
C17    O51     1.298   .     A
C17    O49     1.294   .     A
C17    C19     1.473   .     S
C18    O52     1.298   .     A
C18    O50     1.293   .     A
C18    C20     1.470   .     S
C19    C23     1.419   .     A
C19    C25     1.394   .     A
C20    C24     1.412   .     A
C20    C26     1.397   .     A
C21    C29     1.401   .     A
C21    C23     1.411   .     A
C21    H37     1.082   .     S
C22    C24     1.399   .     A
C22    H38     1.085   .     S
C22    C30     1.400   .     A
C23    N61     1.431   .     S
C24    N55     1.420   .     S
C25    C27     1.396   .     A
C25    H36     1.081   .     S
C26    C28     1.398   .     A
C26    H35     1.078   .     S
C27    C29     1.408   .     A
C27    C31     1.416   .     A
C28    C32     1.419   .     A
C28    C30     1.413   .     A
C29    C833    1.393   .     S
C30    C834    1.390   1_554 S
C31    C860    1.417   .     S
C32    C859    1.417   1_554 S
N43    Zn53    2.010   .     S
N44    Zn54    2.010   .     S
O45    Zn53    2.000   .     S
O46    Zn54    2.000   .     S
O47    Zn54    2.012   .     S
O48    Zn53    2.012   .     S
O49    Zn53    1.939   .     S
O50    Zn54    1.939   .     S
O51    Zn54    1.883   .     S
O52    Zn53    1.883   .     S
N55    H56     1.031   .     S
N55    C149    1.445   .     S
C57    H60     1.110   .     S
C57    H58     1.110   .     S
C57    N239    1.445   1_455 S
C57    H243    1.111   1_455 S
H59    C149    1.111   .     S
N61    H62     1.030   .     S
N61    C63     1.448   .     S
C63    H66     1.111   .     S
C63    H248    1.106   1_455 S
C63    H249    1.110   1_455 S
H64    C155    1.106   .     S
H65    C155    1.110   .     S
N67    H68     1.032   .     S
N67    C69     1.447   .     S
C69    H71     1.111   .     S
C69    H70     1.111   .     S
C69    H72     1.110   .     S
N73    H74     1.031   .     S
N73    C75     1.452   .     S
C75    H76     1.111   .     S
C75    H77     1.107   .     S
C75    H78     1.112   .     S
N79    C81     1.445   .     S
N79    H80     1.032   .     S
C81    H82     1.110   .     S
C81    H83     1.112   .     S
C81    H84     1.111   .     S
N85    H86     1.030   .     S
N85    C87     1.447   .     S
C87    H88     1.112   .     S
C87    H90     1.110   .     S
C87    H89     1.111   .     S
C93    C104    1.423   .     S
C93    O139    1.281   .     A
C93    O137    1.286   .     A
C94    O138    1.286   .     A
C94    C103    1.425   .     S
C94    O140    1.282   .     A
C95    N159    1.426   .     S
C95    C97     1.399   .     A
C95    C124    1.429   .     A
C96    C98     1.395   .     A
C96    N165    1.427   .     S
C96    C123    1.427   .     A
C97    H125    1.085   .     S
C97    C949    1.393   1_554 S
C98    H126    1.083   .     S
C98    C950    1.390   .     S
C99    C104    1.407   .     A
C99    N171    1.424   .     S
C99    C377    1.376   .     S
C100   N177    1.422   .     S
C100   C103    1.406   .     A
C100   C654    1.374   1_545 S
C101   H131    1.084   .     S
C101   C103    1.397   .     A
C101   C651    1.376   1_545 S
C102   H132    1.084   .     S
C102   C104    1.394   .     A
C102   C376    1.374   .     S
C105   F183    1.354   .     S
C105   N136    1.367   .     A
C105   C199    1.415   .     S
C106   F184    1.355   .     S
C106   N135    1.367   .     A
C107   H133    1.081   .     S
C107   N135    1.365   .     A
C108   N136    1.366   .     A
C108   H134    1.082   .     S
C108   C198    1.417   .     S
C109   O143    1.298   .     A
C109   O141    1.294   .     A
C109   C111    1.473   .     S
C110   O144    1.298   .     A
C110   O142    1.293   .     A
C110   C112    1.470   .     S
C111   C115    1.419   .     A
C111   C117    1.394   .     A
C112   C116    1.412   .     A
C112   C118    1.397   .     A
C113   C121    1.401   .     A
C113   C115    1.411   .     A
C113   H129    1.082   .     S
C114   C116    1.399   .     A
C114   H130    1.085   .     S
C114   C122    1.400   .     A
C115   N153    1.431   .     S
C116   N147    1.420   .     S
C117   C119    1.396   .     A
C117   H128    1.081   .     S
C118   C120    1.398   .     A
C118   H127    1.078   .     S
C119   C121    1.408   .     A
C119   C123    1.416   .     A
C120   C124    1.419   .     A
C120   C122    1.413   .     A
C121   C925    1.393   .     S
C122   C926    1.390   1_554 S
C123   C952    1.417   .     S
C124   C951    1.417   1_554 S
N135   Zn145   2.010   .     S
N136   Zn146   2.010   .     S
O137   Zn145   2.000   .     S
O138   Zn146   2.000   .     S
O139   Zn146   2.012   .     S
O140   Zn145   2.012   .     S
O141   Zn145   1.939   .     S
O142   Zn146   1.939   .     S
O143   Zn146   1.883   .     S
O144   Zn145   1.883   .     S
N147   H148    1.031   .     S
N147   C241    1.445   .     S
C149   H152    1.110   .     S
C149   H150    1.110   .     S
H151   C241    1.111   .     S
N153   H154    1.030   .     S
N153   C155    1.448   .     S
C155   H158    1.111   .     S
H156   C247    1.106   .     S
H157   C247    1.110   .     S
N159   H160    1.032   .     S
N159   C161    1.447   .     S
C161   H163    1.111   .     S
C161   H162    1.111   .     S
C161   H164    1.110   .     S
N165   H166    1.031   .     S
N165   C167    1.452   .     S
C167   H168    1.111   .     S
C167   H169    1.107   .     S
C167   H170    1.112   .     S
N171   C173    1.445   .     S
N171   H172    1.032   .     S
C173   H174    1.110   .     S
C173   H175    1.112   .     S
C173   H176    1.111   .     S
N177   H178    1.030   .     S
N177   C179    1.447   .     S
C179   H180    1.112   .     S
C179   H182    1.110   .     S
C179   H181    1.111   .     S
C185   C196    1.423   .     S
C185   O231    1.281   .     A
C185   O229    1.286   .     A
C186   O230    1.286   .     A
C186   C195    1.425   .     S
C186   O232    1.282   .     A
C187   N251    1.426   .     S
C187   C189    1.399   .     A
C187   C216    1.429   .     A
C188   C190    1.395   .     A
C188   N257    1.427   .     S
C188   C215    1.427   .     A
C189   H217    1.085   .     S
C189   C1041   1.393   1_554 S
C190   H218    1.083   .     S
C190   C1042   1.390   .     S
C191   C196    1.407   .     A
C191   N263    1.424   .     S
C191   C469    1.376   .     S
C192   N269    1.422   .     S
C192   C195    1.406   .     A
C192   C746    1.374   1_545 S
C193   H223    1.084   .     S
C193   C195    1.397   .     A
C193   C743    1.376   1_545 S
C194   H224    1.084   .     S
C194   C196    1.394   .     A
C194   C468    1.374   .     S
C197   F275    1.354   .     S
C197   N228    1.367   .     A
C197   C15     1.415   1_655 S
C198   F276    1.355   .     S
C198   N227    1.367   .     A
C199   H225    1.081   .     S
C199   N227    1.365   .     A
C200   N228    1.366   .     A
C200   H226    1.082   .     S
C200   C14     1.417   1_655 S
C201   O235    1.298   .     A
C201   O233    1.294   .     A
C201   C203    1.473   .     S
C202   O236    1.298   .     A
C202   O234    1.293   .     A
C202   C204    1.470   .     S
C203   C207    1.419   .     A
C203   C209    1.394   .     A
C204   C208    1.412   .     A
C204   C210    1.397   .     A
C205   C213    1.401   .     A
C205   C207    1.411   .     A
C205   H221    1.082   .     S
C206   C208    1.399   .     A
C206   H222    1.085   .     S
C206   C214    1.400   .     A
C207   N245    1.431   .     S
C208   N239    1.420   .     S
C209   C211    1.396   .     A
C209   H220    1.081   .     S
C210   C212    1.398   .     A
C210   H219    1.078   .     S
C211   C213    1.408   .     A
C211   C215    1.416   .     A
C212   C216    1.419   .     A
C212   C214    1.413   .     A
C213   C1017   1.393   .     S
C214   C1018   1.390   1_554 S
C215   C1044   1.417   .     S
C216   C1043   1.417   1_554 S
N227   Zn237   2.010   .     S
N228   Zn238   2.010   .     S
O229   Zn237   2.000   .     S
O230   Zn238   2.000   .     S
O231   Zn238   2.012   .     S
O232   Zn237   2.012   .     S
O233   Zn237   1.939   .     S
O234   Zn238   1.939   .     S
O235   Zn238   1.883   .     S
O236   Zn237   1.883   .     S
N239   H240    1.031   .     S
N239   C57     1.445   1_655 S
C241   H244    1.110   .     S
C241   H242    1.110   .     S
H243   C57     1.111   1_655 S
N245   H246    1.030   .     S
N245   C247    1.448   .     S
C247   H250    1.111   .     S
H248   C63     1.106   1_655 S
H249   C63     1.110   1_655 S
N251   H252    1.032   .     S
N251   C253    1.447   .     S
C253   H255    1.111   .     S
C253   H254    1.111   .     S
C253   H256    1.110   .     S
N257   H258    1.031   .     S
N257   C259    1.452   .     S
C259   H260    1.111   .     S
C259   H261    1.107   .     S
C259   H262    1.112   .     S
N263   C265    1.445   .     S
N263   H264    1.032   .     S
C265   H266    1.110   .     S
C265   H267    1.112   .     S
C265   H268    1.111   .     S
N269   H270    1.030   .     S
N269   C271    1.447   .     S
C271   H272    1.112   .     S
C271   H274    1.110   .     S
C271   H273    1.111   .     S
C277   C288    1.423   .     S
C277   O323    1.281   .     A
C277   O321    1.286   .     A
C278   O322    1.286   .     A
C278   C287    1.425   .     S
C278   O324    1.282   .     A
C279   N343    1.426   .     S
C279   C281    1.399   .     A
C279   C308    1.429   .     A
C280   C282    1.395   .     A
C280   N349    1.427   .     S
C280   C307    1.427   .     A
C281   H309    1.085   .     S
C281   C1133   1.393   1_554 S
C282   H310    1.083   .     S
C282   C1134   1.390   .     S
C283   C288    1.407   .     A
C283   N355    1.424   .     S
C283   C561    1.376   .     S
C284   N361    1.422   .     S
C284   C287    1.406   .     A
C285   H315    1.084   .     S
C285   C287    1.397   .     A
C286   H316    1.084   .     S
C286   C288    1.394   .     A
C286   C560    1.374   .     S
C289   F367    1.354   .     S
C289   N320    1.367   .     A
C289   C383    1.415   .     S
C290   F368    1.355   .     S
C290   N319    1.367   .     A
C290   C476    1.417   1_455 S
C291   H317    1.081   .     S
C291   N319    1.365   .     A
C291   C473    1.415   1_455 S
C292   N320    1.366   .     A
C292   H318    1.082   .     S
C292   C382    1.417   .     S
C293   O327    1.298   .     A
C293   O325    1.294   .     A
C293   C295    1.473   .     S
C294   O328    1.298   .     A
C294   O326    1.293   .     A
C294   C296    1.470   .     S
C295   C299    1.419   .     A
C295   C301    1.394   .     A
C296   C300    1.412   .     A
C296   C302    1.397   .     A
C297   C305    1.401   .     A
C297   C299    1.411   .     A
C297   H313    1.082   .     S
C298   C300    1.399   .     A
C298   H314    1.085   .     S
C298   C306    1.400   .     A
C299   N337    1.431   .     S
C300   N331    1.420   .     S
C301   C303    1.396   .     A
C301   H312    1.081   .     S
C302   C304    1.398   .     A
C302   H311    1.078   .     S
C303   C305    1.408   .     A
C303   C307    1.416   .     A
C304   C308    1.419   .     A
C304   C306    1.413   .     A
C305   C1109   1.393   .     S
C306   C1110   1.390   1_554 S
C307   C1136   1.417   .     S
C308   C1135   1.417   1_554 S
N319   Zn329   2.010   .     S
N320   Zn330   2.010   .     S
O321   Zn329   2.000   .     S
O322   Zn330   2.000   .     S
O323   Zn330   2.012   .     S
O324   Zn329   2.012   .     S
O325   Zn329   1.939   .     S
O326   Zn330   1.939   .     S
O327   Zn330   1.883   .     S
O328   Zn329   1.883   .     S
N331   H332    1.031   .     S
N331   C425    1.445   .     S
C333   H336    1.110   .     S
C333   H334    1.110   .     S
C333   N515    1.445   1_455 S
C333   H519    1.111   1_455 S
H335   C425    1.111   .     S
N337   H338    1.030   .     S
N337   C339    1.448   .     S
C339   H342    1.111   .     S
C339   H524    1.106   1_455 S
C339   H525    1.110   1_455 S
H340   C431    1.106   .     S
H341   C431    1.110   .     S
N343   H344    1.032   .     S
N343   C345    1.447   .     S
C345   H347    1.111   .     S
C345   H346    1.111   .     S
C345   H348    1.110   .     S
N349   H350    1.031   .     S
N349   C351    1.452   .     S
C351   H352    1.111   .     S
C351   H353    1.107   .     S
C351   H354    1.112   .     S
N355   C357    1.445   .     S
N355   H356    1.032   .     S
C357   H358    1.110   .     S
C357   H359    1.112   .     S
C357   H360    1.111   .     S
N361   H362    1.030   .     S
N361   C363    1.447   .     S
C363   H364    1.112   .     S
C363   H366    1.110   .     S
C363   H365    1.111   .     S
C369   C380    1.423   .     S
C369   O415    1.281   .     A
C369   O413    1.286   .     A
C370   O414    1.286   .     A
C370   C379    1.425   .     S
C370   O416    1.282   .     A
C371   N435    1.426   .     S
C371   C373    1.399   .     A
C371   C400    1.429   .     A
C372   C374    1.395   .     A
C372   N441    1.427   .     S
C372   C399    1.427   .     A
C373   H401    1.085   .     S
C373   C1225   1.393   1_554 S
C374   H402    1.083   .     S
C374   C1226   1.390   .     S
C375   C380    1.407   .     A
C375   N447    1.424   .     S
C375   C653    1.376   .     S
C376   N453    1.422   .     S
C376   C379    1.406   .     A
C377   H407    1.084   .     S
C377   C379    1.397   .     A
C378   H408    1.084   .     S
C378   C380    1.394   .     A
C378   C652    1.374   .     S
C381   F459    1.354   .     S
C381   N412    1.367   .     A
C381   C475    1.415   .     S
C382   F460    1.355   .     S
C382   N411    1.367   .     A
C383   H409    1.081   .     S
C383   N411    1.365   .     A
C384   N412    1.366   .     A
C384   H410    1.082   .     S
C384   C474    1.417   .     S
C385   O419    1.298   .     A
C385   O417    1.294   .     A
C385   C387    1.473   .     S
C386   O420    1.298   .     A
C386   O418    1.293   .     A
C386   C388    1.470   .     S
C387   C391    1.419   .     A
C387   C393    1.394   .     A
C388   C392    1.412   .     A
C388   C394    1.397   .     A
C389   C397    1.401   .     A
C389   C391    1.411   .     A
C389   H405    1.082   .     S
C390   C392    1.399   .     A
C390   H406    1.085   .     S
C390   C398    1.400   .     A
C391   N429    1.431   .     S
C392   N423    1.420   .     S
C393   C395    1.396   .     A
C393   H404    1.081   .     S
C394   C396    1.398   .     A
C394   H403    1.078   .     S
C395   C397    1.408   .     A
C395   C399    1.416   .     A
C396   C400    1.419   .     A
C396   C398    1.413   .     A
C397   C1201   1.393   .     S
C398   C1202   1.390   1_554 S
C399   C1228   1.417   .     S
C400   C1227   1.417   1_554 S
N411   Zn421   2.010   .     S
N412   Zn422   2.010   .     S
O413   Zn421   2.000   .     S
O414   Zn422   2.000   .     S
O415   Zn422   2.012   .     S
O416   Zn421   2.012   .     S
O417   Zn421   1.939   .     S
O418   Zn422   1.939   .     S
O419   Zn422   1.883   .     S
O420   Zn421   1.883   .     S
N423   H424    1.031   .     S
N423   C517    1.445   .     S
C425   H428    1.110   .     S
C425   H426    1.110   .     S
H427   C517    1.111   .     S
N429   H430    1.030   .     S
N429   C431    1.448   .     S
C431   H434    1.111   .     S
H432   C523    1.106   .     S
H433   C523    1.110   .     S
N435   H436    1.032   .     S
N435   C437    1.447   .     S
C437   H439    1.111   .     S
C437   H438    1.111   .     S
C437   H440    1.110   .     S
N441   H442    1.031   .     S
N441   C443    1.452   .     S
C443   H444    1.111   .     S
C443   H445    1.107   .     S
C443   H446    1.112   .     S
N447   C449    1.445   .     S
N447   H448    1.032   .     S
C449   H450    1.110   .     S
C449   H451    1.112   .     S
C449   H452    1.111   .     S
N453   H454    1.030   .     S
N453   C455    1.447   .     S
C455   H456    1.112   .     S
C455   H458    1.110   .     S
C455   H457    1.111   .     S
C461   C472    1.423   .     S
C461   O507    1.281   .     A
C461   O505    1.286   .     A
C462   O506    1.286   .     A
C462   C471    1.425   .     S
C462   O508    1.282   .     A
C463   N527    1.426   .     S
C463   C465    1.399   .     A
C463   C492    1.429   .     A
C464   C466    1.395   .     A
C464   N533    1.427   .     S
C464   C491    1.427   .     A
C465   H493    1.085   .     S
C465   C1317   1.393   1_554 S
C466   H494    1.083   .     S
C466   C1318   1.390   .     S
C467   C472    1.407   .     A
C467   N539    1.424   .     S
C467   C745    1.376   .     S
C468   N545    1.422   .     S
C468   C471    1.406   .     A
C469   H499    1.084   .     S
C469   C471    1.397   .     A
C470   H500    1.084   .     S
C470   C472    1.394   .     A
C470   C744    1.374   .     S
C473   F551    1.354   .     S
C473   N504    1.367   .     A
C473   C291    1.415   1_655 S
C474   F552    1.355   .     S
C474   N503    1.367   .     A
C475   H501    1.081   .     S
C475   N503    1.365   .     A
C476   N504    1.366   .     A
C476   H502    1.082   .     S
C476   C290    1.417   1_655 S
C477   O511    1.298   .     A
C477   O509    1.294   .     A
C477   C479    1.473   .     S
C478   O512    1.298   .     A
C478   O510    1.293   .     A
C478   C480    1.470   .     S
C479   C483    1.419   .     A
C479   C485    1.394   .     A
C480   C484    1.412   .     A
C480   C486    1.397   .     A
C481   C489    1.401   .     A
C481   C483    1.411   .     A
C481   H497    1.082   .     S
C482   C484    1.399   .     A
C482   H498    1.085   .     S
C482   C490    1.400   .     A
C483   N521    1.431   .     S
C484   N515    1.420   .     S
C485   C487    1.396   .     A
C485   H496    1.081   .     S
C486   C488    1.398   .     A
C486   H495    1.078   .     S
C487   C489    1.408   .     A
C487   C491    1.416   .     A
C488   C492    1.419   .     A
C488   C490    1.413   .     A
C489   C1293   1.393   .     S
C490   C1294   1.390   1_554 S
C491   C1320   1.417   .     S
C492   C1319   1.417   1_554 S
N503   Zn513   2.010   .     S
N504   Zn514   2.010   .     S
O505   Zn513   2.000   .     S
O506   Zn514   2.000   .     S
O507   Zn514   2.012   .     S
O508   Zn513   2.012   .     S
O509   Zn513   1.939   .     S
O510   Zn514   1.939   .     S
O511   Zn514   1.883   .     S
O512   Zn513   1.883   .     S
N515   H516    1.031   .     S
N515   C333    1.445   1_655 S
C517   H520    1.110   .     S
C517   H518    1.110   .     S
H519   C333    1.111   1_655 S
N521   H522    1.030   .     S
N521   C523    1.448   .     S
C523   H526    1.111   .     S
H524   C339    1.106   1_655 S
H525   C339    1.110   1_655 S
N527   H528    1.032   .     S
N527   C529    1.447   .     S
C529   H531    1.111   .     S
C529   H530    1.111   .     S
C529   H532    1.110   .     S
N533   H534    1.031   .     S
N533   C535    1.452   .     S
C535   H536    1.111   .     S
C535   H537    1.107   .     S
C535   H538    1.112   .     S
N539   C541    1.445   .     S
N539   H540    1.032   .     S
C541   H542    1.110   .     S
C541   H543    1.112   .     S
C541   H544    1.111   .     S
N545   H546    1.030   .     S
N545   C547    1.447   .     S
C547   H548    1.112   .     S
C547   H550    1.110   .     S
C547   H549    1.111   .     S
C553   C564    1.423   .     S
C553   O599    1.281   .     A
C553   O597    1.286   .     A
C554   O598    1.286   .     A
C554   C563    1.425   .     S
C554   O600    1.282   .     A
C555   N619    1.426   .     S
C555   C557    1.399   .     A
C555   C584    1.429   .     A
C556   C558    1.395   .     A
C556   N625    1.427   .     S
C556   C583    1.427   .     A
C557   H585    1.085   .     S
C557   C1409   1.393   1_554 S
C558   H586    1.083   .     S
C558   C1410   1.390   .     S
C559   C564    1.407   .     A
C559   N631    1.424   .     S
C559   C9      1.376   1_565 S
C560   N637    1.422   .     S
C560   C563    1.406   .     A
C561   H591    1.084   .     S
C561   C563    1.397   .     A
C562   H592    1.084   .     S
C562   C564    1.394   .     A
C562   C8      1.374   1_565 S
C565   F643    1.354   .     S
C565   N596    1.367   .     A
C565   C659    1.415   .     S
C566   F644    1.355   .     S
C566   N595    1.367   .     A
C566   C752    1.417   1_455 S
C567   H593    1.081   .     S
C567   N595    1.365   .     A
C567   C749    1.415   1_455 S
C568   N596    1.366   .     A
C568   H594    1.082   .     S
C568   C658    1.417   .     S
C569   O603    1.298   .     A
C569   O601    1.294   .     A
C569   C571    1.473   .     S
C570   O604    1.298   .     A
C570   O602    1.293   .     A
C570   C572    1.470   .     S
C571   C575    1.419   .     A
C571   C577    1.394   .     A
C572   C576    1.412   .     A
C572   C578    1.397   .     A
C573   C581    1.401   .     A
C573   C575    1.411   .     A
C573   H589    1.082   .     S
C574   C576    1.399   .     A
C574   H590    1.085   .     S
C574   C582    1.400   .     A
C575   N613    1.431   .     S
C576   N607    1.420   .     S
C577   C579    1.396   .     A
C577   H588    1.081   .     S
C578   C580    1.398   .     A
C578   H587    1.078   .     S
C579   C581    1.408   .     A
C579   C583    1.416   .     A
C580   C584    1.419   .     A
C580   C582    1.413   .     A
C581   C1385   1.393   .     S
C582   C1386   1.390   1_554 S
C583   C1412   1.417   .     S
C584   C1411   1.417   1_554 S
N595   Zn605   2.010   .     S
N596   Zn606   2.010   .     S
O597   Zn605   2.000   .     S
O598   Zn606   2.000   .     S
O599   Zn606   2.012   .     S
O600   Zn605   2.012   .     S
O601   Zn605   1.939   .     S
O602   Zn606   1.939   .     S
O603   Zn606   1.883   .     S
O604   Zn605   1.883   .     S
N607   H608    1.031   .     S
N607   C701    1.445   .     S
C609   H612    1.110   .     S
C609   H610    1.110   .     S
C609   N791    1.445   1_455 S
C609   H795    1.111   1_455 S
H611   C701    1.111   .     S
N613   H614    1.030   .     S
N613   C615    1.448   .     S
C615   H618    1.111   .     S
C615   H800    1.106   1_455 S
C615   H801    1.110   1_455 S
H616   C707    1.106   .     S
H617   C707    1.110   .     S
N619   H620    1.032   .     S
N619   C621    1.447   .     S
C621   H623    1.111   .     S
C621   H622    1.111   .     S
C621   H624    1.110   .     S
N625   H626    1.031   .     S
N625   C627    1.452   .     S
C627   H628    1.111   .     S
C627   H629    1.107   .     S
C627   H630    1.112   .     S
N631   C633    1.445   .     S
N631   H632    1.032   .     S
C633   H634    1.110   .     S
C633   H635    1.112   .     S
C633   H636    1.111   .     S
N637   H638    1.030   .     S
N637   C639    1.447   .     S
C639   H640    1.112   .     S
C639   H642    1.110   .     S
C639   H641    1.111   .     S
C645   C656    1.423   .     S
C645   O691    1.281   .     A
C645   O689    1.286   .     A
C646   O690    1.286   .     A
C646   C655    1.425   .     S
C646   O692    1.282   .     A
C647   N711    1.426   .     S
C647   C649    1.399   .     A
C647   C676    1.429   .     A
C648   C650    1.395   .     A
C648   N717    1.427   .     S
C648   C675    1.427   .     A
C649   H677    1.085   .     S
C649   C1501   1.393   1_554 S
C650   H678    1.083   .     S
C650   C1502   1.390   .     S
C651   C656    1.407   .     A
C651   N723    1.424   .     S
C651   C101    1.376   1_565 S
C652   N729    1.422   .     S
C652   C655    1.406   .     A
C653   H683    1.084   .     S
C653   C655    1.397   .     A
C654   H684    1.084   .     S
C654   C656    1.394   .     A
C654   C100    1.374   1_565 S
C657   F735    1.354   .     S
C657   N688    1.367   .     A
C657   C751    1.415   .     S
C658   F736    1.355   .     S
C658   N687    1.367   .     A
C659   H685    1.081   .     S
C659   N687    1.365   .     A
C660   N688    1.366   .     A
C660   H686    1.082   .     S
C660   C750    1.417   .     S
C661   O695    1.298   .     A
C661   O693    1.294   .     A
C661   C663    1.473   .     S
C662   O696    1.298   .     A
C662   O694    1.293   .     A
C662   C664    1.470   .     S
C663   C667    1.419   .     A
C663   C669    1.394   .     A
C664   C668    1.412   .     A
C664   C670    1.397   .     A
C665   C673    1.401   .     A
C665   C667    1.411   .     A
C665   H681    1.082   .     S
C666   C668    1.399   .     A
C666   H682    1.085   .     S
C666   C674    1.400   .     A
C667   N705    1.431   .     S
C668   N699    1.420   .     S
C669   C671    1.396   .     A
C669   H680    1.081   .     S
C670   C672    1.398   .     A
C670   H679    1.078   .     S
C671   C673    1.408   .     A
C671   C675    1.416   .     A
C672   C676    1.419   .     A
C672   C674    1.413   .     A
C673   C1477   1.393   .     S
C674   C1478   1.390   1_554 S
C675   C1504   1.417   .     S
C676   C1503   1.417   1_554 S
N687   Zn697   2.010   .     S
N688   Zn698   2.010   .     S
O689   Zn697   2.000   .     S
O690   Zn698   2.000   .     S
O691   Zn698   2.012   .     S
O692   Zn697   2.012   .     S
O693   Zn697   1.939   .     S
O694   Zn698   1.939   .     S
O695   Zn698   1.883   .     S
O696   Zn697   1.883   .     S
N699   H700    1.031   .     S
N699   C793    1.445   .     S
C701   H704    1.110   .     S
C701   H702    1.110   .     S
H703   C793    1.111   .     S
N705   H706    1.030   .     S
N705   C707    1.448   .     S
C707   H710    1.111   .     S
H708   C799    1.106   .     S
H709   C799    1.110   .     S
N711   H712    1.032   .     S
N711   C713    1.447   .     S
C713   H715    1.111   .     S
C713   H714    1.111   .     S
C713   H716    1.110   .     S
N717   H718    1.031   .     S
N717   C719    1.452   .     S
C719   H720    1.111   .     S
C719   H721    1.107   .     S
C719   H722    1.112   .     S
N723   C725    1.445   .     S
N723   H724    1.032   .     S
C725   H726    1.110   .     S
C725   H727    1.112   .     S
C725   H728    1.111   .     S
N729   H730    1.030   .     S
N729   C731    1.447   .     S
C731   H732    1.112   .     S
C731   H734    1.110   .     S
C731   H733    1.111   .     S
C737   C748    1.423   .     S
C737   O783    1.281   .     A
C737   O781    1.286   .     A
C738   O782    1.286   .     A
C738   C747    1.425   .     S
C738   O784    1.282   .     A
C739   N803    1.426   .     S
C739   C741    1.399   .     A
C739   C768    1.429   .     A
C740   C742    1.395   .     A
C740   N809    1.427   .     S
C740   C767    1.427   .     A
C741   H769    1.085   .     S
C741   C1593   1.393   1_554 S
C742   H770    1.083   .     S
C742   C1594   1.390   .     S
C743   C748    1.407   .     A
C743   N815    1.424   .     S
C743   C193    1.376   1_565 S
C744   N821    1.422   .     S
C744   C747    1.406   .     A
C745   H775    1.084   .     S
C745   C747    1.397   .     A
C746   H776    1.084   .     S
C746   C748    1.394   .     A
C746   C192    1.374   1_565 S
C749   F827    1.354   .     S
C749   N780    1.367   .     A
C749   C567    1.415   1_655 S
C750   F828    1.355   .     S
C750   N779    1.367   .     A
C751   H777    1.081   .     S
C751   N779    1.365   .     A
C752   N780    1.366   .     A
C752   H778    1.082   .     S
C752   C566    1.417   1_655 S
C753   O787    1.298   .     A
C753   O785    1.294   .     A
C753   C755    1.473   .     S
C754   O788    1.298   .     A
C754   O786    1.293   .     A
C754   C756    1.470   .     S
C755   C759    1.419   .     A
C755   C761    1.394   .     A
C756   C760    1.412   .     A
C756   C762    1.397   .     A
C757   C765    1.401   .     A
C757   C759    1.411   .     A
C757   H773    1.082   .     S
C758   C760    1.399   .     A
C758   H774    1.085   .     S
C758   C766    1.400   .     A
C759   N797    1.431   .     S
C760   N791    1.420   .     S
C761   C763    1.396   .     A
C761   H772    1.081   .     S
C762   C764    1.398   .     A
C762   H771    1.078   .     S
C763   C765    1.408   .     A
C763   C767    1.416   .     A
C764   C768    1.419   .     A
C764   C766    1.413   .     A
C765   C1569   1.393   .     S
C766   C1570   1.390   1_554 S
C767   C1596   1.417   .     S
C768   C1595   1.417   1_554 S
N779   Zn789   2.010   .     S
N780   Zn790   2.010   .     S
O781   Zn789   2.000   .     S
O782   Zn790   2.000   .     S
O783   Zn790   2.012   .     S
O784   Zn789   2.012   .     S
O785   Zn789   1.939   .     S
O786   Zn790   1.939   .     S
O787   Zn790   1.883   .     S
O788   Zn789   1.883   .     S
N791   H792    1.031   .     S
N791   C609    1.445   1_655 S
C793   H796    1.110   .     S
C793   H794    1.110   .     S
H795   C609    1.111   1_655 S
N797   H798    1.030   .     S
N797   C799    1.448   .     S
C799   H802    1.111   .     S
H800   C615    1.106   1_655 S
H801   C615    1.110   1_655 S
N803   H804    1.032   .     S
N803   C805    1.447   .     S
C805   H807    1.111   .     S
C805   H806    1.111   .     S
C805   H808    1.110   .     S
N809   H810    1.031   .     S
N809   C811    1.452   .     S
C811   H812    1.111   .     S
C811   H813    1.107   .     S
C811   H814    1.112   .     S
N815   C817    1.445   .     S
N815   H816    1.032   .     S
C817   H818    1.110   .     S
C817   H819    1.112   .     S
C817   H820    1.111   .     S
N821   H822    1.030   .     S
N821   C823    1.447   .     S
C823   H824    1.112   .     S
C823   H826    1.110   .     S
C823   H825    1.111   .     S
C829   C840    1.423   .     S
C829   O875    1.281   .     A
C829   O873    1.286   .     A
C830   O874    1.286   .     A
C830   C839    1.425   .     S
C830   O876    1.282   .     A
C831   N895    1.426   .     S
C831   C833    1.399   .     A
C831   C860    1.429   .     A
C832   C834    1.395   .     A
C832   N901    1.427   .     S
C832   C859    1.427   .     A
C833   H861    1.085   .     S
C834   H862    1.083   .     S
C834   C30     1.390   1_556 S
C835   C840    1.407   .     A
C835   N907    1.424   .     S
C835   C1113   1.376   .     S
C836   N913    1.422   .     S
C836   C839    1.406   .     A
C836   C1390   1.374   1_545 S
C837   H867    1.084   .     S
C837   C839    1.397   .     A
C837   C1387   1.376   1_545 S
C838   H868    1.084   .     S
C838   C840    1.394   .     A
C838   C1112   1.374   .     S
C841   F919    1.354   .     S
C841   N872    1.367   .     A
C841   C935    1.415   .     S
C842   F920    1.355   .     S
C842   N871    1.367   .     A
C842   C1028   1.417   1_455 S
C843   H869    1.081   .     S
C843   N871    1.365   .     A
C843   C1025   1.415   1_455 S
C844   N872    1.366   .     A
C844   H870    1.082   .     S
C844   C934    1.417   .     S
C845   O879    1.298   .     A
C845   O877    1.294   .     A
C845   C847    1.473   .     S
C846   O880    1.298   .     A
C846   O878    1.293   .     A
C846   C848    1.470   .     S
C847   C851    1.419   .     A
C847   C853    1.394   .     A
C848   C852    1.412   .     A
C848   C854    1.397   .     A
C849   C857    1.401   .     A
C849   C851    1.411   .     A
C849   H865    1.082   .     S
C850   C852    1.399   .     A
C850   H866    1.085   .     S
C850   C858    1.400   .     A
C851   N889    1.431   .     S
C852   N883    1.420   .     S
C853   C855    1.396   .     A
C853   H864    1.081   .     S
C854   C856    1.398   .     A
C854   H863    1.078   .     S
C855   C857    1.408   .     A
C855   C859    1.416   .     A
C856   C860    1.419   .     A
C856   C858    1.413   .     A
C857   C5      1.393   1_556 S
C859   C32     1.417   1_556 S
N871   Zn881   2.010   .     S
N872   Zn882   2.010   .     S
O873   Zn881   2.000   .     S
O874   Zn882   2.000   .     S
O875   Zn882   2.012   .     S
O876   Zn881   2.012   .     S
O877   Zn881   1.939   .     S
O878   Zn882   1.939   .     S
O879   Zn882   1.883   .     S
O880   Zn881   1.883   .     S
N883   H884    1.031   .     S
N883   C977    1.445   .     S
C885   H888    1.110   .     S
C885   H886    1.110   .     S
C885   N1067   1.445   1_455 S
C885   H1071   1.111   1_455 S
H887   C977    1.111   .     S
N889   H890    1.030   .     S
N889   C891    1.448   .     S
C891   H894    1.111   .     S
C891   H1076   1.106   1_455 S
C891   H1077   1.110   1_455 S
H892   C983    1.106   .     S
H893   C983    1.110   .     S
N895   H896    1.032   .     S
N895   C897    1.447   .     S
C897   H899    1.111   .     S
C897   H898    1.111   .     S
C897   H900    1.110   .     S
N901   H902    1.031   .     S
N901   C903    1.452   .     S
C903   H904    1.111   .     S
C903   H905    1.107   .     S
C903   H906    1.112   .     S
N907   C909    1.445   .     S
N907   H908    1.032   .     S
C909   H910    1.110   .     S
C909   H911    1.112   .     S
C909   H912    1.111   .     S
N913   H914    1.030   .     S
N913   C915    1.447   .     S
C915   H916    1.112   .     S
C915   H918    1.110   .     S
C915   H917    1.111   .     S
C921   C932    1.423   .     S
C921   O967    1.281   .     A
C921   O965    1.286   .     A
C922   O966    1.286   .     A
C922   C931    1.425   .     S
C922   O968    1.282   .     A
C923   N987    1.426   .     S
C923   C925    1.399   .     A
C923   C952    1.429   .     A
C924   C926    1.395   .     A
C924   N993    1.427   .     S
C924   C951    1.427   .     A
C925   H953    1.085   .     S
C926   H954    1.083   .     S
C926   C122    1.390   1_556 S
C927   C932    1.407   .     A
C927   N999    1.424   .     S
C927   C1205   1.376   .     S
C928   N1005   1.422   .     S
C928   C931    1.406   .     A
C928   C1482   1.374   1_545 S
C929   H959    1.084   .     S
C929   C931    1.397   .     A
C929   C1479   1.376   1_545 S
C930   H960    1.084   .     S
C930   C932    1.394   .     A
C930   C1204   1.374   .     S
C933   F1011   1.354   .     S
C933   N964    1.367   .     A
C933   C1027   1.415   .     S
C934   F1012   1.355   .     S
C934   N963    1.367   .     A
C935   H961    1.081   .     S
C935   N963    1.365   .     A
C936   N964    1.366   .     A
C936   H962    1.082   .     S
C936   C1026   1.417   .     S
C937   O971    1.298   .     A
C937   O969    1.294   .     A
C937   C939    1.473   .     S
C938   O972    1.298   .     A
C938   O970    1.293   .     A
C938   C940    1.470   .     S
C939   C943    1.419   .     A
C939   C945    1.394   .     A
C940   C944    1.412   .     A
C940   C946    1.397   .     A
C941   C949    1.401   .     A
C941   C943    1.411   .     A
C941   H957    1.082   .     S
C942   C944    1.399   .     A
C942   H958    1.085   .     S
C942   C950    1.400   .     A
C943   N981    1.431   .     S
C944   N975    1.420   .     S
C945   C947    1.396   .     A
C945   H956    1.081   .     S
C946   C948    1.398   .     A
C946   H955    1.078   .     S
C947   C949    1.408   .     A
C947   C951    1.416   .     A
C948   C952    1.419   .     A
C948   C950    1.413   .     A
C949   C97     1.393   1_556 S
C951   C124    1.417   1_556 S
N963   Zn973   2.010   .     S
N964   Zn974   2.010   .     S
O965   Zn973   2.000   .     S
O966   Zn974   2.000   .     S
O967   Zn974   2.012   .     S
O968   Zn973   2.012   .     S
O969   Zn973   1.939   .     S
O970   Zn974   1.939   .     S
O971   Zn974   1.883   .     S
O972   Zn973   1.883   .     S
N975   H976    1.031   .     S
N975   C1069   1.445   .     S
C977   H980    1.110   .     S
C977   H978    1.110   .     S
H979   C1069   1.111   .     S
N981   H982    1.030   .     S
N981   C983    1.448   .     S
C983   H986    1.111   .     S
H984   C1075   1.106   .     S
H985   C1075   1.110   .     S
N987   H988    1.032   .     S
N987   C989    1.447   .     S
C989   H991    1.111   .     S
C989   H990    1.111   .     S
C989   H992    1.110   .     S
N993   H994    1.031   .     S
N993   C995    1.452   .     S
C995   H996    1.111   .     S
C995   H997    1.107   .     S
C995   H998    1.112   .     S
N999   C1001   1.445   .     S
N999   H1000   1.032   .     S
C1001  H1002   1.110   .     S
C1001  H1003   1.112   .     S
C1001  H1004   1.111   .     S
N1005  H1006   1.030   .     S
N1005  C1007   1.447   .     S
C1007  H1008   1.112   .     S
C1007  H1010   1.110   .     S
C1007  H1009   1.111   .     S
C1013  C1024   1.423   .     S
C1013  O1059   1.281   .     A
C1013  O1057   1.286   .     A
C1014  O1058   1.286   .     A
C1014  C1023   1.425   .     S
C1014  O1060   1.282   .     A
C1015  N1079   1.426   .     S
C1015  C1017   1.399   .     A
C1015  C1044   1.429   .     A
C1016  C1018   1.395   .     A
C1016  N1085   1.427   .     S
C1016  C1043   1.427   .     A
C1017  H1045   1.085   .     S
C1018  H1046   1.083   .     S
C1018  C214    1.390   1_556 S
C1019  C1024   1.407   .     A
C1019  N1091   1.424   .     S
C1019  C1297   1.376   .     S
C1020  N1097   1.422   .     S
C1020  C1023   1.406   .     A
C1020  C1574   1.374   1_545 S
C1021  H1051   1.084   .     S
C1021  C1023   1.397   .     A
C1021  C1571   1.376   1_545 S
C1022  H1052   1.084   .     S
C1022  C1024   1.394   .     A
C1022  C1296   1.374   .     S
C1025  F1103   1.354   .     S
C1025  N1056   1.367   .     A
C1025  C843    1.415   1_655 S
C1026  F1104   1.355   .     S
C1026  N1055   1.367   .     A
C1027  H1053   1.081   .     S
C1027  N1055   1.365   .     A
C1028  N1056   1.366   .     A
C1028  H1054   1.082   .     S
C1028  C842    1.417   1_655 S
C1029  O1063   1.298   .     A
C1029  O1061   1.294   .     A
C1029  C1031   1.473   .     S
C1030  O1064   1.298   .     A
C1030  O1062   1.293   .     A
C1030  C1032   1.470   .     S
C1031  C1035   1.419   .     A
C1031  C1037   1.394   .     A
C1032  C1036   1.412   .     A
C1032  C1038   1.397   .     A
C1033  C1041   1.401   .     A
C1033  C1035   1.411   .     A
C1033  H1049   1.082   .     S
C1034  C1036   1.399   .     A
C1034  H1050   1.085   .     S
C1034  C1042   1.400   .     A
C1035  N1073   1.431   .     S
C1036  N1067   1.420   .     S
C1037  C1039   1.396   .     A
C1037  H1048   1.081   .     S
C1038  C1040   1.398   .     A
C1038  H1047   1.078   .     S
C1039  C1041   1.408   .     A
C1039  C1043   1.416   .     A
C1040  C1044   1.419   .     A
C1040  C1042   1.413   .     A
C1041  C189    1.393   1_556 S
C1043  C216    1.417   1_556 S
N1055  Zn1065  2.010   .     S
N1056  Zn1066  2.010   .     S
O1057  Zn1065  2.000   .     S
O1058  Zn1066  2.000   .     S
O1059  Zn1066  2.012   .     S
O1060  Zn1065  2.012   .     S
O1061  Zn1065  1.939   .     S
O1062  Zn1066  1.939   .     S
O1063  Zn1066  1.883   .     S
O1064  Zn1065  1.883   .     S
N1067  H1068   1.031   .     S
N1067  C885    1.445   1_655 S
C1069  H1072   1.110   .     S
C1069  H1070   1.110   .     S
H1071  C885    1.111   1_655 S
N1073  H1074   1.030   .     S
N1073  C1075   1.448   .     S
C1075  H1078   1.111   .     S
H1076  C891    1.106   1_655 S
H1077  C891    1.110   1_655 S
N1079  H1080   1.032   .     S
N1079  C1081   1.447   .     S
C1081  H1083   1.111   .     S
C1081  H1082   1.111   .     S
C1081  H1084   1.110   .     S
N1085  H1086   1.031   .     S
N1085  C1087   1.452   .     S
C1087  H1088   1.111   .     S
C1087  H1089   1.107   .     S
C1087  H1090   1.112   .     S
N1091  C1093   1.445   .     S
N1091  H1092   1.032   .     S
C1093  H1094   1.110   .     S
C1093  H1095   1.112   .     S
C1093  H1096   1.111   .     S
N1097  H1098   1.030   .     S
N1097  C1099   1.447   .     S
C1099  H1100   1.112   .     S
C1099  H1102   1.110   .     S
C1099  H1101   1.111   .     S
C1105  C1116   1.423   .     S
C1105  O1151   1.281   .     A
C1105  O1149   1.286   .     A
C1106  O1150   1.286   .     A
C1106  C1115   1.425   .     S
C1106  O1152   1.282   .     A
C1107  N1171   1.426   .     S
C1107  C1109   1.399   .     A
C1107  C1136   1.429   .     A
C1108  C1110   1.395   .     A
C1108  N1177   1.427   .     S
C1108  C1135   1.427   .     A
C1109  H1137   1.085   .     S
C1110  H1138   1.083   .     S
C1110  C306    1.390   1_556 S
C1111  C1116   1.407   .     A
C1111  N1183   1.424   .     S
C1111  C1389   1.376   .     S
C1112  N1189   1.422   .     S
C1112  C1115   1.406   .     A
C1113  H1143   1.084   .     S
C1113  C1115   1.397   .     A
C1114  H1144   1.084   .     S
C1114  C1116   1.394   .     A
C1114  C1388   1.374   .     S
C1117  F1195   1.354   .     S
C1117  N1148   1.367   .     A
C1117  C1211   1.415   .     S
C1118  F1196   1.355   .     S
C1118  N1147   1.367   .     A
C1118  C1304   1.417   1_455 S
C1119  H1145   1.081   .     S
C1119  N1147   1.365   .     A
C1119  C1301   1.415   1_455 S
C1120  N1148   1.366   .     A
C1120  H1146   1.082   .     S
C1120  C1210   1.417   .     S
C1121  O1155   1.298   .     A
C1121  O1153   1.294   .     A
C1121  C1123   1.473   .     S
C1122  O1156   1.298   .     A
C1122  O1154   1.293   .     A
C1122  C1124   1.470   .     S
C1123  C1127   1.419   .     A
C1123  C1129   1.394   .     A
C1124  C1128   1.412   .     A
C1124  C1130   1.397   .     A
C1125  C1133   1.401   .     A
C1125  C1127   1.411   .     A
C1125  H1141   1.082   .     S
C1126  C1128   1.399   .     A
C1126  H1142   1.085   .     S
C1126  C1134   1.400   .     A
C1127  N1165   1.431   .     S
C1128  N1159   1.420   .     S
C1129  C1131   1.396   .     A
C1129  H1140   1.081   .     S
C1130  C1132   1.398   .     A
C1130  H1139   1.078   .     S
C1131  C1133   1.408   .     A
C1131  C1135   1.416   .     A
C1132  C1136   1.419   .     A
C1132  C1134   1.413   .     A
C1133  C281    1.393   1_556 S
C1135  C308    1.417   1_556 S
N1147  Zn1157  2.010   .     S
N1148  Zn1158  2.010   .     S
O1149  Zn1157  2.000   .     S
O1150  Zn1158  2.000   .     S
O1151  Zn1158  2.012   .     S
O1152  Zn1157  2.012   .     S
O1153  Zn1157  1.939   .     S
O1154  Zn1158  1.939   .     S
O1155  Zn1158  1.883   .     S
O1156  Zn1157  1.883   .     S
N1159  H1160   1.031   .     S
N1159  C1253   1.445   .     S
C1161  H1164   1.110   .     S
C1161  H1162   1.110   .     S
C1161  N1343   1.445   1_455 S
C1161  H1347   1.111   1_455 S
H1163  C1253   1.111   .     S
N1165  H1166   1.030   .     S
N1165  C1167   1.448   .     S
C1167  H1170   1.111   .     S
C1167  H1352   1.106   1_455 S
C1167  H1353   1.110   1_455 S
H1168  C1259   1.106   .     S
H1169  C1259   1.110   .     S
N1171  H1172   1.032   .     S
N1171  C1173   1.447   .     S
C1173  H1175   1.111   .     S
C1173  H1174   1.111   .     S
C1173  H1176   1.110   .     S
N1177  H1178   1.031   .     S
N1177  C1179   1.452   .     S
C1179  H1180   1.111   .     S
C1179  H1181   1.107   .     S
C1179  H1182   1.112   .     S
N1183  C1185   1.445   .     S
N1183  H1184   1.032   .     S
C1185  H1186   1.110   .     S
C1185  H1187   1.112   .     S
C1185  H1188   1.111   .     S
N1189  H1190   1.030   .     S
N1189  C1191   1.447   .     S
C1191  H1192   1.112   .     S
C1191  H1194   1.110   .     S
C1191  H1193   1.111   .     S
C1197  C1208   1.423   .     S
C1197  O1243   1.281   .     A
C1197  O1241   1.286   .     A
C1198  O1242   1.286   .     A
C1198  C1207   1.425   .     S
C1198  O1244   1.282   .     A
C1199  N1263   1.426   .     S
C1199  C1201   1.399   .     A
C1199  C1228   1.429   .     A
C1200  C1202   1.395   .     A
C1200  N1269   1.427   .     S
C1200  C1227   1.427   .     A
C1201  H1229   1.085   .     S
C1202  H1230   1.083   .     S
C1202  C398    1.390   1_556 S
C1203  C1208   1.407   .     A
C1203  N1275   1.424   .     S
C1203  C1481   1.376   .     S
C1204  N1281   1.422   .     S
C1204  C1207   1.406   .     A
C1205  H1235   1.084   .     S
C1205  C1207   1.397   .     A
C1206  H1236   1.084   .     S
C1206  C1208   1.394   .     A
C1206  C1480   1.374   .     S
C1209  F1287   1.354   .     S
C1209  N1240   1.367   .     A
C1209  C1303   1.415   .     S
C1210  F1288   1.355   .     S
C1210  N1239   1.367   .     A
C1211  H1237   1.081   .     S
C1211  N1239   1.365   .     A
C1212  N1240   1.366   .     A
C1212  H1238   1.082   .     S
C1212  C1302   1.417   .     S
C1213  O1247   1.298   .     A
C1213  O1245   1.294   .     A
C1213  C1215   1.473   .     S
C1214  O1248   1.298   .     A
C1214  O1246   1.293   .     A
C1214  C1216   1.470   .     S
C1215  C1219   1.419   .     A
C1215  C1221   1.394   .     A
C1216  C1220   1.412   .     A
C1216  C1222   1.397   .     A
C1217  C1225   1.401   .     A
C1217  C1219   1.411   .     A
C1217  H1233   1.082   .     S
C1218  C1220   1.399   .     A
C1218  H1234   1.085   .     S
C1218  C1226   1.400   .     A
C1219  N1257   1.431   .     S
C1220  N1251   1.420   .     S
C1221  C1223   1.396   .     A
C1221  H1232   1.081   .     S
C1222  C1224   1.398   .     A
C1222  H1231   1.078   .     S
C1223  C1225   1.408   .     A
C1223  C1227   1.416   .     A
C1224  C1228   1.419   .     A
C1224  C1226   1.413   .     A
C1225  C373    1.393   1_556 S
C1227  C400    1.417   1_556 S
N1239  Zn1249  2.010   .     S
N1240  Zn1250  2.010   .     S
O1241  Zn1249  2.000   .     S
O1242  Zn1250  2.000   .     S
O1243  Zn1250  2.012   .     S
O1244  Zn1249  2.012   .     S
O1245  Zn1249  1.939   .     S
O1246  Zn1250  1.939   .     S
O1247  Zn1250  1.883   .     S
O1248  Zn1249  1.883   .     S
N1251  H1252   1.031   .     S
N1251  C1345   1.445   .     S
C1253  H1256   1.110   .     S
C1253  H1254   1.110   .     S
H1255  C1345   1.111   .     S
N1257  H1258   1.030   .     S
N1257  C1259   1.448   .     S
C1259  H1262   1.111   .     S
H1260  C1351   1.106   .     S
H1261  C1351   1.110   .     S
N1263  H1264   1.032   .     S
N1263  C1265   1.447   .     S
C1265  H1267   1.111   .     S
C1265  H1266   1.111   .     S
C1265  H1268   1.110   .     S
N1269  H1270   1.031   .     S
N1269  C1271   1.452   .     S
C1271  H1272   1.111   .     S
C1271  H1273   1.107   .     S
C1271  H1274   1.112   .     S
N1275  C1277   1.445   .     S
N1275  H1276   1.032   .     S
C1277  H1278   1.110   .     S
C1277  H1279   1.112   .     S
C1277  H1280   1.111   .     S
N1281  H1282   1.030   .     S
N1281  C1283   1.447   .     S
C1283  H1284   1.112   .     S
C1283  H1286   1.110   .     S
C1283  H1285   1.111   .     S
C1289  C1300   1.423   .     S
C1289  O1335   1.281   .     A
C1289  O1333   1.286   .     A
C1290  O1334   1.286   .     A
C1290  C1299   1.425   .     S
C1290  O1336   1.282   .     A
C1291  N1355   1.426   .     S
C1291  C1293   1.399   .     A
C1291  C1320   1.429   .     A
C1292  C1294   1.395   .     A
C1292  N1361   1.427   .     S
C1292  C1319   1.427   .     A
C1293  H1321   1.085   .     S
C1294  H1322   1.083   .     S
C1294  C490    1.390   1_556 S
C1295  C1300   1.407   .     A
C1295  N1367   1.424   .     S
C1295  C1573   1.376   .     S
C1296  N1373   1.422   .     S
C1296  C1299   1.406   .     A
C1297  H1327   1.084   .     S
C1297  C1299   1.397   .     A
C1298  H1328   1.084   .     S
C1298  C1300   1.394   .     A
C1298  C1572   1.374   .     S
C1301  F1379   1.354   .     S
C1301  N1332   1.367   .     A
C1301  C1119   1.415   1_655 S
C1302  F1380   1.355   .     S
C1302  N1331   1.367   .     A
C1303  H1329   1.081   .     S
C1303  N1331   1.365   .     A
C1304  N1332   1.366   .     A
C1304  H1330   1.082   .     S
C1304  C1118   1.417   1_655 S
C1305  O1339   1.298   .     A
C1305  O1337   1.294   .     A
C1305  C1307   1.473   .     S
C1306  O1340   1.298   .     A
C1306  O1338   1.293   .     A
C1306  C1308   1.470   .     S
C1307  C1311   1.419   .     A
C1307  C1313   1.394   .     A
C1308  C1312   1.412   .     A
C1308  C1314   1.397   .     A
C1309  C1317   1.401   .     A
C1309  C1311   1.411   .     A
C1309  H1325   1.082   .     S
C1310  C1312   1.399   .     A
C1310  H1326   1.085   .     S
C1310  C1318   1.400   .     A
C1311  N1349   1.431   .     S
C1312  N1343   1.420   .     S
C1313  C1315   1.396   .     A
C1313  H1324   1.081   .     S
C1314  C1316   1.398   .     A
C1314  H1323   1.078   .     S
C1315  C1317   1.408   .     A
C1315  C1319   1.416   .     A
C1316  C1320   1.419   .     A
C1316  C1318   1.413   .     A
C1317  C465    1.393   1_556 S
C1319  C492    1.417   1_556 S
N1331  Zn1341  2.010   .     S
N1332  Zn1342  2.010   .     S
O1333  Zn1341  2.000   .     S
O1334  Zn1342  2.000   .     S
O1335  Zn1342  2.012   .     S
O1336  Zn1341  2.012   .     S
O1337  Zn1341  1.939   .     S
O1338  Zn1342  1.939   .     S
O1339  Zn1342  1.883   .     S
O1340  Zn1341  1.883   .     S
N1343  H1344   1.031   .     S
N1343  C1161   1.445   1_655 S
C1345  H1348   1.110   .     S
C1345  H1346   1.110   .     S
H1347  C1161   1.111   1_655 S
N1349  H1350   1.030   .     S
N1349  C1351   1.448   .     S
C1351  H1354   1.111   .     S
H1352  C1167   1.106   1_655 S
H1353  C1167   1.110   1_655 S
N1355  H1356   1.032   .     S
N1355  C1357   1.447   .     S
C1357  H1359   1.111   .     S
C1357  H1358   1.111   .     S
C1357  H1360   1.110   .     S
N1361  H1362   1.031   .     S
N1361  C1363   1.452   .     S
C1363  H1364   1.111   .     S
C1363  H1365   1.107   .     S
C1363  H1366   1.112   .     S
N1367  C1369   1.445   .     S
N1367  H1368   1.032   .     S
C1369  H1370   1.110   .     S
C1369  H1371   1.112   .     S
C1369  H1372   1.111   .     S
N1373  H1374   1.030   .     S
N1373  C1375   1.447   .     S
C1375  H1376   1.112   .     S
C1375  H1378   1.110   .     S
C1375  H1377   1.111   .     S
C1381  C1392   1.423   .     S
C1381  O1427   1.281   .     A
C1381  O1425   1.286   .     A
C1382  O1426   1.286   .     A
C1382  C1391   1.425   .     S
C1382  O1428   1.282   .     A
C1383  N1447   1.426   .     S
C1383  C1385   1.399   .     A
C1383  C1412   1.429   .     A
C1384  C1386   1.395   .     A
C1384  N1453   1.427   .     S
C1384  C1411   1.427   .     A
C1385  H1413   1.085   .     S
C1386  H1414   1.083   .     S
C1386  C582    1.390   1_556 S
C1387  C1392   1.407   .     A
C1387  N1459   1.424   .     S
C1387  C837    1.376   1_565 S
C1388  N1465   1.422   .     S
C1388  C1391   1.406   .     A
C1389  H1419   1.084   .     S
C1389  C1391   1.397   .     A
C1390  H1420   1.084   .     S
C1390  C1392   1.394   .     A
C1390  C836    1.374   1_565 S
C1393  F1471   1.354   .     S
C1393  N1424   1.367   .     A
C1393  C1487   1.415   .     S
C1394  F1472   1.355   .     S
C1394  N1423   1.367   .     A
C1394  C1580   1.417   1_455 S
C1395  H1421   1.081   .     S
C1395  N1423   1.365   .     A
C1395  C1577   1.415   1_455 S
C1396  N1424   1.366   .     A
C1396  H1422   1.082   .     S
C1396  C1486   1.417   .     S
C1397  O1431   1.298   .     A
C1397  O1429   1.294   .     A
C1397  C1399   1.473   .     S
C1398  O1432   1.298   .     A
C1398  O1430   1.293   .     A
C1398  C1400   1.470   .     S
C1399  C1403   1.419   .     A
C1399  C1405   1.394   .     A
C1400  C1404   1.412   .     A
C1400  C1406   1.397   .     A
C1401  C1409   1.401   .     A
C1401  C1403   1.411   .     A
C1401  H1417   1.082   .     S
C1402  C1404   1.399   .     A
C1402  H1418   1.085   .     S
C1402  C1410   1.400   .     A
C1403  N1441   1.431   .     S
C1404  N1435   1.420   .     S
C1405  C1407   1.396   .     A
C1405  H1416   1.081   .     S
C1406  C1408   1.398   .     A
C1406  H1415   1.078   .     S
C1407  C1409   1.408   .     A
C1407  C1411   1.416   .     A
C1408  C1412   1.419   .     A
C1408  C1410   1.413   .     A
C1409  C557    1.393   1_556 S
C1411  C584    1.417   1_556 S
N1423  Zn1433  2.010   .     S
N1424  Zn1434  2.010   .     S
O1425  Zn1433  2.000   .     S
O1426  Zn1434  2.000   .     S
O1427  Zn1434  2.012   .     S
O1428  Zn1433  2.012   .     S
O1429  Zn1433  1.939   .     S
O1430  Zn1434  1.939   .     S
O1431  Zn1434  1.883   .     S
O1432  Zn1433  1.883   .     S
N1435  H1436   1.031   .     S
N1435  C1529   1.445   .     S
C1437  H1440   1.110   .     S
C1437  H1438   1.110   .     S
C1437  N1619   1.445   1_455 S
C1437  H1623   1.111   1_455 S
H1439  C1529   1.111   .     S
N1441  H1442   1.030   .     S
N1441  C1443   1.448   .     S
C1443  H1446   1.111   .     S
C1443  H1628   1.106   1_455 S
C1443  H1629   1.110   1_455 S
H1444  C1535   1.106   .     S
H1445  C1535   1.110   .     S
N1447  H1448   1.032   .     S
N1447  C1449   1.447   .     S
C1449  H1451   1.111   .     S
C1449  H1450   1.111   .     S
C1449  H1452   1.110   .     S
N1453  H1454   1.031   .     S
N1453  C1455   1.452   .     S
C1455  H1456   1.111   .     S
C1455  H1457   1.107   .     S
C1455  H1458   1.112   .     S
N1459  C1461   1.445   .     S
N1459  H1460   1.032   .     S
C1461  H1462   1.110   .     S
C1461  H1463   1.112   .     S
C1461  H1464   1.111   .     S
N1465  H1466   1.030   .     S
N1465  C1467   1.447   .     S
C1467  H1468   1.112   .     S
C1467  H1470   1.110   .     S
C1467  H1469   1.111   .     S
C1473  C1484   1.423   .     S
C1473  O1519   1.281   .     A
C1473  O1517   1.286   .     A
C1474  O1518   1.286   .     A
C1474  C1483   1.425   .     S
C1474  O1520   1.282   .     A
C1475  N1539   1.426   .     S
C1475  C1477   1.399   .     A
C1475  C1504   1.429   .     A
C1476  C1478   1.395   .     A
C1476  N1545   1.427   .     S
C1476  C1503   1.427   .     A
C1477  H1505   1.085   .     S
C1478  H1506   1.083   .     S
C1478  C674    1.390   1_556 S
C1479  C1484   1.407   .     A
C1479  N1551   1.424   .     S
C1479  C929    1.376   1_565 S
C1480  N1557   1.422   .     S
C1480  C1483   1.406   .     A
C1481  H1511   1.084   .     S
C1481  C1483   1.397   .     A
C1482  H1512   1.084   .     S
C1482  C1484   1.394   .     A
C1482  C928    1.374   1_565 S
C1485  F1563   1.354   .     S
C1485  N1516   1.367   .     A
C1485  C1579   1.415   .     S
C1486  F1564   1.355   .     S
C1486  N1515   1.367   .     A
C1487  H1513   1.081   .     S
C1487  N1515   1.365   .     A
C1488  N1516   1.366   .     A
C1488  H1514   1.082   .     S
C1488  C1578   1.417   .     S
C1489  O1523   1.298   .     A
C1489  O1521   1.294   .     A
C1489  C1491   1.473   .     S
C1490  O1524   1.298   .     A
C1490  O1522   1.293   .     A
C1490  C1492   1.470   .     S
C1491  C1495   1.419   .     A
C1491  C1497   1.394   .     A
C1492  C1496   1.412   .     A
C1492  C1498   1.397   .     A
C1493  C1501   1.401   .     A
C1493  C1495   1.411   .     A
C1493  H1509   1.082   .     S
C1494  C1496   1.399   .     A
C1494  H1510   1.085   .     S
C1494  C1502   1.400   .     A
C1495  N1533   1.431   .     S
C1496  N1527   1.420   .     S
C1497  C1499   1.396   .     A
C1497  H1508   1.081   .     S
C1498  C1500   1.398   .     A
C1498  H1507   1.078   .     S
C1499  C1501   1.408   .     A
C1499  C1503   1.416   .     A
C1500  C1504   1.419   .     A
C1500  C1502   1.413   .     A
C1501  C649    1.393   1_556 S
C1503  C676    1.417   1_556 S
N1515  Zn1525  2.010   .     S
N1516  Zn1526  2.010   .     S
O1517  Zn1525  2.000   .     S
O1518  Zn1526  2.000   .     S
O1519  Zn1526  2.012   .     S
O1520  Zn1525  2.012   .     S
O1521  Zn1525  1.939   .     S
O1522  Zn1526  1.939   .     S
O1523  Zn1526  1.883   .     S
O1524  Zn1525  1.883   .     S
N1527  H1528   1.031   .     S
N1527  C1621   1.445   .     S
C1529  H1532   1.110   .     S
C1529  H1530   1.110   .     S
H1531  C1621   1.111   .     S
N1533  H1534   1.030   .     S
N1533  C1535   1.448   .     S
C1535  H1538   1.111   .     S
H1536  C1627   1.106   .     S
H1537  C1627   1.110   .     S
N1539  H1540   1.032   .     S
N1539  C1541   1.447   .     S
C1541  H1543   1.111   .     S
C1541  H1542   1.111   .     S
C1541  H1544   1.110   .     S
N1545  H1546   1.031   .     S
N1545  C1547   1.452   .     S
C1547  H1548   1.111   .     S
C1547  H1549   1.107   .     S
C1547  H1550   1.112   .     S
N1551  C1553   1.445   .     S
N1551  H1552   1.032   .     S
C1553  H1554   1.110   .     S
C1553  H1555   1.112   .     S
C1553  H1556   1.111   .     S
N1557  H1558   1.030   .     S
N1557  C1559   1.447   .     S
C1559  H1560   1.112   .     S
C1559  H1562   1.110   .     S
C1559  H1561   1.111   .     S
C1565  C1576   1.423   .     S
C1565  O1611   1.281   .     A
C1565  O1609   1.286   .     A
C1566  O1610   1.286   .     A
C1566  C1575   1.425   .     S
C1566  O1612   1.282   .     A
C1567  N1631   1.426   .     S
C1567  C1569   1.399   .     A
C1567  C1596   1.429   .     A
C1568  C1570   1.395   .     A
C1568  N1637   1.427   .     S
C1568  C1595   1.427   .     A
C1569  H1597   1.085   .     S
C1570  H1598   1.083   .     S
C1570  C766    1.390   1_556 S
C1571  C1576   1.407   .     A
C1571  N1643   1.424   .     S
C1571  C1021   1.376   1_565 S
C1572  N1649   1.422   .     S
C1572  C1575   1.406   .     A
C1573  H1603   1.084   .     S
C1573  C1575   1.397   .     A
C1574  H1604   1.084   .     S
C1574  C1576   1.394   .     A
C1574  C1020   1.374   1_565 S
C1577  F1655   1.354   .     S
C1577  N1608   1.367   .     A
C1577  C1395   1.415   1_655 S
C1578  F1656   1.355   .     S
C1578  N1607   1.367   .     A
C1579  H1605   1.081   .     S
C1579  N1607   1.365   .     A
C1580  N1608   1.366   .     A
C1580  H1606   1.082   .     S
C1580  C1394   1.417   1_655 S
C1581  O1615   1.298   .     A
C1581  O1613   1.294   .     A
C1581  C1583   1.473   .     S
C1582  O1616   1.298   .     A
C1582  O1614   1.293   .     A
C1582  C1584   1.470   .     S
C1583  C1587   1.419   .     A
C1583  C1589   1.394   .     A
C1584  C1588   1.412   .     A
C1584  C1590   1.397   .     A
C1585  C1593   1.401   .     A
C1585  C1587   1.411   .     A
C1585  H1601   1.082   .     S
C1586  C1588   1.399   .     A
C1586  H1602   1.085   .     S
C1586  C1594   1.400   .     A
C1587  N1625   1.431   .     S
C1588  N1619   1.420   .     S
C1589  C1591   1.396   .     A
C1589  H1600   1.081   .     S
C1590  C1592   1.398   .     A
C1590  H1599   1.078   .     S
C1591  C1593   1.408   .     A
C1591  C1595   1.416   .     A
C1592  C1596   1.419   .     A
C1592  C1594   1.413   .     A
C1593  C741    1.393   1_556 S
C1595  C768    1.417   1_556 S
N1607  Zn1617  2.010   .     S
N1608  Zn1618  2.010   .     S
O1609  Zn1617  2.000   .     S
O1610  Zn1618  2.000   .     S
O1611  Zn1618  2.012   .     S
O1612  Zn1617  2.012   .     S
O1613  Zn1617  1.939   .     S
O1614  Zn1618  1.939   .     S
O1615  Zn1618  1.883   .     S
O1616  Zn1617  1.883   .     S
N1619  H1620   1.031   .     S
N1619  C1437   1.445   1_655 S
C1621  H1624   1.110   .     S
C1621  H1622   1.110   .     S
H1623  C1437   1.111   1_655 S
N1625  H1626   1.030   .     S
N1625  C1627   1.448   .     S
C1627  H1630   1.111   .     S
H1628  C1443   1.106   1_655 S
H1629  C1443   1.110   1_655 S
N1631  H1632   1.032   .     S
N1631  C1633   1.447   .     S
C1633  H1635   1.111   .     S
C1633  H1634   1.111   .     S
C1633  H1636   1.110   .     S
N1637  H1638   1.031   .     S
N1637  C1639   1.452   .     S
C1639  H1640   1.111   .     S
C1639  H1641   1.107   .     S
C1639  H1642   1.112   .     S
N1643  C1645   1.445   .     S
N1643  H1644   1.032   .     S
C1645  H1646   1.110   .     S
C1645  H1647   1.112   .     S
C1645  H1648   1.111   .     S
N1649  H1650   1.030   .     S
N1649  C1651   1.447   .     S
C1651  H1652   1.112   .     S
C1651  H1654   1.110   .     S
C1651  H1653   1.111   .     S
