data_str_m3_o1_o1_pcu_sym.11
_audit_creation_date              2020-01-03
_audit_creation_method            'Materials Studio'
_symmetry_space_group_name_H-M    'P1'
_symmetry_Int_Tables_number       1
_symmetry_cell_setting            triclinic
loop_
_symmetry_equiv_pos_as_xyz
  x,y,z
_cell_length_a                    30.0278
_cell_length_b                    29.5010
_cell_length_c                    30.0344
_cell_angle_alpha                 89.9958
_cell_angle_beta                  89.9990
_cell_angle_gamma                 89.9134
loop_
_atom_site_label
_atom_site_type_symbol
_atom_site_fract_x
_atom_site_fract_y
_atom_site_fract_z
_atom_site_U_iso_or_equiv
_atom_site_adp_type
_atom_site_occupancy
C1     C     0.05979   0.19022   0.16667   0.00000  Uiso   1.00
C2     C     0.00306   0.21028   0.30944   0.00000  Uiso   1.00
C3     C     0.00306   0.21028   0.02390   0.00000  Uiso   1.00
C4     C     0.49694   0.28972   0.30943   0.00000  Uiso   1.00
C5     C     0.24694   0.03972   0.02389   0.00000  Uiso   1.00
C6     C     0.25306   0.46028   0.30944   0.00000  Uiso   1.00
C7     C     0.25306   0.46028   0.02390   0.00000  Uiso   1.00
C8     C     0.24694   0.03972   0.30943   0.00000  Uiso   1.00
C9     C     0.36275   0.17088   0.16665   0.00000  Uiso   1.00
C10    C     0.13725   0.32912   0.16678   0.00000  Uiso   1.00
C11    C     0.08017   0.38825   0.16656   0.00000  Uiso   1.00
C12    C     0.44021   0.30978   0.16667   0.00000  Uiso   1.00
C13    C     0.41983   0.11175   0.16669   0.00000  Uiso   1.00
C14    C     0.08021   0.11184   0.16669   0.00000  Uiso   1.00
C15    C     0.41979   0.38816   0.16662   0.00000  Uiso   1.00
C16    C     0.36279   0.32914   0.16672   0.00000  Uiso   1.00
C17    C     0.13721   0.17086   0.16665   0.00000  Uiso   1.00
C18    C     0.11275   0.42088   0.16655   0.00000  Uiso   1.00
C19    C     0.38725   0.07912   0.16669   0.00000  Uiso   1.00
C20    C     0.33017   0.13825   0.16664   0.00000  Uiso   1.00
C21    C     0.16983   0.36175   0.16678   0.00000  Uiso   1.00
C22    C     0.33021   0.36184   0.16672   0.00000  Uiso   1.00
C23    C     0.44023   0.19018   0.16667   0.00000  Uiso   1.00
C24    C     0.16979   0.13816   0.16664   0.00000  Uiso   1.00
C25    C     0.11279   0.07914   0.16669   0.00000  Uiso   1.00
C26    C     0.38721   0.42086   0.16662   0.00000  Uiso   1.00
C27    C     0.09291   0.34290   0.16667   0.00000  Uiso   1.00
C28    C     0.40709   0.15710   0.16667   0.00000  Uiso   1.00
C29    C     0.40707   0.34286   0.16667   0.00000  Uiso   1.00
C30    C     0.09293   0.15714   0.16667   0.00000  Uiso   1.00
C31    C     0.34291   0.09290   0.16666   0.00000  Uiso   1.00
C32    C     0.15709   0.40710   0.16667   0.00000  Uiso   1.00
C33    C     0.15707   0.09286   0.16666   0.00000  Uiso   1.00
C34    C     0.05977   0.30982   0.16667   0.00000  Uiso   1.00
C35    C     0.34293   0.40714   0.16667   0.00000  Uiso   1.00
C36    C     0.49353   0.33369   0.04724   0.00000  Uiso   1.00
C37    C     0.45163   0.35432   0.05234   0.00000  Uiso   1.00
C38    C     0.44848   0.39958   0.06569   0.00000  Uiso   1.00
C39    C     0.48705   0.42445   0.07448   0.00000  Uiso   1.00
C40    C     0.02885   0.40428   0.06922   0.00000  Uiso   1.00
C41    C     0.03216   0.35916   0.05535   0.00000  Uiso   1.00
C42    C     0.00645   0.16631   0.28609   0.00000  Uiso   1.00
C43    C     0.46782   0.14086   0.27797   0.00000  Uiso   1.00
C44    C     0.47111   0.09574   0.26407   0.00000  Uiso   1.00
C45    C     0.30979   0.44022   0.16667   0.00000  Uiso   1.00
C46    C     0.01290   0.07556   0.25880   0.00000  Uiso   1.00
C47    C     0.05147   0.10041   0.26761   0.00000  Uiso   1.00
C48    C     0.04834   0.14566   0.28098   0.00000  Uiso   1.00
C49    C     0.00646   0.16631   0.04726   0.00000  Uiso   1.00
C50    C     0.04836   0.14567   0.05237   0.00000  Uiso   1.00
C51    C     0.05150   0.10043   0.06576   0.00000  Uiso   1.00
C52    C     0.01293   0.07557   0.07458   0.00000  Uiso   1.00
C53    C     0.47113   0.09575   0.06931   0.00000  Uiso   1.00
C54    C     0.46783   0.14086   0.05539   0.00000  Uiso   1.00
C55    C     0.49356   0.33369   0.28607   0.00000  Uiso   1.00
C56    C     0.19021   0.05978   0.16667   0.00000  Uiso   1.00
C57    C     0.03220   0.35912   0.27793   0.00000  Uiso   1.00
C58    C     0.02891   0.40423   0.26398   0.00000  Uiso   1.00
C59    C     0.48712   0.42441   0.25870   0.00000  Uiso   1.00
C60    C     0.44854   0.39958   0.26754   0.00000  Uiso   1.00
C61    C     0.45167   0.35434   0.28096   0.00000  Uiso   1.00
C62    C     0.24355   0.08369   0.04725   0.00000  Uiso   1.00
C63    C     0.20166   0.10434   0.05235   0.00000  Uiso   1.00
C64    C     0.19853   0.14959   0.06573   0.00000  Uiso   1.00
C65    C     0.23710   0.17444   0.07453   0.00000  Uiso   1.00
C66    C     0.27889   0.15425   0.06926   0.00000  Uiso   1.00
C67    C     0.19023   0.44018   0.16667   0.00000  Uiso   1.00
C68    C     0.28219   0.10914   0.05536   0.00000  Uiso   1.00
C69    C     0.25647   0.41631   0.28609   0.00000  Uiso   1.00
C70    C     0.21784   0.39084   0.27798   0.00000  Uiso   1.00
C71    C     0.22115   0.34572   0.26411   0.00000  Uiso   1.00
C72    C     0.26295   0.32555   0.25885   0.00000  Uiso   1.00
C73    C     0.30151   0.35042   0.26764   0.00000  Uiso   1.00
C74    C     0.29837   0.39568   0.28099   0.00000  Uiso   1.00
C75    C     0.25644   0.41631   0.04726   0.00000  Uiso   1.00
C76    C     0.29833   0.39566   0.05238   0.00000  Uiso   1.00
C77    C     0.30146   0.35042   0.06579   0.00000  Uiso   1.00
C78    C     0.30977   0.05982   0.16667   0.00000  Uiso   1.00
C79    C     0.26288   0.32559   0.07463   0.00000  Uiso   1.00
C80    C     0.22109   0.34577   0.06935   0.00000  Uiso   1.00
C81    C     0.21781   0.39087   0.05541   0.00000  Uiso   1.00
C82    C     0.24354   0.08369   0.28608   0.00000  Uiso   1.00
C83    C     0.28217   0.10914   0.27794   0.00000  Uiso   1.00
C84    C     0.27887   0.15425   0.26402   0.00000  Uiso   1.00
C85    C     0.23707   0.17443   0.25875   0.00000  Uiso   1.00
C86    C     0.19850   0.14957   0.26757   0.00000  Uiso   1.00
C87    C     0.20164   0.10433   0.28097   0.00000  Uiso   1.00
C88    C     0.49694   0.28972   0.02389   0.00000  Uiso   1.00
H89    H     0.35367   0.20645   0.16663   0.00000  Uiso   1.00
H90    H     0.39633   0.04355   0.16670   0.00000  Uiso   1.00
H91    H     0.29536   0.14807   0.16663   0.00000  Uiso   1.00
H92    H     0.20464   0.35193   0.16685   0.00000  Uiso   1.00
H93    H     0.29541   0.35213   0.16675   0.00000  Uiso   1.00
H94    H     0.20459   0.14787   0.16663   0.00000  Uiso   1.00
H95    H     0.10373   0.04360   0.16670   0.00000  Uiso   1.00
H96    H     0.39627   0.45640   0.16658   0.00000  Uiso   1.00
H97    H     0.42153   0.33577   0.04453   0.00000  Uiso   1.00
H98    H     0.41612   0.41543   0.06902   0.00000  Uiso   1.00
H99    H     0.48452   0.45944   0.08497   0.00000  Uiso   1.00
H100   H     0.14633   0.29355   0.16687   0.00000  Uiso   1.00
H101   H     0.05872   0.42384   0.07519   0.00000  Uiso   1.00
H102   H     0.06475   0.34447   0.04963   0.00000  Uiso   1.00
H103   H     0.43523   0.15555   0.28370   0.00000  Uiso   1.00
H104   H     0.44123   0.07620   0.25810   0.00000  Uiso   1.00
H105   H     0.01541   0.04058   0.24829   0.00000  Uiso   1.00
H106   H     0.08383   0.08455   0.26427   0.00000  Uiso   1.00
H107   H     0.07846   0.16420   0.28880   0.00000  Uiso   1.00
H108   H     0.07847   0.16422   0.04453   0.00000  Uiso   1.00
H109   H     0.08386   0.08458   0.06909   0.00000  Uiso   1.00
H110   H     0.01545   0.04059   0.08511   0.00000  Uiso   1.00
H111   H     0.04536   0.39807   0.16648   0.00000  Uiso   1.00
H112   H     0.44126   0.07619   0.07530   0.00000  Uiso   1.00
H113   H     0.43525   0.15554   0.04966   0.00000  Uiso   1.00
H114   H     0.06478   0.34443   0.28366   0.00000  Uiso   1.00
H115   H     0.05879   0.42376   0.25798   0.00000  Uiso   1.00
H116   H     0.48461   0.45939   0.24815   0.00000  Uiso   1.00
H117   H     0.41619   0.41544   0.26420   0.00000  Uiso   1.00
H118   H     0.42155   0.33581   0.28879   0.00000  Uiso   1.00
H119   H     0.17155   0.08580   0.04453   0.00000  Uiso   1.00
H120   H     0.16617   0.16545   0.06906   0.00000  Uiso   1.00
H121   H     0.23459   0.20942   0.08504   0.00000  Uiso   1.00
H122   H     0.45464   0.10193   0.16670   0.00000  Uiso   1.00
H123   H     0.30877   0.17380   0.07524   0.00000  Uiso   1.00
H124   H     0.31477   0.09445   0.04963   0.00000  Uiso   1.00
H125   H     0.18525   0.40552   0.28371   0.00000  Uiso   1.00
H126   H     0.19128   0.32616   0.25815   0.00000  Uiso   1.00
H127   H     0.26548   0.29056   0.24836   0.00000  Uiso   1.00
H128   H     0.33388   0.33457   0.26432   0.00000  Uiso   1.00
H129   H     0.32847   0.41423   0.28881   0.00000  Uiso   1.00
H130   H     0.32845   0.41419   0.04454   0.00000  Uiso   1.00
H131   H     0.33381   0.33456   0.06914   0.00000  Uiso   1.00
H132   H     0.26539   0.29061   0.08518   0.00000  Uiso   1.00
H133   H     0.04541   0.10213   0.16670   0.00000  Uiso   1.00
H134   H     0.19121   0.32623   0.07536   0.00000  Uiso   1.00
H135   H     0.18522   0.40557   0.04967   0.00000  Uiso   1.00
H136   H     0.31475   0.09446   0.28367   0.00000  Uiso   1.00
H137   H     0.30874   0.17381   0.25804   0.00000  Uiso   1.00
H138   H     0.23455   0.20941   0.24823   0.00000  Uiso   1.00
H139   H     0.16614   0.16542   0.26424   0.00000  Uiso   1.00
H140   H     0.17153   0.08578   0.28880   0.00000  Uiso   1.00
H141   H     0.45459   0.39787   0.16658   0.00000  Uiso   1.00
H142   H     0.35373   0.29360   0.16676   0.00000  Uiso   1.00
H143   H     0.14627   0.20640   0.16663   0.00000  Uiso   1.00
H144   H     0.10367   0.45645   0.16647   0.00000  Uiso   1.00
N145   N     0.00000   0.25000   0.28573   0.00000  Uiso   1.00
N146   N     0.00000   0.25000   0.04760   0.00000  Uiso   1.00
N147   N     0.25000  -0.00000   0.28573   0.00000  Uiso   1.00
N148   N     0.25000  -0.00000   0.04760   0.00000  Uiso   1.00
O149   O     0.04581   0.20419   0.20487   0.00000  Uiso   1.00
O150   O     0.20420   0.04581   0.12846   0.00000  Uiso   1.00
O151   O     0.20420   0.04581   0.20487   0.00000  Uiso   1.00
O152   O     0.29581   0.45419   0.12846   0.00000  Uiso   1.00
O153   O     0.20420   0.45419   0.12846   0.00000  Uiso   1.00
O154   O     0.29581   0.04581   0.20487   0.00000  Uiso   1.00
O155   O     0.29581   0.04581   0.12846   0.00000  Uiso   1.00
O156   O     0.20420   0.45419   0.20487   0.00000  Uiso   1.00
O157   O     0.45420   0.29581   0.12846   0.00000  Uiso   1.00
O158   O     0.45420   0.29581   0.20487   0.00000  Uiso   1.00
O159   O     0.04581   0.20419   0.12846   0.00000  Uiso   1.00
O160   O     0.45420   0.20419   0.12846   0.00000  Uiso   1.00
O161   O     0.04581   0.29581   0.20487   0.00000  Uiso   1.00
O162   O     0.04581   0.29581   0.12846   0.00000  Uiso   1.00
O163   O     0.45420   0.20419   0.20487   0.00000  Uiso   1.00
O164   O     0.29581   0.45419   0.20487   0.00000  Uiso   1.00
Zn165  Zn    0.00000   0.25000   0.21771   0.00000  Uiso   1.00
Zn166  Zn    0.00000   0.25000   0.11563   0.00000  Uiso   1.00
Zn167  Zn    0.25000  -0.00000   0.21771   0.00000  Uiso   1.00
Zn168  Zn    0.25000  -0.00000   0.11563   0.00000  Uiso   1.00
C169   C     0.55979   0.19022   0.16667   0.00000  Uiso   1.00
C170   C     0.50306   0.21028   0.30944   0.00000  Uiso   1.00
C171   C     0.50306   0.21028   0.02390   0.00000  Uiso   1.00
C172   C     0.99694   0.28972   0.30943   0.00000  Uiso   1.00
C173   C     0.74694   0.03972   0.02389   0.00000  Uiso   1.00
C174   C     0.75306   0.46028   0.30944   0.00000  Uiso   1.00
C175   C     0.75306   0.46028   0.02390   0.00000  Uiso   1.00
C176   C     0.74694   0.03972   0.30943   0.00000  Uiso   1.00
C177   C     0.86275   0.17088   0.16665   0.00000  Uiso   1.00
C178   C     0.63725   0.32912   0.16678   0.00000  Uiso   1.00
C179   C     0.58017   0.38825   0.16656   0.00000  Uiso   1.00
C180   C     0.94021   0.30978   0.16667   0.00000  Uiso   1.00
C181   C     0.91983   0.11175   0.16669   0.00000  Uiso   1.00
C182   C     0.58021   0.11184   0.16669   0.00000  Uiso   1.00
C183   C     0.91979   0.38816   0.16662   0.00000  Uiso   1.00
C184   C     0.86279   0.32914   0.16672   0.00000  Uiso   1.00
C185   C     0.63721   0.17086   0.16665   0.00000  Uiso   1.00
C186   C     0.61275   0.42088   0.16655   0.00000  Uiso   1.00
C187   C     0.88725   0.07912   0.16669   0.00000  Uiso   1.00
C188   C     0.83017   0.13825   0.16664   0.00000  Uiso   1.00
C189   C     0.66983   0.36175   0.16678   0.00000  Uiso   1.00
C190   C     0.83021   0.36184   0.16672   0.00000  Uiso   1.00
C191   C     0.94023   0.19018   0.16667   0.00000  Uiso   1.00
C192   C     0.66979   0.13816   0.16664   0.00000  Uiso   1.00
C193   C     0.61279   0.07914   0.16669   0.00000  Uiso   1.00
C194   C     0.88721   0.42086   0.16662   0.00000  Uiso   1.00
C195   C     0.59291   0.34290   0.16667   0.00000  Uiso   1.00
C196   C     0.90709   0.15710   0.16667   0.00000  Uiso   1.00
C197   C     0.90707   0.34286   0.16667   0.00000  Uiso   1.00
C198   C     0.59293   0.15714   0.16667   0.00000  Uiso   1.00
C199   C     0.84291   0.09290   0.16666   0.00000  Uiso   1.00
C200   C     0.65709   0.40710   0.16667   0.00000  Uiso   1.00
C201   C     0.65707   0.09286   0.16666   0.00000  Uiso   1.00
C202   C     0.55977   0.30982   0.16667   0.00000  Uiso   1.00
C203   C     0.84293   0.40714   0.16667   0.00000  Uiso   1.00
C204   C     0.99353   0.33369   0.04724   0.00000  Uiso   1.00
C205   C     0.95163   0.35432   0.05234   0.00000  Uiso   1.00
C206   C     0.94848   0.39958   0.06569   0.00000  Uiso   1.00
C207   C     0.98705   0.42445   0.07448   0.00000  Uiso   1.00
C208   C     0.52885   0.40428   0.06922   0.00000  Uiso   1.00
C209   C     0.53216   0.35916   0.05535   0.00000  Uiso   1.00
C210   C     0.50645   0.16631   0.28609   0.00000  Uiso   1.00
C211   C     0.96782   0.14086   0.27797   0.00000  Uiso   1.00
C212   C     0.97111   0.09574   0.26407   0.00000  Uiso   1.00
C213   C     0.80979   0.44022   0.16667   0.00000  Uiso   1.00
C214   C     0.51290   0.07556   0.25880   0.00000  Uiso   1.00
C215   C     0.55147   0.10041   0.26761   0.00000  Uiso   1.00
C216   C     0.54834   0.14566   0.28098   0.00000  Uiso   1.00
C217   C     0.50646   0.16631   0.04726   0.00000  Uiso   1.00
C218   C     0.54836   0.14567   0.05237   0.00000  Uiso   1.00
C219   C     0.55150   0.10043   0.06576   0.00000  Uiso   1.00
C220   C     0.51293   0.07557   0.07458   0.00000  Uiso   1.00
C221   C     0.97113   0.09575   0.06931   0.00000  Uiso   1.00
C222   C     0.96783   0.14086   0.05539   0.00000  Uiso   1.00
C223   C     0.99356   0.33369   0.28607   0.00000  Uiso   1.00
C224   C     0.69021   0.05978   0.16667   0.00000  Uiso   1.00
C225   C     0.53220   0.35912   0.27793   0.00000  Uiso   1.00
C226   C     0.52891   0.40423   0.26398   0.00000  Uiso   1.00
C227   C     0.98712   0.42441   0.25870   0.00000  Uiso   1.00
C228   C     0.94854   0.39958   0.26754   0.00000  Uiso   1.00
C229   C     0.95167   0.35434   0.28096   0.00000  Uiso   1.00
C230   C     0.74355   0.08369   0.04725   0.00000  Uiso   1.00
C231   C     0.70166   0.10434   0.05235   0.00000  Uiso   1.00
C232   C     0.69853   0.14959   0.06573   0.00000  Uiso   1.00
C233   C     0.73710   0.17444   0.07453   0.00000  Uiso   1.00
C234   C     0.77889   0.15425   0.06926   0.00000  Uiso   1.00
C235   C     0.69023   0.44018   0.16667   0.00000  Uiso   1.00
C236   C     0.78219   0.10914   0.05536   0.00000  Uiso   1.00
C237   C     0.75647   0.41631   0.28609   0.00000  Uiso   1.00
C238   C     0.71784   0.39084   0.27798   0.00000  Uiso   1.00
C239   C     0.72115   0.34572   0.26411   0.00000  Uiso   1.00
C240   C     0.76295   0.32555   0.25885   0.00000  Uiso   1.00
C241   C     0.80151   0.35042   0.26764   0.00000  Uiso   1.00
C242   C     0.79837   0.39568   0.28099   0.00000  Uiso   1.00
C243   C     0.75644   0.41631   0.04726   0.00000  Uiso   1.00
C244   C     0.79833   0.39566   0.05238   0.00000  Uiso   1.00
C245   C     0.80146   0.35042   0.06579   0.00000  Uiso   1.00
C246   C     0.80977   0.05982   0.16667   0.00000  Uiso   1.00
C247   C     0.76288   0.32559   0.07463   0.00000  Uiso   1.00
C248   C     0.72109   0.34577   0.06935   0.00000  Uiso   1.00
C249   C     0.71781   0.39087   0.05541   0.00000  Uiso   1.00
C250   C     0.74354   0.08369   0.28608   0.00000  Uiso   1.00
C251   C     0.78217   0.10914   0.27794   0.00000  Uiso   1.00
C252   C     0.77887   0.15425   0.26402   0.00000  Uiso   1.00
C253   C     0.73707   0.17443   0.25875   0.00000  Uiso   1.00
C254   C     0.69850   0.14957   0.26757   0.00000  Uiso   1.00
C255   C     0.70164   0.10433   0.28097   0.00000  Uiso   1.00
C256   C     0.99694   0.28972   0.02389   0.00000  Uiso   1.00
H257   H     0.85367   0.20645   0.16663   0.00000  Uiso   1.00
H258   H     0.89633   0.04355   0.16670   0.00000  Uiso   1.00
H259   H     0.79536   0.14807   0.16663   0.00000  Uiso   1.00
H260   H     0.70464   0.35193   0.16685   0.00000  Uiso   1.00
H261   H     0.79541   0.35213   0.16675   0.00000  Uiso   1.00
H262   H     0.70459   0.14787   0.16663   0.00000  Uiso   1.00
H263   H     0.60373   0.04360   0.16670   0.00000  Uiso   1.00
H264   H     0.89627   0.45640   0.16658   0.00000  Uiso   1.00
H265   H     0.92153   0.33577   0.04453   0.00000  Uiso   1.00
H266   H     0.91612   0.41543   0.06902   0.00000  Uiso   1.00
H267   H     0.98452   0.45944   0.08497   0.00000  Uiso   1.00
H268   H     0.64633   0.29355   0.16687   0.00000  Uiso   1.00
H269   H     0.55872   0.42384   0.07519   0.00000  Uiso   1.00
H270   H     0.56475   0.34447   0.04963   0.00000  Uiso   1.00
H271   H     0.93523   0.15555   0.28370   0.00000  Uiso   1.00
H272   H     0.94123   0.07620   0.25810   0.00000  Uiso   1.00
H273   H     0.51541   0.04058   0.24829   0.00000  Uiso   1.00
H274   H     0.58383   0.08455   0.26427   0.00000  Uiso   1.00
H275   H     0.57846   0.16420   0.28880   0.00000  Uiso   1.00
H276   H     0.57847   0.16422   0.04453   0.00000  Uiso   1.00
H277   H     0.58386   0.08458   0.06909   0.00000  Uiso   1.00
H278   H     0.51545   0.04059   0.08511   0.00000  Uiso   1.00
H279   H     0.54536   0.39807   0.16648   0.00000  Uiso   1.00
H280   H     0.94126   0.07619   0.07530   0.00000  Uiso   1.00
H281   H     0.93525   0.15554   0.04966   0.00000  Uiso   1.00
H282   H     0.56478   0.34443   0.28366   0.00000  Uiso   1.00
H283   H     0.55879   0.42376   0.25798   0.00000  Uiso   1.00
H284   H     0.98461   0.45939   0.24815   0.00000  Uiso   1.00
H285   H     0.91619   0.41544   0.26420   0.00000  Uiso   1.00
H286   H     0.92155   0.33581   0.28879   0.00000  Uiso   1.00
H287   H     0.67155   0.08580   0.04453   0.00000  Uiso   1.00
H288   H     0.66617   0.16545   0.06906   0.00000  Uiso   1.00
H289   H     0.73459   0.20942   0.08504   0.00000  Uiso   1.00
H290   H     0.95464   0.10193   0.16670   0.00000  Uiso   1.00
H291   H     0.80877   0.17380   0.07524   0.00000  Uiso   1.00
H292   H     0.81477   0.09445   0.04963   0.00000  Uiso   1.00
H293   H     0.68525   0.40552   0.28371   0.00000  Uiso   1.00
H294   H     0.69128   0.32616   0.25815   0.00000  Uiso   1.00
H295   H     0.76548   0.29056   0.24836   0.00000  Uiso   1.00
H296   H     0.83388   0.33457   0.26432   0.00000  Uiso   1.00
H297   H     0.82847   0.41423   0.28881   0.00000  Uiso   1.00
H298   H     0.82845   0.41419   0.04454   0.00000  Uiso   1.00
H299   H     0.83381   0.33456   0.06914   0.00000  Uiso   1.00
H300   H     0.76539   0.29061   0.08518   0.00000  Uiso   1.00
H301   H     0.54541   0.10213   0.16670   0.00000  Uiso   1.00
H302   H     0.69121   0.32623   0.07536   0.00000  Uiso   1.00
H303   H     0.68522   0.40557   0.04967   0.00000  Uiso   1.00
H304   H     0.81475   0.09446   0.28367   0.00000  Uiso   1.00
H305   H     0.80874   0.17381   0.25804   0.00000  Uiso   1.00
H306   H     0.73455   0.20941   0.24823   0.00000  Uiso   1.00
H307   H     0.66614   0.16542   0.26424   0.00000  Uiso   1.00
H308   H     0.67153   0.08578   0.28880   0.00000  Uiso   1.00
H309   H     0.95459   0.39787   0.16658   0.00000  Uiso   1.00
H310   H     0.85373   0.29360   0.16676   0.00000  Uiso   1.00
H311   H     0.64627   0.20640   0.16663   0.00000  Uiso   1.00
H312   H     0.60367   0.45645   0.16647   0.00000  Uiso   1.00
N313   N     0.50000   0.25000   0.28573   0.00000  Uiso   1.00
N314   N     0.50000   0.25000   0.04760   0.00000  Uiso   1.00
N315   N     0.75000  -0.00000   0.28573   0.00000  Uiso   1.00
N316   N     0.75000  -0.00000   0.04760   0.00000  Uiso   1.00
O317   O     0.54581   0.20419   0.20487   0.00000  Uiso   1.00
O318   O     0.70420   0.04581   0.12846   0.00000  Uiso   1.00
O319   O     0.70420   0.04581   0.20487   0.00000  Uiso   1.00
O320   O     0.79581   0.45419   0.12846   0.00000  Uiso   1.00
O321   O     0.70420   0.45419   0.12846   0.00000  Uiso   1.00
O322   O     0.79581   0.04581   0.20487   0.00000  Uiso   1.00
O323   O     0.79581   0.04581   0.12846   0.00000  Uiso   1.00
O324   O     0.70420   0.45419   0.20487   0.00000  Uiso   1.00
O325   O     0.95420   0.29581   0.12846   0.00000  Uiso   1.00
O326   O     0.95420   0.29581   0.20487   0.00000  Uiso   1.00
O327   O     0.54581   0.20419   0.12846   0.00000  Uiso   1.00
O328   O     0.95420   0.20419   0.12846   0.00000  Uiso   1.00
O329   O     0.54581   0.29581   0.20487   0.00000  Uiso   1.00
O330   O     0.54581   0.29581   0.12846   0.00000  Uiso   1.00
O331   O     0.95420   0.20419   0.20487   0.00000  Uiso   1.00
O332   O     0.79581   0.45419   0.20487   0.00000  Uiso   1.00
Zn333  Zn    0.50000   0.25000   0.21771   0.00000  Uiso   1.00
Zn334  Zn    0.50000   0.25000   0.11563   0.00000  Uiso   1.00
Zn335  Zn    0.75000  -0.00000   0.21771   0.00000  Uiso   1.00
Zn336  Zn    0.75000  -0.00000   0.11563   0.00000  Uiso   1.00
C337   C     0.05979   0.69022   0.16667   0.00000  Uiso   1.00
C338   C     0.00306   0.71028   0.30944   0.00000  Uiso   1.00
C339   C     0.00306   0.71028   0.02390   0.00000  Uiso   1.00
C340   C     0.49694   0.78972   0.30943   0.00000  Uiso   1.00
C341   C     0.24694   0.53972   0.02389   0.00000  Uiso   1.00
C342   C     0.25306   0.96028   0.30944   0.00000  Uiso   1.00
C343   C     0.25306   0.96028   0.02390   0.00000  Uiso   1.00
C344   C     0.24694   0.53972   0.30943   0.00000  Uiso   1.00
C345   C     0.36275   0.67088   0.16665   0.00000  Uiso   1.00
C346   C     0.13725   0.82912   0.16678   0.00000  Uiso   1.00
C347   C     0.08017   0.88825   0.16656   0.00000  Uiso   1.00
C348   C     0.44021   0.80978   0.16667   0.00000  Uiso   1.00
C349   C     0.41983   0.61175   0.16669   0.00000  Uiso   1.00
C350   C     0.08021   0.61184   0.16669   0.00000  Uiso   1.00
C351   C     0.41979   0.88816   0.16662   0.00000  Uiso   1.00
C352   C     0.36279   0.82914   0.16672   0.00000  Uiso   1.00
C353   C     0.13721   0.67086   0.16665   0.00000  Uiso   1.00
C354   C     0.11275   0.92088   0.16655   0.00000  Uiso   1.00
C355   C     0.38725   0.57912   0.16669   0.00000  Uiso   1.00
C356   C     0.33017   0.63825   0.16664   0.00000  Uiso   1.00
C357   C     0.16983   0.86175   0.16678   0.00000  Uiso   1.00
C358   C     0.33021   0.86184   0.16672   0.00000  Uiso   1.00
C359   C     0.44023   0.69018   0.16667   0.00000  Uiso   1.00
C360   C     0.16979   0.63816   0.16664   0.00000  Uiso   1.00
C361   C     0.11279   0.57914   0.16669   0.00000  Uiso   1.00
C362   C     0.38721   0.92086   0.16662   0.00000  Uiso   1.00
C363   C     0.09291   0.84290   0.16667   0.00000  Uiso   1.00
C364   C     0.40709   0.65710   0.16667   0.00000  Uiso   1.00
C365   C     0.40707   0.84286   0.16667   0.00000  Uiso   1.00
C366   C     0.09293   0.65714   0.16667   0.00000  Uiso   1.00
C367   C     0.34291   0.59290   0.16666   0.00000  Uiso   1.00
C368   C     0.15709   0.90710   0.16667   0.00000  Uiso   1.00
C369   C     0.15707   0.59286   0.16666   0.00000  Uiso   1.00
C370   C     0.05977   0.80982   0.16667   0.00000  Uiso   1.00
C371   C     0.34293   0.90714   0.16667   0.00000  Uiso   1.00
C372   C     0.49353   0.83369   0.04724   0.00000  Uiso   1.00
C373   C     0.45163   0.85432   0.05234   0.00000  Uiso   1.00
C374   C     0.44848   0.89958   0.06569   0.00000  Uiso   1.00
C375   C     0.48705   0.92445   0.07448   0.00000  Uiso   1.00
C376   C     0.02885   0.90428   0.06922   0.00000  Uiso   1.00
C377   C     0.03216   0.85916   0.05535   0.00000  Uiso   1.00
C378   C     0.00645   0.66631   0.28609   0.00000  Uiso   1.00
C379   C     0.46782   0.64086   0.27797   0.00000  Uiso   1.00
C380   C     0.47111   0.59574   0.26407   0.00000  Uiso   1.00
C381   C     0.30979   0.94022   0.16667   0.00000  Uiso   1.00
C382   C     0.01290   0.57556   0.25880   0.00000  Uiso   1.00
C383   C     0.05147   0.60041   0.26761   0.00000  Uiso   1.00
C384   C     0.04834   0.64566   0.28098   0.00000  Uiso   1.00
C385   C     0.00646   0.66631   0.04726   0.00000  Uiso   1.00
C386   C     0.04836   0.64567   0.05237   0.00000  Uiso   1.00
C387   C     0.05150   0.60043   0.06576   0.00000  Uiso   1.00
C388   C     0.01293   0.57557   0.07458   0.00000  Uiso   1.00
C389   C     0.47113   0.59575   0.06931   0.00000  Uiso   1.00
C390   C     0.46783   0.64086   0.05539   0.00000  Uiso   1.00
C391   C     0.49356   0.83369   0.28607   0.00000  Uiso   1.00
C392   C     0.19021   0.55978   0.16667   0.00000  Uiso   1.00
C393   C     0.03220   0.85912   0.27793   0.00000  Uiso   1.00
C394   C     0.02891   0.90423   0.26398   0.00000  Uiso   1.00
C395   C     0.48712   0.92441   0.25870   0.00000  Uiso   1.00
C396   C     0.44854   0.89958   0.26754   0.00000  Uiso   1.00
C397   C     0.45167   0.85434   0.28096   0.00000  Uiso   1.00
C398   C     0.24355   0.58369   0.04725   0.00000  Uiso   1.00
C399   C     0.20166   0.60434   0.05235   0.00000  Uiso   1.00
C400   C     0.19853   0.64959   0.06573   0.00000  Uiso   1.00
C401   C     0.23710   0.67444   0.07453   0.00000  Uiso   1.00
C402   C     0.27889   0.65425   0.06926   0.00000  Uiso   1.00
C403   C     0.19023   0.94018   0.16667   0.00000  Uiso   1.00
C404   C     0.28219   0.60914   0.05536   0.00000  Uiso   1.00
C405   C     0.25647   0.91631   0.28609   0.00000  Uiso   1.00
C406   C     0.21784   0.89084   0.27798   0.00000  Uiso   1.00
C407   C     0.22115   0.84572   0.26411   0.00000  Uiso   1.00
C408   C     0.26295   0.82555   0.25885   0.00000  Uiso   1.00
C409   C     0.30151   0.85042   0.26764   0.00000  Uiso   1.00
C410   C     0.29837   0.89568   0.28099   0.00000  Uiso   1.00
C411   C     0.25644   0.91631   0.04726   0.00000  Uiso   1.00
C412   C     0.29833   0.89566   0.05238   0.00000  Uiso   1.00
C413   C     0.30146   0.85042   0.06579   0.00000  Uiso   1.00
C414   C     0.30977   0.55982   0.16667   0.00000  Uiso   1.00
C415   C     0.26288   0.82559   0.07463   0.00000  Uiso   1.00
C416   C     0.22109   0.84577   0.06935   0.00000  Uiso   1.00
C417   C     0.21781   0.89087   0.05541   0.00000  Uiso   1.00
C418   C     0.24354   0.58369   0.28608   0.00000  Uiso   1.00
C419   C     0.28217   0.60914   0.27794   0.00000  Uiso   1.00
C420   C     0.27887   0.65425   0.26402   0.00000  Uiso   1.00
C421   C     0.23707   0.67443   0.25875   0.00000  Uiso   1.00
C422   C     0.19850   0.64957   0.26757   0.00000  Uiso   1.00
C423   C     0.20164   0.60433   0.28097   0.00000  Uiso   1.00
C424   C     0.49694   0.78972   0.02389   0.00000  Uiso   1.00
H425   H     0.35367   0.70645   0.16663   0.00000  Uiso   1.00
H426   H     0.39633   0.54355   0.16670   0.00000  Uiso   1.00
H427   H     0.29536   0.64807   0.16663   0.00000  Uiso   1.00
H428   H     0.20464   0.85193   0.16685   0.00000  Uiso   1.00
H429   H     0.29541   0.85213   0.16675   0.00000  Uiso   1.00
H430   H     0.20459   0.64787   0.16663   0.00000  Uiso   1.00
H431   H     0.10373   0.54360   0.16670   0.00000  Uiso   1.00
H432   H     0.39627   0.95640   0.16658   0.00000  Uiso   1.00
H433   H     0.42153   0.83577   0.04453   0.00000  Uiso   1.00
H434   H     0.41612   0.91543   0.06902   0.00000  Uiso   1.00
H435   H     0.48452   0.95944   0.08497   0.00000  Uiso   1.00
H436   H     0.14633   0.79355   0.16687   0.00000  Uiso   1.00
H437   H     0.05872   0.92384   0.07519   0.00000  Uiso   1.00
H438   H     0.06475   0.84447   0.04963   0.00000  Uiso   1.00
H439   H     0.43523   0.65555   0.28370   0.00000  Uiso   1.00
H440   H     0.44123   0.57620   0.25810   0.00000  Uiso   1.00
H441   H     0.01541   0.54058   0.24829   0.00000  Uiso   1.00
H442   H     0.08383   0.58455   0.26427   0.00000  Uiso   1.00
H443   H     0.07846   0.66420   0.28880   0.00000  Uiso   1.00
H444   H     0.07847   0.66422   0.04453   0.00000  Uiso   1.00
H445   H     0.08386   0.58458   0.06909   0.00000  Uiso   1.00
H446   H     0.01545   0.54059   0.08511   0.00000  Uiso   1.00
H447   H     0.04536   0.89807   0.16648   0.00000  Uiso   1.00
H448   H     0.44126   0.57619   0.07530   0.00000  Uiso   1.00
H449   H     0.43525   0.65554   0.04966   0.00000  Uiso   1.00
H450   H     0.06478   0.84443   0.28366   0.00000  Uiso   1.00
H451   H     0.05879   0.92376   0.25798   0.00000  Uiso   1.00
H452   H     0.48461   0.95939   0.24815   0.00000  Uiso   1.00
H453   H     0.41619   0.91544   0.26420   0.00000  Uiso   1.00
H454   H     0.42155   0.83581   0.28879   0.00000  Uiso   1.00
H455   H     0.17155   0.58580   0.04453   0.00000  Uiso   1.00
H456   H     0.16617   0.66545   0.06906   0.00000  Uiso   1.00
H457   H     0.23459   0.70942   0.08504   0.00000  Uiso   1.00
H458   H     0.45464   0.60193   0.16670   0.00000  Uiso   1.00
H459   H     0.30877   0.67380   0.07524   0.00000  Uiso   1.00
H460   H     0.31477   0.59445   0.04963   0.00000  Uiso   1.00
H461   H     0.18525   0.90552   0.28371   0.00000  Uiso   1.00
H462   H     0.19128   0.82616   0.25815   0.00000  Uiso   1.00
H463   H     0.26548   0.79056   0.24836   0.00000  Uiso   1.00
H464   H     0.33388   0.83457   0.26432   0.00000  Uiso   1.00
H465   H     0.32847   0.91423   0.28881   0.00000  Uiso   1.00
H466   H     0.32845   0.91419   0.04454   0.00000  Uiso   1.00
H467   H     0.33381   0.83456   0.06914   0.00000  Uiso   1.00
H468   H     0.26539   0.79061   0.08518   0.00000  Uiso   1.00
H469   H     0.04541   0.60213   0.16670   0.00000  Uiso   1.00
H470   H     0.19121   0.82623   0.07536   0.00000  Uiso   1.00
H471   H     0.18522   0.90557   0.04967   0.00000  Uiso   1.00
H472   H     0.31475   0.59446   0.28367   0.00000  Uiso   1.00
H473   H     0.30874   0.67381   0.25804   0.00000  Uiso   1.00
H474   H     0.23455   0.70941   0.24823   0.00000  Uiso   1.00
H475   H     0.16614   0.66542   0.26424   0.00000  Uiso   1.00
H476   H     0.17153   0.58578   0.28880   0.00000  Uiso   1.00
H477   H     0.45459   0.89787   0.16658   0.00000  Uiso   1.00
H478   H     0.35373   0.79360   0.16676   0.00000  Uiso   1.00
H479   H     0.14627   0.70640   0.16663   0.00000  Uiso   1.00
H480   H     0.10367   0.95645   0.16647   0.00000  Uiso   1.00
N481   N     0.00000   0.75000   0.28573   0.00000  Uiso   1.00
N482   N     0.00000   0.75000   0.04760   0.00000  Uiso   1.00
N483   N     0.25000   0.50000   0.28573   0.00000  Uiso   1.00
N484   N     0.25000   0.50000   0.04760   0.00000  Uiso   1.00
O485   O     0.04581   0.70419   0.20487   0.00000  Uiso   1.00
O486   O     0.20420   0.54581   0.12846   0.00000  Uiso   1.00
O487   O     0.20420   0.54581   0.20487   0.00000  Uiso   1.00
O488   O     0.29581   0.95419   0.12846   0.00000  Uiso   1.00
O489   O     0.20420   0.95419   0.12846   0.00000  Uiso   1.00
O490   O     0.29581   0.54581   0.20487   0.00000  Uiso   1.00
O491   O     0.29581   0.54581   0.12846   0.00000  Uiso   1.00
O492   O     0.20420   0.95419   0.20487   0.00000  Uiso   1.00
O493   O     0.45420   0.79581   0.12846   0.00000  Uiso   1.00
O494   O     0.45420   0.79581   0.20487   0.00000  Uiso   1.00
O495   O     0.04581   0.70419   0.12846   0.00000  Uiso   1.00
O496   O     0.45420   0.70419   0.12846   0.00000  Uiso   1.00
O497   O     0.04581   0.79581   0.20487   0.00000  Uiso   1.00
O498   O     0.04581   0.79581   0.12846   0.00000  Uiso   1.00
O499   O     0.45420   0.70419   0.20487   0.00000  Uiso   1.00
O500   O     0.29581   0.95419   0.20487   0.00000  Uiso   1.00
Zn501  Zn    0.00000   0.75000   0.21771   0.00000  Uiso   1.00
Zn502  Zn    0.00000   0.75000   0.11563   0.00000  Uiso   1.00
Zn503  Zn    0.25000   0.50000   0.21771   0.00000  Uiso   1.00
Zn504  Zn    0.25000   0.50000   0.11563   0.00000  Uiso   1.00
C505   C     0.55979   0.69022   0.16667   0.00000  Uiso   1.00
C506   C     0.50306   0.71028   0.30944   0.00000  Uiso   1.00
C507   C     0.50306   0.71028   0.02390   0.00000  Uiso   1.00
C508   C     0.99694   0.78972   0.30943   0.00000  Uiso   1.00
C509   C     0.74694   0.53972   0.02389   0.00000  Uiso   1.00
C510   C     0.75306   0.96028   0.30944   0.00000  Uiso   1.00
C511   C     0.75306   0.96028   0.02390   0.00000  Uiso   1.00
C512   C     0.74694   0.53972   0.30943   0.00000  Uiso   1.00
C513   C     0.86275   0.67088   0.16665   0.00000  Uiso   1.00
C514   C     0.63725   0.82912   0.16678   0.00000  Uiso   1.00
C515   C     0.58017   0.88825   0.16656   0.00000  Uiso   1.00
C516   C     0.94021   0.80978   0.16667   0.00000  Uiso   1.00
C517   C     0.91983   0.61175   0.16669   0.00000  Uiso   1.00
C518   C     0.58021   0.61184   0.16669   0.00000  Uiso   1.00
C519   C     0.91979   0.88816   0.16662   0.00000  Uiso   1.00
C520   C     0.86279   0.82914   0.16672   0.00000  Uiso   1.00
C521   C     0.63721   0.67086   0.16665   0.00000  Uiso   1.00
C522   C     0.61275   0.92088   0.16655   0.00000  Uiso   1.00
C523   C     0.88725   0.57912   0.16669   0.00000  Uiso   1.00
C524   C     0.83017   0.63825   0.16664   0.00000  Uiso   1.00
C525   C     0.66983   0.86175   0.16678   0.00000  Uiso   1.00
C526   C     0.83021   0.86184   0.16672   0.00000  Uiso   1.00
C527   C     0.94023   0.69018   0.16667   0.00000  Uiso   1.00
C528   C     0.66979   0.63816   0.16664   0.00000  Uiso   1.00
C529   C     0.61279   0.57914   0.16669   0.00000  Uiso   1.00
C530   C     0.88721   0.92086   0.16662   0.00000  Uiso   1.00
C531   C     0.59291   0.84290   0.16667   0.00000  Uiso   1.00
C532   C     0.90709   0.65710   0.16667   0.00000  Uiso   1.00
C533   C     0.90707   0.84286   0.16667   0.00000  Uiso   1.00
C534   C     0.59293   0.65714   0.16667   0.00000  Uiso   1.00
C535   C     0.84291   0.59290   0.16666   0.00000  Uiso   1.00
C536   C     0.65709   0.90710   0.16667   0.00000  Uiso   1.00
C537   C     0.65707   0.59286   0.16666   0.00000  Uiso   1.00
C538   C     0.55977   0.80982   0.16667   0.00000  Uiso   1.00
C539   C     0.84293   0.90714   0.16667   0.00000  Uiso   1.00
C540   C     0.99353   0.83369   0.04724   0.00000  Uiso   1.00
C541   C     0.95163   0.85432   0.05234   0.00000  Uiso   1.00
C542   C     0.94848   0.89958   0.06569   0.00000  Uiso   1.00
C543   C     0.98705   0.92445   0.07448   0.00000  Uiso   1.00
C544   C     0.52885   0.90428   0.06922   0.00000  Uiso   1.00
C545   C     0.53216   0.85916   0.05535   0.00000  Uiso   1.00
C546   C     0.50645   0.66631   0.28609   0.00000  Uiso   1.00
C547   C     0.96782   0.64086   0.27797   0.00000  Uiso   1.00
C548   C     0.97111   0.59574   0.26407   0.00000  Uiso   1.00
C549   C     0.80979   0.94022   0.16667   0.00000  Uiso   1.00
C550   C     0.51290   0.57556   0.25880   0.00000  Uiso   1.00
C551   C     0.55147   0.60041   0.26761   0.00000  Uiso   1.00
C552   C     0.54834   0.64566   0.28098   0.00000  Uiso   1.00
C553   C     0.50646   0.66631   0.04726   0.00000  Uiso   1.00
C554   C     0.54836   0.64567   0.05237   0.00000  Uiso   1.00
C555   C     0.55150   0.60043   0.06576   0.00000  Uiso   1.00
C556   C     0.51293   0.57557   0.07458   0.00000  Uiso   1.00
C557   C     0.97113   0.59575   0.06931   0.00000  Uiso   1.00
C558   C     0.96783   0.64086   0.05539   0.00000  Uiso   1.00
C559   C     0.99356   0.83369   0.28607   0.00000  Uiso   1.00
C560   C     0.69021   0.55978   0.16667   0.00000  Uiso   1.00
C561   C     0.53220   0.85912   0.27793   0.00000  Uiso   1.00
C562   C     0.52891   0.90423   0.26398   0.00000  Uiso   1.00
C563   C     0.98712   0.92441   0.25870   0.00000  Uiso   1.00
C564   C     0.94854   0.89958   0.26754   0.00000  Uiso   1.00
C565   C     0.95167   0.85434   0.28096   0.00000  Uiso   1.00
C566   C     0.74355   0.58369   0.04725   0.00000  Uiso   1.00
C567   C     0.70166   0.60434   0.05235   0.00000  Uiso   1.00
C568   C     0.69853   0.64959   0.06573   0.00000  Uiso   1.00
C569   C     0.73710   0.67444   0.07453   0.00000  Uiso   1.00
C570   C     0.77889   0.65425   0.06926   0.00000  Uiso   1.00
C571   C     0.69023   0.94018   0.16667   0.00000  Uiso   1.00
C572   C     0.78219   0.60914   0.05536   0.00000  Uiso   1.00
C573   C     0.75647   0.91631   0.28609   0.00000  Uiso   1.00
C574   C     0.71784   0.89084   0.27798   0.00000  Uiso   1.00
C575   C     0.72115   0.84572   0.26411   0.00000  Uiso   1.00
C576   C     0.76295   0.82555   0.25885   0.00000  Uiso   1.00
C577   C     0.80151   0.85042   0.26764   0.00000  Uiso   1.00
C578   C     0.79837   0.89568   0.28099   0.00000  Uiso   1.00
C579   C     0.75644   0.91631   0.04726   0.00000  Uiso   1.00
C580   C     0.79833   0.89566   0.05238   0.00000  Uiso   1.00
C581   C     0.80146   0.85042   0.06579   0.00000  Uiso   1.00
C582   C     0.80977   0.55982   0.16667   0.00000  Uiso   1.00
C583   C     0.76288   0.82559   0.07463   0.00000  Uiso   1.00
C584   C     0.72109   0.84577   0.06935   0.00000  Uiso   1.00
C585   C     0.71781   0.89087   0.05541   0.00000  Uiso   1.00
C586   C     0.74354   0.58369   0.28608   0.00000  Uiso   1.00
C587   C     0.78217   0.60914   0.27794   0.00000  Uiso   1.00
C588   C     0.77887   0.65425   0.26402   0.00000  Uiso   1.00
C589   C     0.73707   0.67443   0.25875   0.00000  Uiso   1.00
C590   C     0.69850   0.64957   0.26757   0.00000  Uiso   1.00
C591   C     0.70164   0.60433   0.28097   0.00000  Uiso   1.00
C592   C     0.99694   0.78972   0.02389   0.00000  Uiso   1.00
H593   H     0.85367   0.70645   0.16663   0.00000  Uiso   1.00
H594   H     0.89633   0.54355   0.16670   0.00000  Uiso   1.00
H595   H     0.79536   0.64807   0.16663   0.00000  Uiso   1.00
H596   H     0.70464   0.85193   0.16685   0.00000  Uiso   1.00
H597   H     0.79541   0.85213   0.16675   0.00000  Uiso   1.00
H598   H     0.70459   0.64787   0.16663   0.00000  Uiso   1.00
H599   H     0.60373   0.54360   0.16670   0.00000  Uiso   1.00
H600   H     0.89627   0.95640   0.16658   0.00000  Uiso   1.00
H601   H     0.92153   0.83577   0.04453   0.00000  Uiso   1.00
H602   H     0.91612   0.91543   0.06902   0.00000  Uiso   1.00
H603   H     0.98452   0.95944   0.08497   0.00000  Uiso   1.00
H604   H     0.64633   0.79355   0.16687   0.00000  Uiso   1.00
H605   H     0.55872   0.92384   0.07519   0.00000  Uiso   1.00
H606   H     0.56475   0.84447   0.04963   0.00000  Uiso   1.00
H607   H     0.93523   0.65555   0.28370   0.00000  Uiso   1.00
H608   H     0.94123   0.57620   0.25810   0.00000  Uiso   1.00
H609   H     0.51541   0.54058   0.24829   0.00000  Uiso   1.00
H610   H     0.58383   0.58455   0.26427   0.00000  Uiso   1.00
H611   H     0.57846   0.66420   0.28880   0.00000  Uiso   1.00
H612   H     0.57847   0.66422   0.04453   0.00000  Uiso   1.00
H613   H     0.58386   0.58458   0.06909   0.00000  Uiso   1.00
H614   H     0.51545   0.54059   0.08511   0.00000  Uiso   1.00
H615   H     0.54536   0.89807   0.16648   0.00000  Uiso   1.00
H616   H     0.94126   0.57619   0.07530   0.00000  Uiso   1.00
H617   H     0.93525   0.65554   0.04966   0.00000  Uiso   1.00
H618   H     0.56478   0.84443   0.28366   0.00000  Uiso   1.00
H619   H     0.55879   0.92376   0.25798   0.00000  Uiso   1.00
H620   H     0.98461   0.95939   0.24815   0.00000  Uiso   1.00
H621   H     0.91619   0.91544   0.26420   0.00000  Uiso   1.00
H622   H     0.92155   0.83581   0.28879   0.00000  Uiso   1.00
H623   H     0.67155   0.58580   0.04453   0.00000  Uiso   1.00
H624   H     0.66617   0.66545   0.06906   0.00000  Uiso   1.00
H625   H     0.73459   0.70942   0.08504   0.00000  Uiso   1.00
H626   H     0.95464   0.60193   0.16670   0.00000  Uiso   1.00
H627   H     0.80877   0.67380   0.07524   0.00000  Uiso   1.00
H628   H     0.81477   0.59445   0.04963   0.00000  Uiso   1.00
H629   H     0.68525   0.90552   0.28371   0.00000  Uiso   1.00
H630   H     0.69128   0.82616   0.25815   0.00000  Uiso   1.00
H631   H     0.76548   0.79056   0.24836   0.00000  Uiso   1.00
H632   H     0.83388   0.83457   0.26432   0.00000  Uiso   1.00
H633   H     0.82847   0.91423   0.28881   0.00000  Uiso   1.00
H634   H     0.82845   0.91419   0.04454   0.00000  Uiso   1.00
H635   H     0.83381   0.83456   0.06914   0.00000  Uiso   1.00
H636   H     0.76539   0.79061   0.08518   0.00000  Uiso   1.00
H637   H     0.54541   0.60213   0.16670   0.00000  Uiso   1.00
H638   H     0.69121   0.82623   0.07536   0.00000  Uiso   1.00
H639   H     0.68522   0.90557   0.04967   0.00000  Uiso   1.00
H640   H     0.81475   0.59446   0.28367   0.00000  Uiso   1.00
H641   H     0.80874   0.67381   0.25804   0.00000  Uiso   1.00
H642   H     0.73455   0.70941   0.24823   0.00000  Uiso   1.00
H643   H     0.66614   0.66542   0.26424   0.00000  Uiso   1.00
H644   H     0.67153   0.58578   0.28880   0.00000  Uiso   1.00
H645   H     0.95459   0.89787   0.16658   0.00000  Uiso   1.00
H646   H     0.85373   0.79360   0.16676   0.00000  Uiso   1.00
H647   H     0.64627   0.70640   0.16663   0.00000  Uiso   1.00
H648   H     0.60367   0.95645   0.16647   0.00000  Uiso   1.00
N649   N     0.50000   0.75000   0.28573   0.00000  Uiso   1.00
N650   N     0.50000   0.75000   0.04760   0.00000  Uiso   1.00
N651   N     0.75000   0.50000   0.28573   0.00000  Uiso   1.00
N652   N     0.75000   0.50000   0.04760   0.00000  Uiso   1.00
O653   O     0.54581   0.70419   0.20487   0.00000  Uiso   1.00
O654   O     0.70420   0.54581   0.12846   0.00000  Uiso   1.00
O655   O     0.70420   0.54581   0.20487   0.00000  Uiso   1.00
O656   O     0.79581   0.95419   0.12846   0.00000  Uiso   1.00
O657   O     0.70420   0.95419   0.12846   0.00000  Uiso   1.00
O658   O     0.79581   0.54581   0.20487   0.00000  Uiso   1.00
O659   O     0.79581   0.54581   0.12846   0.00000  Uiso   1.00
O660   O     0.70420   0.95419   0.20487   0.00000  Uiso   1.00
O661   O     0.95420   0.79581   0.12846   0.00000  Uiso   1.00
O662   O     0.95420   0.79581   0.20487   0.00000  Uiso   1.00
O663   O     0.54581   0.70419   0.12846   0.00000  Uiso   1.00
O664   O     0.95420   0.70419   0.12846   0.00000  Uiso   1.00
O665   O     0.54581   0.79581   0.20487   0.00000  Uiso   1.00
O666   O     0.54581   0.79581   0.12846   0.00000  Uiso   1.00
O667   O     0.95420   0.70419   0.20487   0.00000  Uiso   1.00
O668   O     0.79581   0.95419   0.20487   0.00000  Uiso   1.00
Zn669  Zn    0.50000   0.75000   0.21771   0.00000  Uiso   1.00
Zn670  Zn    0.50000   0.75000   0.11563   0.00000  Uiso   1.00
Zn671  Zn    0.75000   0.50000   0.21771   0.00000  Uiso   1.00
Zn672  Zn    0.75000   0.50000   0.11563   0.00000  Uiso   1.00
C673   C     0.05979   0.19022   0.50000   0.00000  Uiso   1.00
C674   C     0.00306   0.21028   0.64277   0.00000  Uiso   1.00
C675   C     0.00306   0.21028   0.35723   0.00000  Uiso   1.00
C676   C     0.49694   0.28972   0.64277   0.00000  Uiso   1.00
C677   C     0.24694   0.03972   0.35723   0.00000  Uiso   1.00
C678   C     0.25306   0.46028   0.64277   0.00000  Uiso   1.00
C679   C     0.25306   0.46028   0.35723   0.00000  Uiso   1.00
C680   C     0.24694   0.03972   0.64277   0.00000  Uiso   1.00
C681   C     0.36275   0.17088   0.49998   0.00000  Uiso   1.00
C682   C     0.13725   0.32912   0.50011   0.00000  Uiso   1.00
C683   C     0.08017   0.38825   0.49989   0.00000  Uiso   1.00
C684   C     0.44021   0.30978   0.50000   0.00000  Uiso   1.00
C685   C     0.41983   0.11175   0.50002   0.00000  Uiso   1.00
C686   C     0.08021   0.11184   0.50002   0.00000  Uiso   1.00
C687   C     0.41979   0.38816   0.49995   0.00000  Uiso   1.00
C688   C     0.36279   0.32914   0.50005   0.00000  Uiso   1.00
C689   C     0.13721   0.17086   0.49998   0.00000  Uiso   1.00
C690   C     0.11275   0.42088   0.49989   0.00000  Uiso   1.00
C691   C     0.38725   0.07912   0.50002   0.00000  Uiso   1.00
C692   C     0.33017   0.13825   0.49998   0.00000  Uiso   1.00
C693   C     0.16983   0.36175   0.50011   0.00000  Uiso   1.00
C694   C     0.33021   0.36184   0.50005   0.00000  Uiso   1.00
C695   C     0.44023   0.19018   0.50000   0.00000  Uiso   1.00
C696   C     0.16979   0.13816   0.49998   0.00000  Uiso   1.00
C697   C     0.11279   0.07914   0.50002   0.00000  Uiso   1.00
C698   C     0.38721   0.42086   0.49995   0.00000  Uiso   1.00
C699   C     0.09291   0.34290   0.50000   0.00000  Uiso   1.00
C700   C     0.40709   0.15710   0.50000   0.00000  Uiso   1.00
C701   C     0.40707   0.34286   0.50000   0.00000  Uiso   1.00
C702   C     0.09293   0.15714   0.50000   0.00000  Uiso   1.00
C703   C     0.34291   0.09290   0.50000   0.00000  Uiso   1.00
C704   C     0.15709   0.40710   0.50000   0.00000  Uiso   1.00
C705   C     0.15707   0.09286   0.50000   0.00000  Uiso   1.00
C706   C     0.05977   0.30982   0.50000   0.00000  Uiso   1.00
C707   C     0.34293   0.40714   0.50000   0.00000  Uiso   1.00
C708   C     0.49353   0.33369   0.38058   0.00000  Uiso   1.00
C709   C     0.45163   0.35432   0.38567   0.00000  Uiso   1.00
C710   C     0.44848   0.39958   0.39903   0.00000  Uiso   1.00
C711   C     0.48705   0.42445   0.40781   0.00000  Uiso   1.00
C712   C     0.02885   0.40428   0.40256   0.00000  Uiso   1.00
C713   C     0.03216   0.35916   0.38869   0.00000  Uiso   1.00
C714   C     0.00645   0.16631   0.61942   0.00000  Uiso   1.00
C715   C     0.46782   0.14086   0.61130   0.00000  Uiso   1.00
C716   C     0.47111   0.09574   0.59740   0.00000  Uiso   1.00
C717   C     0.30979   0.44022   0.50000   0.00000  Uiso   1.00
C718   C     0.01290   0.07556   0.59214   0.00000  Uiso   1.00
C719   C     0.05147   0.10041   0.60094   0.00000  Uiso   1.00
C720   C     0.04834   0.14566   0.61431   0.00000  Uiso   1.00
C721   C     0.00646   0.16631   0.38059   0.00000  Uiso   1.00
C722   C     0.04836   0.14567   0.38570   0.00000  Uiso   1.00
C723   C     0.05150   0.10043   0.39909   0.00000  Uiso   1.00
C724   C     0.01293   0.07557   0.40791   0.00000  Uiso   1.00
C725   C     0.47113   0.09575   0.40264   0.00000  Uiso   1.00
C726   C     0.46783   0.14086   0.38873   0.00000  Uiso   1.00
C727   C     0.49356   0.33369   0.61940   0.00000  Uiso   1.00
C728   C     0.19021   0.05978   0.50000   0.00000  Uiso   1.00
C729   C     0.03220   0.35912   0.61126   0.00000  Uiso   1.00
C730   C     0.02891   0.40423   0.59731   0.00000  Uiso   1.00
C731   C     0.48712   0.42441   0.59203   0.00000  Uiso   1.00
C732   C     0.44854   0.39958   0.60087   0.00000  Uiso   1.00
C733   C     0.45167   0.35434   0.61429   0.00000  Uiso   1.00
C734   C     0.24355   0.08369   0.38058   0.00000  Uiso   1.00
C735   C     0.20166   0.10434   0.38569   0.00000  Uiso   1.00
C736   C     0.19853   0.14959   0.39906   0.00000  Uiso   1.00
C737   C     0.23710   0.17444   0.40786   0.00000  Uiso   1.00
C738   C     0.27889   0.15425   0.40260   0.00000  Uiso   1.00
C739   C     0.19023   0.44018   0.50000   0.00000  Uiso   1.00
C740   C     0.28219   0.10914   0.38870   0.00000  Uiso   1.00
C741   C     0.25647   0.41631   0.61942   0.00000  Uiso   1.00
C742   C     0.21784   0.39084   0.61131   0.00000  Uiso   1.00
C743   C     0.22115   0.34572   0.59744   0.00000  Uiso   1.00
C744   C     0.26295   0.32555   0.59219   0.00000  Uiso   1.00
C745   C     0.30151   0.35042   0.60097   0.00000  Uiso   1.00
C746   C     0.29837   0.39568   0.61433   0.00000  Uiso   1.00
C747   C     0.25644   0.41631   0.38060   0.00000  Uiso   1.00
C748   C     0.29833   0.39566   0.38571   0.00000  Uiso   1.00
C749   C     0.30146   0.35042   0.39913   0.00000  Uiso   1.00
C750   C     0.30977   0.05982   0.50000   0.00000  Uiso   1.00
C751   C     0.26288   0.32559   0.40797   0.00000  Uiso   1.00
C752   C     0.22109   0.34577   0.40269   0.00000  Uiso   1.00
C753   C     0.21781   0.39087   0.38874   0.00000  Uiso   1.00
C754   C     0.24354   0.08369   0.61941   0.00000  Uiso   1.00
C755   C     0.28217   0.10914   0.61127   0.00000  Uiso   1.00
C756   C     0.27887   0.15425   0.59736   0.00000  Uiso   1.00
C757   C     0.23707   0.17443   0.59209   0.00000  Uiso   1.00
C758   C     0.19850   0.14957   0.60091   0.00000  Uiso   1.00
C759   C     0.20164   0.10433   0.61430   0.00000  Uiso   1.00
C760   C     0.49694   0.28972   0.35723   0.00000  Uiso   1.00
H761   H     0.35367   0.20645   0.49996   0.00000  Uiso   1.00
H762   H     0.39633   0.04355   0.50004   0.00000  Uiso   1.00
H763   H     0.29536   0.14807   0.49996   0.00000  Uiso   1.00
H764   H     0.20464   0.35193   0.50018   0.00000  Uiso   1.00
H765   H     0.29541   0.35213   0.50009   0.00000  Uiso   1.00
H766   H     0.20459   0.14787   0.49996   0.00000  Uiso   1.00
H767   H     0.10373   0.04360   0.50004   0.00000  Uiso   1.00
H768   H     0.39627   0.45640   0.49991   0.00000  Uiso   1.00
H769   H     0.42153   0.33577   0.37786   0.00000  Uiso   1.00
H770   H     0.41612   0.41543   0.40235   0.00000  Uiso   1.00
H771   H     0.48452   0.45944   0.41830   0.00000  Uiso   1.00
H772   H     0.14633   0.29355   0.50020   0.00000  Uiso   1.00
H773   H     0.05872   0.42384   0.40852   0.00000  Uiso   1.00
H774   H     0.06475   0.34447   0.38296   0.00000  Uiso   1.00
H775   H     0.43523   0.15555   0.61704   0.00000  Uiso   1.00
H776   H     0.44123   0.07620   0.59143   0.00000  Uiso   1.00
H777   H     0.01541   0.04058   0.58163   0.00000  Uiso   1.00
H778   H     0.08383   0.08455   0.59761   0.00000  Uiso   1.00
H779   H     0.07846   0.16420   0.62213   0.00000  Uiso   1.00
H780   H     0.07847   0.16422   0.37787   0.00000  Uiso   1.00
H781   H     0.08386   0.08458   0.40243   0.00000  Uiso   1.00
H782   H     0.01545   0.04059   0.41844   0.00000  Uiso   1.00
H783   H     0.04536   0.39807   0.49982   0.00000  Uiso   1.00
H784   H     0.44126   0.07619   0.40863   0.00000  Uiso   1.00
H785   H     0.43525   0.15554   0.38299   0.00000  Uiso   1.00
H786   H     0.06478   0.34443   0.61700   0.00000  Uiso   1.00
H787   H     0.05879   0.42376   0.59131   0.00000  Uiso   1.00
H788   H     0.48461   0.45939   0.58149   0.00000  Uiso   1.00
H789   H     0.41619   0.41544   0.59753   0.00000  Uiso   1.00
H790   H     0.42155   0.33581   0.62213   0.00000  Uiso   1.00
H791   H     0.17155   0.08580   0.37787   0.00000  Uiso   1.00
H792   H     0.16617   0.16545   0.40239   0.00000  Uiso   1.00
H793   H     0.23459   0.20942   0.41837   0.00000  Uiso   1.00
H794   H     0.45464   0.10193   0.50004   0.00000  Uiso   1.00
H795   H     0.30877   0.17380   0.40857   0.00000  Uiso   1.00
H796   H     0.31477   0.09445   0.38296   0.00000  Uiso   1.00
H797   H     0.18525   0.40552   0.61704   0.00000  Uiso   1.00
H798   H     0.19128   0.32616   0.59148   0.00000  Uiso   1.00
H799   H     0.26548   0.29056   0.58170   0.00000  Uiso   1.00
H800   H     0.33388   0.33457   0.59765   0.00000  Uiso   1.00
H801   H     0.32847   0.41423   0.62214   0.00000  Uiso   1.00
H802   H     0.32845   0.41419   0.37787   0.00000  Uiso   1.00
H803   H     0.33381   0.33456   0.40247   0.00000  Uiso   1.00
H804   H     0.26539   0.29061   0.41851   0.00000  Uiso   1.00
H805   H     0.04541   0.10213   0.50004   0.00000  Uiso   1.00
H806   H     0.19121   0.32623   0.40869   0.00000  Uiso   1.00
H807   H     0.18522   0.40557   0.38300   0.00000  Uiso   1.00
H808   H     0.31475   0.09446   0.61701   0.00000  Uiso   1.00
H809   H     0.30874   0.17381   0.59137   0.00000  Uiso   1.00
H810   H     0.23455   0.20941   0.58156   0.00000  Uiso   1.00
H811   H     0.16614   0.16542   0.59757   0.00000  Uiso   1.00
H812   H     0.17153   0.08578   0.62213   0.00000  Uiso   1.00
H813   H     0.45459   0.39787   0.49991   0.00000  Uiso   1.00
H814   H     0.35373   0.29360   0.50009   0.00000  Uiso   1.00
H815   H     0.14627   0.20640   0.49996   0.00000  Uiso   1.00
H816   H     0.10367   0.45645   0.49980   0.00000  Uiso   1.00
N817   N     0.00000   0.25000   0.61907   0.00000  Uiso   1.00
N818   N     0.00000   0.25000   0.38093   0.00000  Uiso   1.00
N819   N     0.25000  -0.00000   0.61907   0.00000  Uiso   1.00
N820   N     0.25000  -0.00000   0.38093   0.00000  Uiso   1.00
O821   O     0.04581   0.20419   0.53821   0.00000  Uiso   1.00
O822   O     0.20420   0.04581   0.46179   0.00000  Uiso   1.00
O823   O     0.20420   0.04581   0.53821   0.00000  Uiso   1.00
O824   O     0.29581   0.45419   0.46179   0.00000  Uiso   1.00
O825   O     0.20420   0.45419   0.46179   0.00000  Uiso   1.00
O826   O     0.29581   0.04581   0.53821   0.00000  Uiso   1.00
O827   O     0.29581   0.04581   0.46179   0.00000  Uiso   1.00
O828   O     0.20420   0.45419   0.53821   0.00000  Uiso   1.00
O829   O     0.45420   0.29581   0.46179   0.00000  Uiso   1.00
O830   O     0.45420   0.29581   0.53821   0.00000  Uiso   1.00
O831   O     0.04581   0.20419   0.46179   0.00000  Uiso   1.00
O832   O     0.45420   0.20419   0.46179   0.00000  Uiso   1.00
O833   O     0.04581   0.29581   0.53821   0.00000  Uiso   1.00
O834   O     0.04581   0.29581   0.46179   0.00000  Uiso   1.00
O835   O     0.45420   0.20419   0.53821   0.00000  Uiso   1.00
O836   O     0.29581   0.45419   0.53821   0.00000  Uiso   1.00
Zn837  Zn    0.00000   0.25000   0.55104   0.00000  Uiso   1.00
Zn838  Zn    0.00000   0.25000   0.44896   0.00000  Uiso   1.00
Zn839  Zn    0.25000  -0.00000   0.55104   0.00000  Uiso   1.00
Zn840  Zn    0.25000  -0.00000   0.44896   0.00000  Uiso   1.00
C841   C     0.55979   0.19022   0.50000   0.00000  Uiso   1.00
C842   C     0.50306   0.21028   0.64277   0.00000  Uiso   1.00
C843   C     0.50306   0.21028   0.35723   0.00000  Uiso   1.00
C844   C     0.99694   0.28972   0.64277   0.00000  Uiso   1.00
C845   C     0.74694   0.03972   0.35723   0.00000  Uiso   1.00
C846   C     0.75306   0.46028   0.64277   0.00000  Uiso   1.00
C847   C     0.75306   0.46028   0.35723   0.00000  Uiso   1.00
C848   C     0.74694   0.03972   0.64277   0.00000  Uiso   1.00
C849   C     0.86275   0.17088   0.49998   0.00000  Uiso   1.00
C850   C     0.63725   0.32912   0.50011   0.00000  Uiso   1.00
C851   C     0.58017   0.38825   0.49989   0.00000  Uiso   1.00
C852   C     0.94021   0.30978   0.50000   0.00000  Uiso   1.00
C853   C     0.91983   0.11175   0.50002   0.00000  Uiso   1.00
C854   C     0.58021   0.11184   0.50002   0.00000  Uiso   1.00
C855   C     0.91979   0.38816   0.49995   0.00000  Uiso   1.00
C856   C     0.86279   0.32914   0.50005   0.00000  Uiso   1.00
C857   C     0.63721   0.17086   0.49998   0.00000  Uiso   1.00
C858   C     0.61275   0.42088   0.49989   0.00000  Uiso   1.00
C859   C     0.88725   0.07912   0.50002   0.00000  Uiso   1.00
C860   C     0.83017   0.13825   0.49998   0.00000  Uiso   1.00
C861   C     0.66983   0.36175   0.50011   0.00000  Uiso   1.00
C862   C     0.83021   0.36184   0.50005   0.00000  Uiso   1.00
C863   C     0.94023   0.19018   0.50000   0.00000  Uiso   1.00
C864   C     0.66979   0.13816   0.49998   0.00000  Uiso   1.00
C865   C     0.61279   0.07914   0.50002   0.00000  Uiso   1.00
C866   C     0.88721   0.42086   0.49995   0.00000  Uiso   1.00
C867   C     0.59291   0.34290   0.50000   0.00000  Uiso   1.00
C868   C     0.90709   0.15710   0.50000   0.00000  Uiso   1.00
C869   C     0.90707   0.34286   0.50000   0.00000  Uiso   1.00
C870   C     0.59293   0.15714   0.50000   0.00000  Uiso   1.00
C871   C     0.84291   0.09290   0.50000   0.00000  Uiso   1.00
C872   C     0.65709   0.40710   0.50000   0.00000  Uiso   1.00
C873   C     0.65707   0.09286   0.50000   0.00000  Uiso   1.00
C874   C     0.55977   0.30982   0.50000   0.00000  Uiso   1.00
C875   C     0.84293   0.40714   0.50000   0.00000  Uiso   1.00
C876   C     0.99353   0.33369   0.38058   0.00000  Uiso   1.00
C877   C     0.95163   0.35432   0.38567   0.00000  Uiso   1.00
C878   C     0.94848   0.39958   0.39903   0.00000  Uiso   1.00
C879   C     0.98705   0.42445   0.40781   0.00000  Uiso   1.00
C880   C     0.52885   0.40428   0.40256   0.00000  Uiso   1.00
C881   C     0.53216   0.35916   0.38869   0.00000  Uiso   1.00
C882   C     0.50645   0.16631   0.61942   0.00000  Uiso   1.00
C883   C     0.96782   0.14086   0.61130   0.00000  Uiso   1.00
C884   C     0.97111   0.09574   0.59740   0.00000  Uiso   1.00
C885   C     0.80979   0.44022   0.50000   0.00000  Uiso   1.00
C886   C     0.51290   0.07556   0.59214   0.00000  Uiso   1.00
C887   C     0.55147   0.10041   0.60094   0.00000  Uiso   1.00
C888   C     0.54834   0.14566   0.61431   0.00000  Uiso   1.00
C889   C     0.50646   0.16631   0.38059   0.00000  Uiso   1.00
C890   C     0.54836   0.14567   0.38570   0.00000  Uiso   1.00
C891   C     0.55150   0.10043   0.39909   0.00000  Uiso   1.00
C892   C     0.51293   0.07557   0.40791   0.00000  Uiso   1.00
C893   C     0.97113   0.09575   0.40264   0.00000  Uiso   1.00
C894   C     0.96783   0.14086   0.38873   0.00000  Uiso   1.00
C895   C     0.99356   0.33369   0.61940   0.00000  Uiso   1.00
C896   C     0.69021   0.05978   0.50000   0.00000  Uiso   1.00
C897   C     0.53220   0.35912   0.61126   0.00000  Uiso   1.00
C898   C     0.52891   0.40423   0.59731   0.00000  Uiso   1.00
C899   C     0.98712   0.42441   0.59203   0.00000  Uiso   1.00
C900   C     0.94854   0.39958   0.60087   0.00000  Uiso   1.00
C901   C     0.95167   0.35434   0.61429   0.00000  Uiso   1.00
C902   C     0.74355   0.08369   0.38058   0.00000  Uiso   1.00
C903   C     0.70166   0.10434   0.38569   0.00000  Uiso   1.00
C904   C     0.69853   0.14959   0.39906   0.00000  Uiso   1.00
C905   C     0.73710   0.17444   0.40786   0.00000  Uiso   1.00
C906   C     0.77889   0.15425   0.40260   0.00000  Uiso   1.00
C907   C     0.69023   0.44018   0.50000   0.00000  Uiso   1.00
C908   C     0.78219   0.10914   0.38870   0.00000  Uiso   1.00
C909   C     0.75647   0.41631   0.61942   0.00000  Uiso   1.00
C910   C     0.71784   0.39084   0.61131   0.00000  Uiso   1.00
C911   C     0.72115   0.34572   0.59744   0.00000  Uiso   1.00
C912   C     0.76295   0.32555   0.59219   0.00000  Uiso   1.00
C913   C     0.80151   0.35042   0.60097   0.00000  Uiso   1.00
C914   C     0.79837   0.39568   0.61433   0.00000  Uiso   1.00
C915   C     0.75644   0.41631   0.38060   0.00000  Uiso   1.00
C916   C     0.79833   0.39566   0.38571   0.00000  Uiso   1.00
C917   C     0.80146   0.35042   0.39913   0.00000  Uiso   1.00
C918   C     0.80977   0.05982   0.50000   0.00000  Uiso   1.00
C919   C     0.76288   0.32559   0.40797   0.00000  Uiso   1.00
C920   C     0.72109   0.34577   0.40269   0.00000  Uiso   1.00
C921   C     0.71781   0.39087   0.38874   0.00000  Uiso   1.00
C922   C     0.74354   0.08369   0.61941   0.00000  Uiso   1.00
C923   C     0.78217   0.10914   0.61127   0.00000  Uiso   1.00
C924   C     0.77887   0.15425   0.59736   0.00000  Uiso   1.00
C925   C     0.73707   0.17443   0.59209   0.00000  Uiso   1.00
C926   C     0.69850   0.14957   0.60091   0.00000  Uiso   1.00
C927   C     0.70164   0.10433   0.61430   0.00000  Uiso   1.00
C928   C     0.99694   0.28972   0.35723   0.00000  Uiso   1.00
H929   H     0.85367   0.20645   0.49996   0.00000  Uiso   1.00
H930   H     0.89633   0.04355   0.50004   0.00000  Uiso   1.00
H931   H     0.79536   0.14807   0.49996   0.00000  Uiso   1.00
H932   H     0.70464   0.35193   0.50018   0.00000  Uiso   1.00
H933   H     0.79541   0.35213   0.50009   0.00000  Uiso   1.00
H934   H     0.70459   0.14787   0.49996   0.00000  Uiso   1.00
H935   H     0.60373   0.04360   0.50004   0.00000  Uiso   1.00
H936   H     0.89627   0.45640   0.49991   0.00000  Uiso   1.00
H937   H     0.92153   0.33577   0.37786   0.00000  Uiso   1.00
H938   H     0.91612   0.41543   0.40235   0.00000  Uiso   1.00
H939   H     0.98452   0.45944   0.41830   0.00000  Uiso   1.00
H940   H     0.64633   0.29355   0.50020   0.00000  Uiso   1.00
H941   H     0.55872   0.42384   0.40852   0.00000  Uiso   1.00
H942   H     0.56475   0.34447   0.38296   0.00000  Uiso   1.00
H943   H     0.93523   0.15555   0.61704   0.00000  Uiso   1.00
H944   H     0.94123   0.07620   0.59143   0.00000  Uiso   1.00
H945   H     0.51541   0.04058   0.58163   0.00000  Uiso   1.00
H946   H     0.58383   0.08455   0.59761   0.00000  Uiso   1.00
H947   H     0.57846   0.16420   0.62213   0.00000  Uiso   1.00
H948   H     0.57847   0.16422   0.37787   0.00000  Uiso   1.00
H949   H     0.58386   0.08458   0.40243   0.00000  Uiso   1.00
H950   H     0.51545   0.04059   0.41844   0.00000  Uiso   1.00
H951   H     0.54536   0.39807   0.49982   0.00000  Uiso   1.00
H952   H     0.94126   0.07619   0.40863   0.00000  Uiso   1.00
H953   H     0.93525   0.15554   0.38299   0.00000  Uiso   1.00
H954   H     0.56478   0.34443   0.61700   0.00000  Uiso   1.00
H955   H     0.55879   0.42376   0.59131   0.00000  Uiso   1.00
H956   H     0.98461   0.45939   0.58149   0.00000  Uiso   1.00
H957   H     0.91619   0.41544   0.59753   0.00000  Uiso   1.00
H958   H     0.92155   0.33581   0.62213   0.00000  Uiso   1.00
H959   H     0.67155   0.08580   0.37787   0.00000  Uiso   1.00
H960   H     0.66617   0.16545   0.40239   0.00000  Uiso   1.00
H961   H     0.73459   0.20942   0.41837   0.00000  Uiso   1.00
H962   H     0.95464   0.10193   0.50004   0.00000  Uiso   1.00
H963   H     0.80877   0.17380   0.40857   0.00000  Uiso   1.00
H964   H     0.81477   0.09445   0.38296   0.00000  Uiso   1.00
H965   H     0.68525   0.40552   0.61704   0.00000  Uiso   1.00
H966   H     0.69128   0.32616   0.59148   0.00000  Uiso   1.00
H967   H     0.76548   0.29056   0.58170   0.00000  Uiso   1.00
H968   H     0.83388   0.33457   0.59765   0.00000  Uiso   1.00
H969   H     0.82847   0.41423   0.62214   0.00000  Uiso   1.00
H970   H     0.82845   0.41419   0.37787   0.00000  Uiso   1.00
H971   H     0.83381   0.33456   0.40247   0.00000  Uiso   1.00
H972   H     0.76539   0.29061   0.41851   0.00000  Uiso   1.00
H973   H     0.54541   0.10213   0.50004   0.00000  Uiso   1.00
H974   H     0.69121   0.32623   0.40869   0.00000  Uiso   1.00
H975   H     0.68522   0.40557   0.38300   0.00000  Uiso   1.00
H976   H     0.81475   0.09446   0.61701   0.00000  Uiso   1.00
H977   H     0.80874   0.17381   0.59137   0.00000  Uiso   1.00
H978   H     0.73455   0.20941   0.58156   0.00000  Uiso   1.00
H979   H     0.66614   0.16542   0.59757   0.00000  Uiso   1.00
H980   H     0.67153   0.08578   0.62213   0.00000  Uiso   1.00
H981   H     0.95459   0.39787   0.49991   0.00000  Uiso   1.00
H982   H     0.85373   0.29360   0.50009   0.00000  Uiso   1.00
H983   H     0.64627   0.20640   0.49996   0.00000  Uiso   1.00
H984   H     0.60367   0.45645   0.49980   0.00000  Uiso   1.00
N985   N     0.50000   0.25000   0.61907   0.00000  Uiso   1.00
N986   N     0.50000   0.25000   0.38093   0.00000  Uiso   1.00
N987   N     0.75000  -0.00000   0.61907   0.00000  Uiso   1.00
N988   N     0.75000  -0.00000   0.38093   0.00000  Uiso   1.00
O989   O     0.54581   0.20419   0.53821   0.00000  Uiso   1.00
O990   O     0.70420   0.04581   0.46179   0.00000  Uiso   1.00
O991   O     0.70420   0.04581   0.53821   0.00000  Uiso   1.00
O992   O     0.79581   0.45419   0.46179   0.00000  Uiso   1.00
O993   O     0.70420   0.45419   0.46179   0.00000  Uiso   1.00
O994   O     0.79581   0.04581   0.53821   0.00000  Uiso   1.00
O995   O     0.79581   0.04581   0.46179   0.00000  Uiso   1.00
O996   O     0.70420   0.45419   0.53821   0.00000  Uiso   1.00
O997   O     0.95420   0.29581   0.46179   0.00000  Uiso   1.00
O998   O     0.95420   0.29581   0.53821   0.00000  Uiso   1.00
O999   O     0.54581   0.20419   0.46179   0.00000  Uiso   1.00
O1000  O     0.95420   0.20419   0.46179   0.00000  Uiso   1.00
O1001  O     0.54581   0.29581   0.53821   0.00000  Uiso   1.00
O1002  O     0.54581   0.29581   0.46179   0.00000  Uiso   1.00
O1003  O     0.95420   0.20419   0.53821   0.00000  Uiso   1.00
O1004  O     0.79581   0.45419   0.53821   0.00000  Uiso   1.00
Zn1005 Zn    0.50000   0.25000   0.55104   0.00000  Uiso   1.00
Zn1006 Zn    0.50000   0.25000   0.44896   0.00000  Uiso   1.00
Zn1007 Zn    0.75000  -0.00000   0.55104   0.00000  Uiso   1.00
Zn1008 Zn    0.75000  -0.00000   0.44896   0.00000  Uiso   1.00
C1009  C     0.05979   0.69022   0.50000   0.00000  Uiso   1.00
C1010  C     0.00306   0.71028   0.64277   0.00000  Uiso   1.00
C1011  C     0.00306   0.71028   0.35723   0.00000  Uiso   1.00
C1012  C     0.49694   0.78972   0.64277   0.00000  Uiso   1.00
C1013  C     0.24694   0.53972   0.35723   0.00000  Uiso   1.00
C1014  C     0.25306   0.96028   0.64277   0.00000  Uiso   1.00
C1015  C     0.25306   0.96028   0.35723   0.00000  Uiso   1.00
C1016  C     0.24694   0.53972   0.64277   0.00000  Uiso   1.00
C1017  C     0.36275   0.67088   0.49998   0.00000  Uiso   1.00
C1018  C     0.13725   0.82912   0.50011   0.00000  Uiso   1.00
C1019  C     0.08017   0.88825   0.49989   0.00000  Uiso   1.00
C1020  C     0.44021   0.80978   0.50000   0.00000  Uiso   1.00
C1021  C     0.41983   0.61175   0.50002   0.00000  Uiso   1.00
C1022  C     0.08021   0.61184   0.50002   0.00000  Uiso   1.00
C1023  C     0.41979   0.88816   0.49995   0.00000  Uiso   1.00
C1024  C     0.36279   0.82914   0.50005   0.00000  Uiso   1.00
C1025  C     0.13721   0.67086   0.49998   0.00000  Uiso   1.00
C1026  C     0.11275   0.92088   0.49989   0.00000  Uiso   1.00
C1027  C     0.38725   0.57912   0.50002   0.00000  Uiso   1.00
C1028  C     0.33017   0.63825   0.49998   0.00000  Uiso   1.00
C1029  C     0.16983   0.86175   0.50011   0.00000  Uiso   1.00
C1030  C     0.33021   0.86184   0.50005   0.00000  Uiso   1.00
C1031  C     0.44023   0.69018   0.50000   0.00000  Uiso   1.00
C1032  C     0.16979   0.63816   0.49998   0.00000  Uiso   1.00
C1033  C     0.11279   0.57914   0.50002   0.00000  Uiso   1.00
C1034  C     0.38721   0.92086   0.49995   0.00000  Uiso   1.00
C1035  C     0.09291   0.84290   0.50000   0.00000  Uiso   1.00
C1036  C     0.40709   0.65710   0.50000   0.00000  Uiso   1.00
C1037  C     0.40707   0.84286   0.50000   0.00000  Uiso   1.00
C1038  C     0.09293   0.65714   0.50000   0.00000  Uiso   1.00
C1039  C     0.34291   0.59290   0.50000   0.00000  Uiso   1.00
C1040  C     0.15709   0.90710   0.50000   0.00000  Uiso   1.00
C1041  C     0.15707   0.59286   0.50000   0.00000  Uiso   1.00
C1042  C     0.05977   0.80982   0.50000   0.00000  Uiso   1.00
C1043  C     0.34293   0.90714   0.50000   0.00000  Uiso   1.00
C1044  C     0.49353   0.83369   0.38058   0.00000  Uiso   1.00
C1045  C     0.45163   0.85432   0.38567   0.00000  Uiso   1.00
C1046  C     0.44848   0.89958   0.39903   0.00000  Uiso   1.00
C1047  C     0.48705   0.92445   0.40781   0.00000  Uiso   1.00
C1048  C     0.02885   0.90428   0.40256   0.00000  Uiso   1.00
C1049  C     0.03216   0.85916   0.38869   0.00000  Uiso   1.00
C1050  C     0.00645   0.66631   0.61942   0.00000  Uiso   1.00
C1051  C     0.46782   0.64086   0.61130   0.00000  Uiso   1.00
C1052  C     0.47111   0.59574   0.59740   0.00000  Uiso   1.00
C1053  C     0.30979   0.94022   0.50000   0.00000  Uiso   1.00
C1054  C     0.01290   0.57556   0.59214   0.00000  Uiso   1.00
C1055  C     0.05147   0.60041   0.60094   0.00000  Uiso   1.00
C1056  C     0.04834   0.64566   0.61431   0.00000  Uiso   1.00
C1057  C     0.00646   0.66631   0.38059   0.00000  Uiso   1.00
C1058  C     0.04836   0.64567   0.38570   0.00000  Uiso   1.00
C1059  C     0.05150   0.60043   0.39909   0.00000  Uiso   1.00
C1060  C     0.01293   0.57557   0.40791   0.00000  Uiso   1.00
C1061  C     0.47113   0.59575   0.40264   0.00000  Uiso   1.00
C1062  C     0.46783   0.64086   0.38873   0.00000  Uiso   1.00
C1063  C     0.49356   0.83369   0.61940   0.00000  Uiso   1.00
C1064  C     0.19021   0.55978   0.50000   0.00000  Uiso   1.00
C1065  C     0.03220   0.85912   0.61126   0.00000  Uiso   1.00
C1066  C     0.02891   0.90423   0.59731   0.00000  Uiso   1.00
C1067  C     0.48712   0.92441   0.59203   0.00000  Uiso   1.00
C1068  C     0.44854   0.89958   0.60087   0.00000  Uiso   1.00
C1069  C     0.45167   0.85434   0.61429   0.00000  Uiso   1.00
C1070  C     0.24355   0.58369   0.38058   0.00000  Uiso   1.00
C1071  C     0.20166   0.60434   0.38569   0.00000  Uiso   1.00
C1072  C     0.19853   0.64959   0.39906   0.00000  Uiso   1.00
C1073  C     0.23710   0.67444   0.40786   0.00000  Uiso   1.00
C1074  C     0.27889   0.65425   0.40260   0.00000  Uiso   1.00
C1075  C     0.19023   0.94018   0.50000   0.00000  Uiso   1.00
C1076  C     0.28219   0.60914   0.38870   0.00000  Uiso   1.00
C1077  C     0.25647   0.91631   0.61942   0.00000  Uiso   1.00
C1078  C     0.21784   0.89084   0.61131   0.00000  Uiso   1.00
C1079  C     0.22115   0.84572   0.59744   0.00000  Uiso   1.00
C1080  C     0.26295   0.82555   0.59219   0.00000  Uiso   1.00
C1081  C     0.30151   0.85042   0.60097   0.00000  Uiso   1.00
C1082  C     0.29837   0.89568   0.61433   0.00000  Uiso   1.00
C1083  C     0.25644   0.91631   0.38060   0.00000  Uiso   1.00
C1084  C     0.29833   0.89566   0.38571   0.00000  Uiso   1.00
C1085  C     0.30146   0.85042   0.39913   0.00000  Uiso   1.00
C1086  C     0.30977   0.55982   0.50000   0.00000  Uiso   1.00
C1087  C     0.26288   0.82559   0.40797   0.00000  Uiso   1.00
C1088  C     0.22109   0.84577   0.40269   0.00000  Uiso   1.00
C1089  C     0.21781   0.89087   0.38874   0.00000  Uiso   1.00
C1090  C     0.24354   0.58369   0.61941   0.00000  Uiso   1.00
C1091  C     0.28217   0.60914   0.61127   0.00000  Uiso   1.00
C1092  C     0.27887   0.65425   0.59736   0.00000  Uiso   1.00
C1093  C     0.23707   0.67443   0.59209   0.00000  Uiso   1.00
C1094  C     0.19850   0.64957   0.60091   0.00000  Uiso   1.00
C1095  C     0.20164   0.60433   0.61430   0.00000  Uiso   1.00
C1096  C     0.49694   0.78972   0.35723   0.00000  Uiso   1.00
H1097  H     0.35367   0.70645   0.49996   0.00000  Uiso   1.00
H1098  H     0.39633   0.54355   0.50004   0.00000  Uiso   1.00
H1099  H     0.29536   0.64807   0.49996   0.00000  Uiso   1.00
H1100  H     0.20464   0.85193   0.50018   0.00000  Uiso   1.00
H1101  H     0.29541   0.85213   0.50009   0.00000  Uiso   1.00
H1102  H     0.20459   0.64787   0.49996   0.00000  Uiso   1.00
H1103  H     0.10373   0.54360   0.50004   0.00000  Uiso   1.00
H1104  H     0.39627   0.95640   0.49991   0.00000  Uiso   1.00
H1105  H     0.42153   0.83577   0.37786   0.00000  Uiso   1.00
H1106  H     0.41612   0.91543   0.40235   0.00000  Uiso   1.00
H1107  H     0.48452   0.95944   0.41830   0.00000  Uiso   1.00
H1108  H     0.14633   0.79355   0.50020   0.00000  Uiso   1.00
H1109  H     0.05872   0.92384   0.40852   0.00000  Uiso   1.00
H1110  H     0.06475   0.84447   0.38296   0.00000  Uiso   1.00
H1111  H     0.43523   0.65555   0.61704   0.00000  Uiso   1.00
H1112  H     0.44123   0.57620   0.59143   0.00000  Uiso   1.00
H1113  H     0.01541   0.54058   0.58163   0.00000  Uiso   1.00
H1114  H     0.08383   0.58455   0.59761   0.00000  Uiso   1.00
H1115  H     0.07846   0.66420   0.62213   0.00000  Uiso   1.00
H1116  H     0.07847   0.66422   0.37787   0.00000  Uiso   1.00
H1117  H     0.08386   0.58458   0.40243   0.00000  Uiso   1.00
H1118  H     0.01545   0.54059   0.41844   0.00000  Uiso   1.00
H1119  H     0.04536   0.89807   0.49982   0.00000  Uiso   1.00
H1120  H     0.44126   0.57619   0.40863   0.00000  Uiso   1.00
H1121  H     0.43525   0.65554   0.38299   0.00000  Uiso   1.00
H1122  H     0.06478   0.84443   0.61700   0.00000  Uiso   1.00
H1123  H     0.05879   0.92376   0.59131   0.00000  Uiso   1.00
H1124  H     0.48461   0.95939   0.58149   0.00000  Uiso   1.00
H1125  H     0.41619   0.91544   0.59753   0.00000  Uiso   1.00
H1126  H     0.42155   0.83581   0.62213   0.00000  Uiso   1.00
H1127  H     0.17155   0.58580   0.37787   0.00000  Uiso   1.00
H1128  H     0.16617   0.66545   0.40239   0.00000  Uiso   1.00
H1129  H     0.23459   0.70942   0.41837   0.00000  Uiso   1.00
H1130  H     0.45464   0.60193   0.50004   0.00000  Uiso   1.00
H1131  H     0.30877   0.67380   0.40857   0.00000  Uiso   1.00
H1132  H     0.31477   0.59445   0.38296   0.00000  Uiso   1.00
H1133  H     0.18525   0.90552   0.61704   0.00000  Uiso   1.00
H1134  H     0.19128   0.82616   0.59148   0.00000  Uiso   1.00
H1135  H     0.26548   0.79056   0.58170   0.00000  Uiso   1.00
H1136  H     0.33388   0.83457   0.59765   0.00000  Uiso   1.00
H1137  H     0.32847   0.91423   0.62214   0.00000  Uiso   1.00
H1138  H     0.32845   0.91419   0.37787   0.00000  Uiso   1.00
H1139  H     0.33381   0.83456   0.40247   0.00000  Uiso   1.00
H1140  H     0.26539   0.79061   0.41851   0.00000  Uiso   1.00
H1141  H     0.04541   0.60213   0.50004   0.00000  Uiso   1.00
H1142  H     0.19121   0.82623   0.40869   0.00000  Uiso   1.00
H1143  H     0.18522   0.90557   0.38300   0.00000  Uiso   1.00
H1144  H     0.31475   0.59446   0.61701   0.00000  Uiso   1.00
H1145  H     0.30874   0.67381   0.59137   0.00000  Uiso   1.00
H1146  H     0.23455   0.70941   0.58156   0.00000  Uiso   1.00
H1147  H     0.16614   0.66542   0.59757   0.00000  Uiso   1.00
H1148  H     0.17153   0.58578   0.62213   0.00000  Uiso   1.00
H1149  H     0.45459   0.89787   0.49991   0.00000  Uiso   1.00
H1150  H     0.35373   0.79360   0.50009   0.00000  Uiso   1.00
H1151  H     0.14627   0.70640   0.49996   0.00000  Uiso   1.00
H1152  H     0.10367   0.95645   0.49980   0.00000  Uiso   1.00
N1153  N     0.00000   0.75000   0.61907   0.00000  Uiso   1.00
N1154  N     0.00000   0.75000   0.38093   0.00000  Uiso   1.00
N1155  N     0.25000   0.50000   0.61907   0.00000  Uiso   1.00
N1156  N     0.25000   0.50000   0.38093   0.00000  Uiso   1.00
O1157  O     0.04581   0.70419   0.53821   0.00000  Uiso   1.00
O1158  O     0.20420   0.54581   0.46179   0.00000  Uiso   1.00
O1159  O     0.20420   0.54581   0.53821   0.00000  Uiso   1.00
O1160  O     0.29581   0.95419   0.46179   0.00000  Uiso   1.00
O1161  O     0.20420   0.95419   0.46179   0.00000  Uiso   1.00
O1162  O     0.29581   0.54581   0.53821   0.00000  Uiso   1.00
O1163  O     0.29581   0.54581   0.46179   0.00000  Uiso   1.00
O1164  O     0.20420   0.95419   0.53821   0.00000  Uiso   1.00
O1165  O     0.45420   0.79581   0.46179   0.00000  Uiso   1.00
O1166  O     0.45420   0.79581   0.53821   0.00000  Uiso   1.00
O1167  O     0.04581   0.70419   0.46179   0.00000  Uiso   1.00
O1168  O     0.45420   0.70419   0.46179   0.00000  Uiso   1.00
O1169  O     0.04581   0.79581   0.53821   0.00000  Uiso   1.00
O1170  O     0.04581   0.79581   0.46179   0.00000  Uiso   1.00
O1171  O     0.45420   0.70419   0.53821   0.00000  Uiso   1.00
O1172  O     0.29581   0.95419   0.53821   0.00000  Uiso   1.00
Zn1173 Zn    0.00000   0.75000   0.55104   0.00000  Uiso   1.00
Zn1174 Zn    0.00000   0.75000   0.44896   0.00000  Uiso   1.00
Zn1175 Zn    0.25000   0.50000   0.55104   0.00000  Uiso   1.00
Zn1176 Zn    0.25000   0.50000   0.44896   0.00000  Uiso   1.00
C1177  C     0.55979   0.69022   0.50000   0.00000  Uiso   1.00
C1178  C     0.50306   0.71028   0.64277   0.00000  Uiso   1.00
C1179  C     0.50306   0.71028   0.35723   0.00000  Uiso   1.00
C1180  C     0.99694   0.78972   0.64277   0.00000  Uiso   1.00
C1181  C     0.74694   0.53972   0.35723   0.00000  Uiso   1.00
C1182  C     0.75306   0.96028   0.64277   0.00000  Uiso   1.00
C1183  C     0.75306   0.96028   0.35723   0.00000  Uiso   1.00
C1184  C     0.74694   0.53972   0.64277   0.00000  Uiso   1.00
C1185  C     0.86275   0.67088   0.49998   0.00000  Uiso   1.00
C1186  C     0.63725   0.82912   0.50011   0.00000  Uiso   1.00
C1187  C     0.58017   0.88825   0.49989   0.00000  Uiso   1.00
C1188  C     0.94021   0.80978   0.50000   0.00000  Uiso   1.00
C1189  C     0.91983   0.61175   0.50002   0.00000  Uiso   1.00
C1190  C     0.58021   0.61184   0.50002   0.00000  Uiso   1.00
C1191  C     0.91979   0.88816   0.49995   0.00000  Uiso   1.00
C1192  C     0.86279   0.82914   0.50005   0.00000  Uiso   1.00
C1193  C     0.63721   0.67086   0.49998   0.00000  Uiso   1.00
C1194  C     0.61275   0.92088   0.49989   0.00000  Uiso   1.00
C1195  C     0.88725   0.57912   0.50002   0.00000  Uiso   1.00
C1196  C     0.83017   0.63825   0.49998   0.00000  Uiso   1.00
C1197  C     0.66983   0.86175   0.50011   0.00000  Uiso   1.00
C1198  C     0.83021   0.86184   0.50005   0.00000  Uiso   1.00
C1199  C     0.94023   0.69018   0.50000   0.00000  Uiso   1.00
C1200  C     0.66979   0.63816   0.49998   0.00000  Uiso   1.00
C1201  C     0.61279   0.57914   0.50002   0.00000  Uiso   1.00
C1202  C     0.88721   0.92086   0.49995   0.00000  Uiso   1.00
C1203  C     0.59291   0.84290   0.50000   0.00000  Uiso   1.00
C1204  C     0.90709   0.65710   0.50000   0.00000  Uiso   1.00
C1205  C     0.90707   0.84286   0.50000   0.00000  Uiso   1.00
C1206  C     0.59293   0.65714   0.50000   0.00000  Uiso   1.00
C1207  C     0.84291   0.59290   0.50000   0.00000  Uiso   1.00
C1208  C     0.65709   0.90710   0.50000   0.00000  Uiso   1.00
C1209  C     0.65707   0.59286   0.50000   0.00000  Uiso   1.00
C1210  C     0.55977   0.80982   0.50000   0.00000  Uiso   1.00
C1211  C     0.84293   0.90714   0.50000   0.00000  Uiso   1.00
C1212  C     0.99353   0.83369   0.38058   0.00000  Uiso   1.00
C1213  C     0.95163   0.85432   0.38567   0.00000  Uiso   1.00
C1214  C     0.94848   0.89958   0.39903   0.00000  Uiso   1.00
C1215  C     0.98705   0.92445   0.40781   0.00000  Uiso   1.00
C1216  C     0.52885   0.90428   0.40256   0.00000  Uiso   1.00
C1217  C     0.53216   0.85916   0.38869   0.00000  Uiso   1.00
C1218  C     0.50645   0.66631   0.61942   0.00000  Uiso   1.00
C1219  C     0.96782   0.64086   0.61130   0.00000  Uiso   1.00
C1220  C     0.97111   0.59574   0.59740   0.00000  Uiso   1.00
C1221  C     0.80979   0.94022   0.50000   0.00000  Uiso   1.00
C1222  C     0.51290   0.57556   0.59214   0.00000  Uiso   1.00
C1223  C     0.55147   0.60041   0.60094   0.00000  Uiso   1.00
C1224  C     0.54834   0.64566   0.61431   0.00000  Uiso   1.00
C1225  C     0.50646   0.66631   0.38059   0.00000  Uiso   1.00
C1226  C     0.54836   0.64567   0.38570   0.00000  Uiso   1.00
C1227  C     0.55150   0.60043   0.39909   0.00000  Uiso   1.00
C1228  C     0.51293   0.57557   0.40791   0.00000  Uiso   1.00
C1229  C     0.97113   0.59575   0.40264   0.00000  Uiso   1.00
C1230  C     0.96783   0.64086   0.38873   0.00000  Uiso   1.00
C1231  C     0.99356   0.83369   0.61940   0.00000  Uiso   1.00
C1232  C     0.69021   0.55978   0.50000   0.00000  Uiso   1.00
C1233  C     0.53220   0.85912   0.61126   0.00000  Uiso   1.00
C1234  C     0.52891   0.90423   0.59731   0.00000  Uiso   1.00
C1235  C     0.98712   0.92441   0.59203   0.00000  Uiso   1.00
C1236  C     0.94854   0.89958   0.60087   0.00000  Uiso   1.00
C1237  C     0.95167   0.85434   0.61429   0.00000  Uiso   1.00
C1238  C     0.74355   0.58369   0.38058   0.00000  Uiso   1.00
C1239  C     0.70166   0.60434   0.38569   0.00000  Uiso   1.00
C1240  C     0.69853   0.64959   0.39906   0.00000  Uiso   1.00
C1241  C     0.73710   0.67444   0.40786   0.00000  Uiso   1.00
C1242  C     0.77889   0.65425   0.40260   0.00000  Uiso   1.00
C1243  C     0.69023   0.94018   0.50000   0.00000  Uiso   1.00
C1244  C     0.78219   0.60914   0.38870   0.00000  Uiso   1.00
C1245  C     0.75647   0.91631   0.61942   0.00000  Uiso   1.00
C1246  C     0.71784   0.89084   0.61131   0.00000  Uiso   1.00
C1247  C     0.72115   0.84572   0.59744   0.00000  Uiso   1.00
C1248  C     0.76295   0.82555   0.59219   0.00000  Uiso   1.00
C1249  C     0.80151   0.85042   0.60097   0.00000  Uiso   1.00
C1250  C     0.79837   0.89568   0.61433   0.00000  Uiso   1.00
C1251  C     0.75644   0.91631   0.38060   0.00000  Uiso   1.00
C1252  C     0.79833   0.89566   0.38571   0.00000  Uiso   1.00
C1253  C     0.80146   0.85042   0.39913   0.00000  Uiso   1.00
C1254  C     0.80977   0.55982   0.50000   0.00000  Uiso   1.00
C1255  C     0.76288   0.82559   0.40797   0.00000  Uiso   1.00
C1256  C     0.72109   0.84577   0.40269   0.00000  Uiso   1.00
C1257  C     0.71781   0.89087   0.38874   0.00000  Uiso   1.00
C1258  C     0.74354   0.58369   0.61941   0.00000  Uiso   1.00
C1259  C     0.78217   0.60914   0.61127   0.00000  Uiso   1.00
C1260  C     0.77887   0.65425   0.59736   0.00000  Uiso   1.00
C1261  C     0.73707   0.67443   0.59209   0.00000  Uiso   1.00
C1262  C     0.69850   0.64957   0.60091   0.00000  Uiso   1.00
C1263  C     0.70164   0.60433   0.61430   0.00000  Uiso   1.00
C1264  C     0.99694   0.78972   0.35723   0.00000  Uiso   1.00
H1265  H     0.85367   0.70645   0.49996   0.00000  Uiso   1.00
H1266  H     0.89633   0.54355   0.50004   0.00000  Uiso   1.00
H1267  H     0.79536   0.64807   0.49996   0.00000  Uiso   1.00
H1268  H     0.70464   0.85193   0.50018   0.00000  Uiso   1.00
H1269  H     0.79541   0.85213   0.50009   0.00000  Uiso   1.00
H1270  H     0.70459   0.64787   0.49996   0.00000  Uiso   1.00
H1271  H     0.60373   0.54360   0.50004   0.00000  Uiso   1.00
H1272  H     0.89627   0.95640   0.49991   0.00000  Uiso   1.00
H1273  H     0.92153   0.83577   0.37786   0.00000  Uiso   1.00
H1274  H     0.91612   0.91543   0.40235   0.00000  Uiso   1.00
H1275  H     0.98452   0.95944   0.41830   0.00000  Uiso   1.00
H1276  H     0.64633   0.79355   0.50020   0.00000  Uiso   1.00
H1277  H     0.55872   0.92384   0.40852   0.00000  Uiso   1.00
H1278  H     0.56475   0.84447   0.38296   0.00000  Uiso   1.00
H1279  H     0.93523   0.65555   0.61704   0.00000  Uiso   1.00
H1280  H     0.94123   0.57620   0.59143   0.00000  Uiso   1.00
H1281  H     0.51541   0.54058   0.58163   0.00000  Uiso   1.00
H1282  H     0.58383   0.58455   0.59761   0.00000  Uiso   1.00
H1283  H     0.57846   0.66420   0.62213   0.00000  Uiso   1.00
H1284  H     0.57847   0.66422   0.37787   0.00000  Uiso   1.00
H1285  H     0.58386   0.58458   0.40243   0.00000  Uiso   1.00
H1286  H     0.51545   0.54059   0.41844   0.00000  Uiso   1.00
H1287  H     0.54536   0.89807   0.49982   0.00000  Uiso   1.00
H1288  H     0.94126   0.57619   0.40863   0.00000  Uiso   1.00
H1289  H     0.93525   0.65554   0.38299   0.00000  Uiso   1.00
H1290  H     0.56478   0.84443   0.61700   0.00000  Uiso   1.00
H1291  H     0.55879   0.92376   0.59131   0.00000  Uiso   1.00
H1292  H     0.98461   0.95939   0.58149   0.00000  Uiso   1.00
H1293  H     0.91619   0.91544   0.59753   0.00000  Uiso   1.00
H1294  H     0.92155   0.83581   0.62213   0.00000  Uiso   1.00
H1295  H     0.67155   0.58580   0.37787   0.00000  Uiso   1.00
H1296  H     0.66617   0.66545   0.40239   0.00000  Uiso   1.00
H1297  H     0.73459   0.70942   0.41837   0.00000  Uiso   1.00
H1298  H     0.95464   0.60193   0.50004   0.00000  Uiso   1.00
H1299  H     0.80877   0.67380   0.40857   0.00000  Uiso   1.00
H1300  H     0.81477   0.59445   0.38296   0.00000  Uiso   1.00
H1301  H     0.68525   0.90552   0.61704   0.00000  Uiso   1.00
H1302  H     0.69128   0.82616   0.59148   0.00000  Uiso   1.00
H1303  H     0.76548   0.79056   0.58170   0.00000  Uiso   1.00
H1304  H     0.83388   0.83457   0.59765   0.00000  Uiso   1.00
H1305  H     0.82847   0.91423   0.62214   0.00000  Uiso   1.00
H1306  H     0.82845   0.91419   0.37787   0.00000  Uiso   1.00
H1307  H     0.83381   0.83456   0.40247   0.00000  Uiso   1.00
H1308  H     0.76539   0.79061   0.41851   0.00000  Uiso   1.00
H1309  H     0.54541   0.60213   0.50004   0.00000  Uiso   1.00
H1310  H     0.69121   0.82623   0.40869   0.00000  Uiso   1.00
H1311  H     0.68522   0.90557   0.38300   0.00000  Uiso   1.00
H1312  H     0.81475   0.59446   0.61701   0.00000  Uiso   1.00
H1313  H     0.80874   0.67381   0.59137   0.00000  Uiso   1.00
H1314  H     0.73455   0.70941   0.58156   0.00000  Uiso   1.00
H1315  H     0.66614   0.66542   0.59757   0.00000  Uiso   1.00
H1316  H     0.67153   0.58578   0.62213   0.00000  Uiso   1.00
H1317  H     0.95459   0.89787   0.49991   0.00000  Uiso   1.00
H1318  H     0.85373   0.79360   0.50009   0.00000  Uiso   1.00
H1319  H     0.64627   0.70640   0.49996   0.00000  Uiso   1.00
H1320  H     0.60367   0.95645   0.49980   0.00000  Uiso   1.00
N1321  N     0.50000   0.75000   0.61907   0.00000  Uiso   1.00
N1322  N     0.50000   0.75000   0.38093   0.00000  Uiso   1.00
N1323  N     0.75000   0.50000   0.61907   0.00000  Uiso   1.00
N1324  N     0.75000   0.50000   0.38093   0.00000  Uiso   1.00
O1325  O     0.54581   0.70419   0.53821   0.00000  Uiso   1.00
O1326  O     0.70420   0.54581   0.46179   0.00000  Uiso   1.00
O1327  O     0.70420   0.54581   0.53821   0.00000  Uiso   1.00
O1328  O     0.79581   0.95419   0.46179   0.00000  Uiso   1.00
O1329  O     0.70420   0.95419   0.46179   0.00000  Uiso   1.00
O1330  O     0.79581   0.54581   0.53821   0.00000  Uiso   1.00
O1331  O     0.79581   0.54581   0.46179   0.00000  Uiso   1.00
O1332  O     0.70420   0.95419   0.53821   0.00000  Uiso   1.00
O1333  O     0.95420   0.79581   0.46179   0.00000  Uiso   1.00
O1334  O     0.95420   0.79581   0.53821   0.00000  Uiso   1.00
O1335  O     0.54581   0.70419   0.46179   0.00000  Uiso   1.00
O1336  O     0.95420   0.70419   0.46179   0.00000  Uiso   1.00
O1337  O     0.54581   0.79581   0.53821   0.00000  Uiso   1.00
O1338  O     0.54581   0.79581   0.46179   0.00000  Uiso   1.00
O1339  O     0.95420   0.70419   0.53821   0.00000  Uiso   1.00
O1340  O     0.79581   0.95419   0.53821   0.00000  Uiso   1.00
Zn1341 Zn    0.50000   0.75000   0.55104   0.00000  Uiso   1.00
Zn1342 Zn    0.50000   0.75000   0.44896   0.00000  Uiso   1.00
Zn1343 Zn    0.75000   0.50000   0.55104   0.00000  Uiso   1.00
Zn1344 Zn    0.75000   0.50000   0.44896   0.00000  Uiso   1.00
C1345  C     0.05979   0.19022   0.83333   0.00000  Uiso   1.00
C1346  C     0.00306   0.21028   0.97611   0.00000  Uiso   1.00
C1347  C     0.00306   0.21028   0.69057   0.00000  Uiso   1.00
C1348  C     0.49694   0.28972   0.97610   0.00000  Uiso   1.00
C1349  C     0.24694   0.03972   0.69056   0.00000  Uiso   1.00
C1350  C     0.25306   0.46028   0.97611   0.00000  Uiso   1.00
C1351  C     0.25306   0.46028   0.69057   0.00000  Uiso   1.00
C1352  C     0.24694   0.03972   0.97610   0.00000  Uiso   1.00
C1353  C     0.36275   0.17088   0.83331   0.00000  Uiso   1.00
C1354  C     0.13725   0.32912   0.83345   0.00000  Uiso   1.00
C1355  C     0.08017   0.38825   0.83322   0.00000  Uiso   1.00
C1356  C     0.44021   0.30978   0.83333   0.00000  Uiso   1.00
C1357  C     0.41983   0.11175   0.83336   0.00000  Uiso   1.00
C1358  C     0.08021   0.11184   0.83336   0.00000  Uiso   1.00
C1359  C     0.41979   0.38816   0.83328   0.00000  Uiso   1.00
C1360  C     0.36279   0.32914   0.83338   0.00000  Uiso   1.00
C1361  C     0.13721   0.17086   0.83331   0.00000  Uiso   1.00
C1362  C     0.11275   0.42088   0.83322   0.00000  Uiso   1.00
C1363  C     0.38725   0.07912   0.83335   0.00000  Uiso   1.00
C1364  C     0.33017   0.13825   0.83331   0.00000  Uiso   1.00
C1365  C     0.16983   0.36175   0.83344   0.00000  Uiso   1.00
C1366  C     0.33021   0.36184   0.83338   0.00000  Uiso   1.00
C1367  C     0.44023   0.19018   0.83333   0.00000  Uiso   1.00
C1368  C     0.16979   0.13816   0.83331   0.00000  Uiso   1.00
C1369  C     0.11279   0.07914   0.83335   0.00000  Uiso   1.00
C1370  C     0.38721   0.42086   0.83328   0.00000  Uiso   1.00
C1371  C     0.09291   0.34290   0.83333   0.00000  Uiso   1.00
C1372  C     0.40709   0.15710   0.83334   0.00000  Uiso   1.00
C1373  C     0.40707   0.34286   0.83333   0.00000  Uiso   1.00
C1374  C     0.09293   0.15714   0.83333   0.00000  Uiso   1.00
C1375  C     0.34291   0.09290   0.83333   0.00000  Uiso   1.00
C1376  C     0.15709   0.40710   0.83333   0.00000  Uiso   1.00
C1377  C     0.15707   0.09286   0.83333   0.00000  Uiso   1.00
C1378  C     0.05977   0.30982   0.83333   0.00000  Uiso   1.00
C1379  C     0.34293   0.40714   0.83333   0.00000  Uiso   1.00
C1380  C     0.49353   0.33369   0.71391   0.00000  Uiso   1.00
C1381  C     0.45163   0.35432   0.71901   0.00000  Uiso   1.00
C1382  C     0.44848   0.39958   0.73236   0.00000  Uiso   1.00
C1383  C     0.48705   0.42445   0.74115   0.00000  Uiso   1.00
C1384  C     0.02885   0.40428   0.73589   0.00000  Uiso   1.00
C1385  C     0.03216   0.35916   0.72202   0.00000  Uiso   1.00
C1386  C     0.00645   0.16631   0.95275   0.00000  Uiso   1.00
C1387  C     0.46782   0.14086   0.94463   0.00000  Uiso   1.00
C1388  C     0.47111   0.09574   0.93074   0.00000  Uiso   1.00
C1389  C     0.30979   0.44022   0.83333   0.00000  Uiso   1.00
C1390  C     0.01290   0.07556   0.92547   0.00000  Uiso   1.00
C1391  C     0.05147   0.10041   0.93427   0.00000  Uiso   1.00
C1392  C     0.04834   0.14566   0.94765   0.00000  Uiso   1.00
C1393  C     0.00646   0.16631   0.71392   0.00000  Uiso   1.00
C1394  C     0.04836   0.14567   0.71903   0.00000  Uiso   1.00
C1395  C     0.05150   0.10043   0.73243   0.00000  Uiso   1.00
C1396  C     0.01293   0.07557   0.74125   0.00000  Uiso   1.00
C1397  C     0.47113   0.09575   0.73598   0.00000  Uiso   1.00
C1398  C     0.46783   0.14086   0.72206   0.00000  Uiso   1.00
C1399  C     0.49356   0.33369   0.95274   0.00000  Uiso   1.00
C1400  C     0.19021   0.05978   0.83333   0.00000  Uiso   1.00
C1401  C     0.03220   0.35912   0.94459   0.00000  Uiso   1.00
C1402  C     0.02891   0.40423   0.93065   0.00000  Uiso   1.00
C1403  C     0.48712   0.42441   0.92537   0.00000  Uiso   1.00
C1404  C     0.44854   0.39958   0.93420   0.00000  Uiso   1.00
C1405  C     0.45167   0.35434   0.94762   0.00000  Uiso   1.00
C1406  C     0.24355   0.08369   0.71391   0.00000  Uiso   1.00
C1407  C     0.20166   0.10434   0.71902   0.00000  Uiso   1.00
C1408  C     0.19853   0.14959   0.73239   0.00000  Uiso   1.00
C1409  C     0.23710   0.17444   0.74120   0.00000  Uiso   1.00
C1410  C     0.27889   0.15425   0.73593   0.00000  Uiso   1.00
C1411  C     0.19023   0.44018   0.83333   0.00000  Uiso   1.00
C1412  C     0.28219   0.10914   0.72203   0.00000  Uiso   1.00
C1413  C     0.25647   0.41631   0.95276   0.00000  Uiso   1.00
C1414  C     0.21784   0.39084   0.94465   0.00000  Uiso   1.00
C1415  C     0.22115   0.34572   0.93078   0.00000  Uiso   1.00
C1416  C     0.26295   0.32555   0.92552   0.00000  Uiso   1.00
C1417  C     0.30151   0.35042   0.93431   0.00000  Uiso   1.00
C1418  C     0.29837   0.39568   0.94766   0.00000  Uiso   1.00
C1419  C     0.25644   0.41631   0.71393   0.00000  Uiso   1.00
C1420  C     0.29833   0.39566   0.71904   0.00000  Uiso   1.00
C1421  C     0.30146   0.35042   0.73246   0.00000  Uiso   1.00
C1422  C     0.30977   0.05982   0.83333   0.00000  Uiso   1.00
C1423  C     0.26288   0.32559   0.74130   0.00000  Uiso   1.00
C1424  C     0.22109   0.34577   0.73602   0.00000  Uiso   1.00
C1425  C     0.21781   0.39087   0.72207   0.00000  Uiso   1.00
C1426  C     0.24354   0.08369   0.95274   0.00000  Uiso   1.00
C1427  C     0.28217   0.10914   0.94461   0.00000  Uiso   1.00
C1428  C     0.27887   0.15425   0.93069   0.00000  Uiso   1.00
C1429  C     0.23707   0.17443   0.92542   0.00000  Uiso   1.00
C1430  C     0.19850   0.14957   0.93424   0.00000  Uiso   1.00
C1431  C     0.20164   0.10433   0.94763   0.00000  Uiso   1.00
C1432  C     0.49694   0.28972   0.69056   0.00000  Uiso   1.00
H1433  H     0.35367   0.20645   0.83330   0.00000  Uiso   1.00
H1434  H     0.39633   0.04355   0.83337   0.00000  Uiso   1.00
H1435  H     0.29536   0.14807   0.83330   0.00000  Uiso   1.00
H1436  H     0.20464   0.35193   0.83352   0.00000  Uiso   1.00
H1437  H     0.29541   0.35213   0.83342   0.00000  Uiso   1.00
H1438  H     0.20459   0.14787   0.83330   0.00000  Uiso   1.00
H1439  H     0.10373   0.04360   0.83337   0.00000  Uiso   1.00
H1440  H     0.39627   0.45640   0.83324   0.00000  Uiso   1.00
H1441  H     0.42153   0.33577   0.71119   0.00000  Uiso   1.00
H1442  H     0.41612   0.41543   0.73568   0.00000  Uiso   1.00
H1443  H     0.48452   0.45944   0.75164   0.00000  Uiso   1.00
H1444  H     0.14633   0.29355   0.83353   0.00000  Uiso   1.00
H1445  H     0.05872   0.42384   0.74185   0.00000  Uiso   1.00
H1446  H     0.06475   0.34447   0.71629   0.00000  Uiso   1.00
H1447  H     0.43523   0.15555   0.95037   0.00000  Uiso   1.00
H1448  H     0.44123   0.07620   0.92476   0.00000  Uiso   1.00
H1449  H     0.01541   0.04058   0.91496   0.00000  Uiso   1.00
H1450  H     0.08383   0.08455   0.93094   0.00000  Uiso   1.00
H1451  H     0.07846   0.16420   0.95547   0.00000  Uiso   1.00
H1452  H     0.07847   0.16422   0.71120   0.00000  Uiso   1.00
H1453  H     0.08386   0.08458   0.73576   0.00000  Uiso   1.00
H1454  H     0.01545   0.04059   0.75177   0.00000  Uiso   1.00
H1455  H     0.04536   0.39807   0.83315   0.00000  Uiso   1.00
H1456  H     0.44126   0.07619   0.74196   0.00000  Uiso   1.00
H1457  H     0.43525   0.15554   0.71633   0.00000  Uiso   1.00
H1458  H     0.06478   0.34443   0.95033   0.00000  Uiso   1.00
H1459  H     0.05879   0.42376   0.92464   0.00000  Uiso   1.00
H1460  H     0.48461   0.45939   0.91482   0.00000  Uiso   1.00
H1461  H     0.41619   0.41544   0.93086   0.00000  Uiso   1.00
H1462  H     0.42155   0.33581   0.95546   0.00000  Uiso   1.00
H1463  H     0.17155   0.08580   0.71120   0.00000  Uiso   1.00
H1464  H     0.16617   0.16545   0.73573   0.00000  Uiso   1.00
H1465  H     0.23459   0.20942   0.75171   0.00000  Uiso   1.00
H1466  H     0.45464   0.10193   0.83337   0.00000  Uiso   1.00
H1467  H     0.30877   0.17380   0.74190   0.00000  Uiso   1.00
H1468  H     0.31477   0.09445   0.71630   0.00000  Uiso   1.00
H1469  H     0.18525   0.40552   0.95037   0.00000  Uiso   1.00
H1470  H     0.19128   0.32616   0.92481   0.00000  Uiso   1.00
H1471  H     0.26548   0.29056   0.91503   0.00000  Uiso   1.00
H1472  H     0.33388   0.33457   0.93098   0.00000  Uiso   1.00
H1473  H     0.32847   0.41423   0.95547   0.00000  Uiso   1.00
H1474  H     0.32845   0.41419   0.71121   0.00000  Uiso   1.00
H1475  H     0.33381   0.33456   0.73580   0.00000  Uiso   1.00
H1476  H     0.26539   0.29061   0.75185   0.00000  Uiso   1.00
H1477  H     0.04541   0.10213   0.83337   0.00000  Uiso   1.00
H1478  H     0.19121   0.32623   0.74202   0.00000  Uiso   1.00
H1479  H     0.18522   0.40557   0.71634   0.00000  Uiso   1.00
H1480  H     0.31475   0.09446   0.95034   0.00000  Uiso   1.00
H1481  H     0.30874   0.17381   0.92470   0.00000  Uiso   1.00
H1482  H     0.23455   0.20941   0.91489   0.00000  Uiso   1.00
H1483  H     0.16614   0.16542   0.93091   0.00000  Uiso   1.00
H1484  H     0.17153   0.08578   0.95547   0.00000  Uiso   1.00
H1485  H     0.45459   0.39787   0.83325   0.00000  Uiso   1.00
H1486  H     0.35373   0.29360   0.83342   0.00000  Uiso   1.00
H1487  H     0.14627   0.20640   0.83330   0.00000  Uiso   1.00
H1488  H     0.10367   0.45645   0.83313   0.00000  Uiso   1.00
N1489  N     0.00000   0.25000   0.95240   0.00000  Uiso   1.00
N1490  N     0.00000   0.25000   0.71427   0.00000  Uiso   1.00
N1491  N     0.25000  -0.00000   0.95240   0.00000  Uiso   1.00
N1492  N     0.25000  -0.00000   0.71427   0.00000  Uiso   1.00
O1493  O     0.04581   0.20419   0.87154   0.00000  Uiso   1.00
O1494  O     0.20420   0.04581   0.79513   0.00000  Uiso   1.00
O1495  O     0.20420   0.04581   0.87154   0.00000  Uiso   1.00
O1496  O     0.29581   0.45419   0.79513   0.00000  Uiso   1.00
O1497  O     0.20420   0.45419   0.79513   0.00000  Uiso   1.00
O1498  O     0.29581   0.04581   0.87154   0.00000  Uiso   1.00
O1499  O     0.29581   0.04581   0.79513   0.00000  Uiso   1.00
O1500  O     0.20420   0.45419   0.87154   0.00000  Uiso   1.00
O1501  O     0.45420   0.29581   0.79513   0.00000  Uiso   1.00
O1502  O     0.45420   0.29581   0.87154   0.00000  Uiso   1.00
O1503  O     0.04581   0.20419   0.79513   0.00000  Uiso   1.00
O1504  O     0.45420   0.20419   0.79513   0.00000  Uiso   1.00
O1505  O     0.04581   0.29581   0.87154   0.00000  Uiso   1.00
O1506  O     0.04581   0.29581   0.79513   0.00000  Uiso   1.00
O1507  O     0.45420   0.20419   0.87154   0.00000  Uiso   1.00
O1508  O     0.29581   0.45419   0.87154   0.00000  Uiso   1.00
Zn1509 Zn    0.00000   0.25000   0.88437   0.00000  Uiso   1.00
Zn1510 Zn    0.00000   0.25000   0.78229   0.00000  Uiso   1.00
Zn1511 Zn    0.25000  -0.00000   0.88437   0.00000  Uiso   1.00
Zn1512 Zn    0.25000  -0.00000   0.78229   0.00000  Uiso   1.00
C1513  C     0.55979   0.19022   0.83333   0.00000  Uiso   1.00
C1514  C     0.50306   0.21028   0.97611   0.00000  Uiso   1.00
C1515  C     0.50306   0.21028   0.69057   0.00000  Uiso   1.00
C1516  C     0.99694   0.28972   0.97610   0.00000  Uiso   1.00
C1517  C     0.74694   0.03972   0.69056   0.00000  Uiso   1.00
C1518  C     0.75306   0.46028   0.97611   0.00000  Uiso   1.00
C1519  C     0.75306   0.46028   0.69057   0.00000  Uiso   1.00
C1520  C     0.74694   0.03972   0.97610   0.00000  Uiso   1.00
C1521  C     0.86275   0.17088   0.83331   0.00000  Uiso   1.00
C1522  C     0.63725   0.32912   0.83345   0.00000  Uiso   1.00
C1523  C     0.58017   0.38825   0.83322   0.00000  Uiso   1.00
C1524  C     0.94021   0.30978   0.83333   0.00000  Uiso   1.00
C1525  C     0.91983   0.11175   0.83336   0.00000  Uiso   1.00
C1526  C     0.58021   0.11184   0.83336   0.00000  Uiso   1.00
C1527  C     0.91979   0.38816   0.83328   0.00000  Uiso   1.00
C1528  C     0.86279   0.32914   0.83338   0.00000  Uiso   1.00
C1529  C     0.63721   0.17086   0.83331   0.00000  Uiso   1.00
C1530  C     0.61275   0.42088   0.83322   0.00000  Uiso   1.00
C1531  C     0.88725   0.07912   0.83335   0.00000  Uiso   1.00
C1532  C     0.83017   0.13825   0.83331   0.00000  Uiso   1.00
C1533  C     0.66983   0.36175   0.83344   0.00000  Uiso   1.00
C1534  C     0.83021   0.36184   0.83338   0.00000  Uiso   1.00
C1535  C     0.94023   0.19018   0.83333   0.00000  Uiso   1.00
C1536  C     0.66979   0.13816   0.83331   0.00000  Uiso   1.00
C1537  C     0.61279   0.07914   0.83335   0.00000  Uiso   1.00
C1538  C     0.88721   0.42086   0.83328   0.00000  Uiso   1.00
C1539  C     0.59291   0.34290   0.83333   0.00000  Uiso   1.00
C1540  C     0.90709   0.15710   0.83334   0.00000  Uiso   1.00
C1541  C     0.90707   0.34286   0.83333   0.00000  Uiso   1.00
C1542  C     0.59293   0.15714   0.83333   0.00000  Uiso   1.00
C1543  C     0.84291   0.09290   0.83333   0.00000  Uiso   1.00
C1544  C     0.65709   0.40710   0.83333   0.00000  Uiso   1.00
C1545  C     0.65707   0.09286   0.83333   0.00000  Uiso   1.00
C1546  C     0.55977   0.30982   0.83333   0.00000  Uiso   1.00
C1547  C     0.84293   0.40714   0.83333   0.00000  Uiso   1.00
C1548  C     0.99353   0.33369   0.71391   0.00000  Uiso   1.00
C1549  C     0.95163   0.35432   0.71901   0.00000  Uiso   1.00
C1550  C     0.94848   0.39958   0.73236   0.00000  Uiso   1.00
C1551  C     0.98705   0.42445   0.74115   0.00000  Uiso   1.00
C1552  C     0.52885   0.40428   0.73589   0.00000  Uiso   1.00
C1553  C     0.53216   0.35916   0.72202   0.00000  Uiso   1.00
C1554  C     0.50645   0.16631   0.95275   0.00000  Uiso   1.00
C1555  C     0.96782   0.14086   0.94463   0.00000  Uiso   1.00
C1556  C     0.97111   0.09574   0.93074   0.00000  Uiso   1.00
C1557  C     0.80979   0.44022   0.83333   0.00000  Uiso   1.00
C1558  C     0.51290   0.07556   0.92547   0.00000  Uiso   1.00
C1559  C     0.55147   0.10041   0.93427   0.00000  Uiso   1.00
C1560  C     0.54834   0.14566   0.94765   0.00000  Uiso   1.00
C1561  C     0.50646   0.16631   0.71392   0.00000  Uiso   1.00
C1562  C     0.54836   0.14567   0.71903   0.00000  Uiso   1.00
C1563  C     0.55150   0.10043   0.73243   0.00000  Uiso   1.00
C1564  C     0.51293   0.07557   0.74125   0.00000  Uiso   1.00
C1565  C     0.97113   0.09575   0.73598   0.00000  Uiso   1.00
C1566  C     0.96783   0.14086   0.72206   0.00000  Uiso   1.00
C1567  C     0.99356   0.33369   0.95274   0.00000  Uiso   1.00
C1568  C     0.69021   0.05978   0.83333   0.00000  Uiso   1.00
C1569  C     0.53220   0.35912   0.94459   0.00000  Uiso   1.00
C1570  C     0.52891   0.40423   0.93065   0.00000  Uiso   1.00
C1571  C     0.98712   0.42441   0.92537   0.00000  Uiso   1.00
C1572  C     0.94854   0.39958   0.93420   0.00000  Uiso   1.00
C1573  C     0.95167   0.35434   0.94762   0.00000  Uiso   1.00
C1574  C     0.74355   0.08369   0.71391   0.00000  Uiso   1.00
C1575  C     0.70166   0.10434   0.71902   0.00000  Uiso   1.00
C1576  C     0.69853   0.14959   0.73239   0.00000  Uiso   1.00
C1577  C     0.73710   0.17444   0.74120   0.00000  Uiso   1.00
C1578  C     0.77889   0.15425   0.73593   0.00000  Uiso   1.00
C1579  C     0.69023   0.44018   0.83333   0.00000  Uiso   1.00
C1580  C     0.78219   0.10914   0.72203   0.00000  Uiso   1.00
C1581  C     0.75647   0.41631   0.95276   0.00000  Uiso   1.00
C1582  C     0.71784   0.39084   0.94465   0.00000  Uiso   1.00
C1583  C     0.72115   0.34572   0.93078   0.00000  Uiso   1.00
C1584  C     0.76295   0.32555   0.92552   0.00000  Uiso   1.00
C1585  C     0.80151   0.35042   0.93431   0.00000  Uiso   1.00
C1586  C     0.79837   0.39568   0.94766   0.00000  Uiso   1.00
C1587  C     0.75644   0.41631   0.71393   0.00000  Uiso   1.00
C1588  C     0.79833   0.39566   0.71904   0.00000  Uiso   1.00
C1589  C     0.80146   0.35042   0.73246   0.00000  Uiso   1.00
C1590  C     0.80977   0.05982   0.83333   0.00000  Uiso   1.00
C1591  C     0.76288   0.32559   0.74130   0.00000  Uiso   1.00
C1592  C     0.72109   0.34577   0.73602   0.00000  Uiso   1.00
C1593  C     0.71781   0.39087   0.72207   0.00000  Uiso   1.00
C1594  C     0.74354   0.08369   0.95274   0.00000  Uiso   1.00
C1595  C     0.78217   0.10914   0.94461   0.00000  Uiso   1.00
C1596  C     0.77887   0.15425   0.93069   0.00000  Uiso   1.00
C1597  C     0.73707   0.17443   0.92542   0.00000  Uiso   1.00
C1598  C     0.69850   0.14957   0.93424   0.00000  Uiso   1.00
C1599  C     0.70164   0.10433   0.94763   0.00000  Uiso   1.00
C1600  C     0.99694   0.28972   0.69056   0.00000  Uiso   1.00
H1601  H     0.85367   0.20645   0.83330   0.00000  Uiso   1.00
H1602  H     0.89633   0.04355   0.83337   0.00000  Uiso   1.00
H1603  H     0.79536   0.14807   0.83330   0.00000  Uiso   1.00
H1604  H     0.70464   0.35193   0.83352   0.00000  Uiso   1.00
H1605  H     0.79541   0.35213   0.83342   0.00000  Uiso   1.00
H1606  H     0.70459   0.14787   0.83330   0.00000  Uiso   1.00
H1607  H     0.60373   0.04360   0.83337   0.00000  Uiso   1.00
H1608  H     0.89627   0.45640   0.83324   0.00000  Uiso   1.00
H1609  H     0.92153   0.33577   0.71119   0.00000  Uiso   1.00
H1610  H     0.91612   0.41543   0.73568   0.00000  Uiso   1.00
H1611  H     0.98452   0.45944   0.75164   0.00000  Uiso   1.00
H1612  H     0.64633   0.29355   0.83353   0.00000  Uiso   1.00
H1613  H     0.55872   0.42384   0.74185   0.00000  Uiso   1.00
H1614  H     0.56475   0.34447   0.71629   0.00000  Uiso   1.00
H1615  H     0.93523   0.15555   0.95037   0.00000  Uiso   1.00
H1616  H     0.94123   0.07620   0.92476   0.00000  Uiso   1.00
H1617  H     0.51541   0.04058   0.91496   0.00000  Uiso   1.00
H1618  H     0.58383   0.08455   0.93094   0.00000  Uiso   1.00
H1619  H     0.57846   0.16420   0.95547   0.00000  Uiso   1.00
H1620  H     0.57847   0.16422   0.71120   0.00000  Uiso   1.00
H1621  H     0.58386   0.08458   0.73576   0.00000  Uiso   1.00
H1622  H     0.51545   0.04059   0.75177   0.00000  Uiso   1.00
H1623  H     0.54536   0.39807   0.83315   0.00000  Uiso   1.00
H1624  H     0.94126   0.07619   0.74196   0.00000  Uiso   1.00
H1625  H     0.93525   0.15554   0.71633   0.00000  Uiso   1.00
H1626  H     0.56478   0.34443   0.95033   0.00000  Uiso   1.00
H1627  H     0.55879   0.42376   0.92464   0.00000  Uiso   1.00
H1628  H     0.98461   0.45939   0.91482   0.00000  Uiso   1.00
H1629  H     0.91619   0.41544   0.93086   0.00000  Uiso   1.00
H1630  H     0.92155   0.33581   0.95546   0.00000  Uiso   1.00
H1631  H     0.67155   0.08580   0.71120   0.00000  Uiso   1.00
H1632  H     0.66617   0.16545   0.73573   0.00000  Uiso   1.00
H1633  H     0.73459   0.20942   0.75171   0.00000  Uiso   1.00
H1634  H     0.95464   0.10193   0.83337   0.00000  Uiso   1.00
H1635  H     0.80877   0.17380   0.74190   0.00000  Uiso   1.00
H1636  H     0.81477   0.09445   0.71630   0.00000  Uiso   1.00
H1637  H     0.68525   0.40552   0.95037   0.00000  Uiso   1.00
H1638  H     0.69128   0.32616   0.92481   0.00000  Uiso   1.00
H1639  H     0.76548   0.29056   0.91503   0.00000  Uiso   1.00
H1640  H     0.83388   0.33457   0.93098   0.00000  Uiso   1.00
H1641  H     0.82847   0.41423   0.95547   0.00000  Uiso   1.00
H1642  H     0.82845   0.41419   0.71121   0.00000  Uiso   1.00
H1643  H     0.83381   0.33456   0.73580   0.00000  Uiso   1.00
H1644  H     0.76539   0.29061   0.75185   0.00000  Uiso   1.00
H1645  H     0.54541   0.10213   0.83337   0.00000  Uiso   1.00
H1646  H     0.69121   0.32623   0.74202   0.00000  Uiso   1.00
H1647  H     0.68522   0.40557   0.71634   0.00000  Uiso   1.00
H1648  H     0.81475   0.09446   0.95034   0.00000  Uiso   1.00
H1649  H     0.80874   0.17381   0.92470   0.00000  Uiso   1.00
H1650  H     0.73455   0.20941   0.91489   0.00000  Uiso   1.00
H1651  H     0.66614   0.16542   0.93091   0.00000  Uiso   1.00
H1652  H     0.67153   0.08578   0.95547   0.00000  Uiso   1.00
H1653  H     0.95459   0.39787   0.83325   0.00000  Uiso   1.00
H1654  H     0.85373   0.29360   0.83342   0.00000  Uiso   1.00
H1655  H     0.64627   0.20640   0.83330   0.00000  Uiso   1.00
H1656  H     0.60367   0.45645   0.83313   0.00000  Uiso   1.00
N1657  N     0.50000   0.25000   0.95240   0.00000  Uiso   1.00
N1658  N     0.50000   0.25000   0.71427   0.00000  Uiso   1.00
N1659  N     0.75000  -0.00000   0.95240   0.00000  Uiso   1.00
N1660  N     0.75000  -0.00000   0.71427   0.00000  Uiso   1.00
O1661  O     0.54581   0.20419   0.87154   0.00000  Uiso   1.00
O1662  O     0.70420   0.04581   0.79513   0.00000  Uiso   1.00
O1663  O     0.70420   0.04581   0.87154   0.00000  Uiso   1.00
O1664  O     0.79581   0.45419   0.79513   0.00000  Uiso   1.00
O1665  O     0.70420   0.45419   0.79513   0.00000  Uiso   1.00
O1666  O     0.79581   0.04581   0.87154   0.00000  Uiso   1.00
O1667  O     0.79581   0.04581   0.79513   0.00000  Uiso   1.00
O1668  O     0.70420   0.45419   0.87154   0.00000  Uiso   1.00
O1669  O     0.95420   0.29581   0.79513   0.00000  Uiso   1.00
O1670  O     0.95420   0.29581   0.87154   0.00000  Uiso   1.00
O1671  O     0.54581   0.20419   0.79513   0.00000  Uiso   1.00
O1672  O     0.95420   0.20419   0.79513   0.00000  Uiso   1.00
O1673  O     0.54581   0.29581   0.87154   0.00000  Uiso   1.00
O1674  O     0.54581   0.29581   0.79513   0.00000  Uiso   1.00
O1675  O     0.95420   0.20419   0.87154   0.00000  Uiso   1.00
O1676  O     0.79581   0.45419   0.87154   0.00000  Uiso   1.00
Zn1677 Zn    0.50000   0.25000   0.88437   0.00000  Uiso   1.00
Zn1678 Zn    0.50000   0.25000   0.78229   0.00000  Uiso   1.00
Zn1679 Zn    0.75000  -0.00000   0.88437   0.00000  Uiso   1.00
Zn1680 Zn    0.75000  -0.00000   0.78229   0.00000  Uiso   1.00
C1681  C     0.05979   0.69022   0.83333   0.00000  Uiso   1.00
C1682  C     0.00306   0.71028   0.97611   0.00000  Uiso   1.00
C1683  C     0.00306   0.71028   0.69057   0.00000  Uiso   1.00
C1684  C     0.49694   0.78972   0.97610   0.00000  Uiso   1.00
C1685  C     0.24694   0.53972   0.69056   0.00000  Uiso   1.00
C1686  C     0.25306   0.96028   0.97611   0.00000  Uiso   1.00
C1687  C     0.25306   0.96028   0.69057   0.00000  Uiso   1.00
C1688  C     0.24694   0.53972   0.97610   0.00000  Uiso   1.00
C1689  C     0.36275   0.67088   0.83331   0.00000  Uiso   1.00
C1690  C     0.13725   0.82912   0.83345   0.00000  Uiso   1.00
C1691  C     0.08017   0.88825   0.83322   0.00000  Uiso   1.00
C1692  C     0.44021   0.80978   0.83333   0.00000  Uiso   1.00
C1693  C     0.41983   0.61175   0.83336   0.00000  Uiso   1.00
C1694  C     0.08021   0.61184   0.83336   0.00000  Uiso   1.00
C1695  C     0.41979   0.88816   0.83328   0.00000  Uiso   1.00
C1696  C     0.36279   0.82914   0.83338   0.00000  Uiso   1.00
C1697  C     0.13721   0.67086   0.83331   0.00000  Uiso   1.00
C1698  C     0.11275   0.92088   0.83322   0.00000  Uiso   1.00
C1699  C     0.38725   0.57912   0.83335   0.00000  Uiso   1.00
C1700  C     0.33017   0.63825   0.83331   0.00000  Uiso   1.00
C1701  C     0.16983   0.86175   0.83344   0.00000  Uiso   1.00
C1702  C     0.33021   0.86184   0.83338   0.00000  Uiso   1.00
C1703  C     0.44023   0.69018   0.83333   0.00000  Uiso   1.00
C1704  C     0.16979   0.63816   0.83331   0.00000  Uiso   1.00
C1705  C     0.11279   0.57914   0.83335   0.00000  Uiso   1.00
C1706  C     0.38721   0.92086   0.83328   0.00000  Uiso   1.00
C1707  C     0.09291   0.84290   0.83333   0.00000  Uiso   1.00
C1708  C     0.40709   0.65710   0.83334   0.00000  Uiso   1.00
C1709  C     0.40707   0.84286   0.83333   0.00000  Uiso   1.00
C1710  C     0.09293   0.65714   0.83333   0.00000  Uiso   1.00
C1711  C     0.34291   0.59290   0.83333   0.00000  Uiso   1.00
C1712  C     0.15709   0.90710   0.83333   0.00000  Uiso   1.00
C1713  C     0.15707   0.59286   0.83333   0.00000  Uiso   1.00
C1714  C     0.05977   0.80982   0.83333   0.00000  Uiso   1.00
C1715  C     0.34293   0.90714   0.83333   0.00000  Uiso   1.00
C1716  C     0.49353   0.83369   0.71391   0.00000  Uiso   1.00
C1717  C     0.45163   0.85432   0.71901   0.00000  Uiso   1.00
C1718  C     0.44848   0.89958   0.73236   0.00000  Uiso   1.00
C1719  C     0.48705   0.92445   0.74115   0.00000  Uiso   1.00
C1720  C     0.02885   0.90428   0.73589   0.00000  Uiso   1.00
C1721  C     0.03216   0.85916   0.72202   0.00000  Uiso   1.00
C1722  C     0.00645   0.66631   0.95275   0.00000  Uiso   1.00
C1723  C     0.46782   0.64086   0.94463   0.00000  Uiso   1.00
C1724  C     0.47111   0.59574   0.93074   0.00000  Uiso   1.00
C1725  C     0.30979   0.94022   0.83333   0.00000  Uiso   1.00
C1726  C     0.01290   0.57556   0.92547   0.00000  Uiso   1.00
C1727  C     0.05147   0.60041   0.93427   0.00000  Uiso   1.00
C1728  C     0.04834   0.64566   0.94765   0.00000  Uiso   1.00
C1729  C     0.00646   0.66631   0.71392   0.00000  Uiso   1.00
C1730  C     0.04836   0.64567   0.71903   0.00000  Uiso   1.00
C1731  C     0.05150   0.60043   0.73243   0.00000  Uiso   1.00
C1732  C     0.01293   0.57557   0.74125   0.00000  Uiso   1.00
C1733  C     0.47113   0.59575   0.73598   0.00000  Uiso   1.00
C1734  C     0.46783   0.64086   0.72206   0.00000  Uiso   1.00
C1735  C     0.49356   0.83369   0.95274   0.00000  Uiso   1.00
C1736  C     0.19021   0.55978   0.83333   0.00000  Uiso   1.00
C1737  C     0.03220   0.85912   0.94459   0.00000  Uiso   1.00
C1738  C     0.02891   0.90423   0.93065   0.00000  Uiso   1.00
C1739  C     0.48712   0.92441   0.92537   0.00000  Uiso   1.00
C1740  C     0.44854   0.89958   0.93420   0.00000  Uiso   1.00
C1741  C     0.45167   0.85434   0.94762   0.00000  Uiso   1.00
C1742  C     0.24355   0.58369   0.71391   0.00000  Uiso   1.00
C1743  C     0.20166   0.60434   0.71902   0.00000  Uiso   1.00
C1744  C     0.19853   0.64959   0.73239   0.00000  Uiso   1.00
C1745  C     0.23710   0.67444   0.74120   0.00000  Uiso   1.00
C1746  C     0.27889   0.65425   0.73593   0.00000  Uiso   1.00
C1747  C     0.19023   0.94018   0.83333   0.00000  Uiso   1.00
C1748  C     0.28219   0.60914   0.72203   0.00000  Uiso   1.00
C1749  C     0.25647   0.91631   0.95276   0.00000  Uiso   1.00
C1750  C     0.21784   0.89084   0.94465   0.00000  Uiso   1.00
C1751  C     0.22115   0.84572   0.93078   0.00000  Uiso   1.00
C1752  C     0.26295   0.82555   0.92552   0.00000  Uiso   1.00
C1753  C     0.30151   0.85042   0.93431   0.00000  Uiso   1.00
C1754  C     0.29837   0.89568   0.94766   0.00000  Uiso   1.00
C1755  C     0.25644   0.91631   0.71393   0.00000  Uiso   1.00
C1756  C     0.29833   0.89566   0.71904   0.00000  Uiso   1.00
C1757  C     0.30146   0.85042   0.73246   0.00000  Uiso   1.00
C1758  C     0.30977   0.55982   0.83333   0.00000  Uiso   1.00
C1759  C     0.26288   0.82559   0.74130   0.00000  Uiso   1.00
C1760  C     0.22109   0.84577   0.73602   0.00000  Uiso   1.00
C1761  C     0.21781   0.89087   0.72207   0.00000  Uiso   1.00
C1762  C     0.24354   0.58369   0.95274   0.00000  Uiso   1.00
C1763  C     0.28217   0.60914   0.94461   0.00000  Uiso   1.00
C1764  C     0.27887   0.65425   0.93069   0.00000  Uiso   1.00
C1765  C     0.23707   0.67443   0.92542   0.00000  Uiso   1.00
C1766  C     0.19850   0.64957   0.93424   0.00000  Uiso   1.00
C1767  C     0.20164   0.60433   0.94763   0.00000  Uiso   1.00
C1768  C     0.49694   0.78972   0.69056   0.00000  Uiso   1.00
H1769  H     0.35367   0.70645   0.83330   0.00000  Uiso   1.00
H1770  H     0.39633   0.54355   0.83337   0.00000  Uiso   1.00
H1771  H     0.29536   0.64807   0.83330   0.00000  Uiso   1.00
H1772  H     0.20464   0.85193   0.83352   0.00000  Uiso   1.00
H1773  H     0.29541   0.85213   0.83342   0.00000  Uiso   1.00
H1774  H     0.20459   0.64787   0.83330   0.00000  Uiso   1.00
H1775  H     0.10373   0.54360   0.83337   0.00000  Uiso   1.00
H1776  H     0.39627   0.95640   0.83324   0.00000  Uiso   1.00
H1777  H     0.42153   0.83577   0.71119   0.00000  Uiso   1.00
H1778  H     0.41612   0.91543   0.73568   0.00000  Uiso   1.00
H1779  H     0.48452   0.95944   0.75164   0.00000  Uiso   1.00
H1780  H     0.14633   0.79355   0.83353   0.00000  Uiso   1.00
H1781  H     0.05872   0.92384   0.74185   0.00000  Uiso   1.00
H1782  H     0.06475   0.84447   0.71629   0.00000  Uiso   1.00
H1783  H     0.43523   0.65555   0.95037   0.00000  Uiso   1.00
H1784  H     0.44123   0.57620   0.92476   0.00000  Uiso   1.00
H1785  H     0.01541   0.54058   0.91496   0.00000  Uiso   1.00
H1786  H     0.08383   0.58455   0.93094   0.00000  Uiso   1.00
H1787  H     0.07846   0.66420   0.95547   0.00000  Uiso   1.00
H1788  H     0.07847   0.66422   0.71120   0.00000  Uiso   1.00
H1789  H     0.08386   0.58458   0.73576   0.00000  Uiso   1.00
H1790  H     0.01545   0.54059   0.75177   0.00000  Uiso   1.00
H1791  H     0.04536   0.89807   0.83315   0.00000  Uiso   1.00
H1792  H     0.44126   0.57619   0.74196   0.00000  Uiso   1.00
H1793  H     0.43525   0.65554   0.71633   0.00000  Uiso   1.00
H1794  H     0.06478   0.84443   0.95033   0.00000  Uiso   1.00
H1795  H     0.05879   0.92376   0.92464   0.00000  Uiso   1.00
H1796  H     0.48461   0.95939   0.91482   0.00000  Uiso   1.00
H1797  H     0.41619   0.91544   0.93086   0.00000  Uiso   1.00
H1798  H     0.42155   0.83581   0.95546   0.00000  Uiso   1.00
H1799  H     0.17155   0.58580   0.71120   0.00000  Uiso   1.00
H1800  H     0.16617   0.66545   0.73573   0.00000  Uiso   1.00
H1801  H     0.23459   0.70942   0.75171   0.00000  Uiso   1.00
H1802  H     0.45464   0.60193   0.83337   0.00000  Uiso   1.00
H1803  H     0.30877   0.67380   0.74190   0.00000  Uiso   1.00
H1804  H     0.31477   0.59445   0.71630   0.00000  Uiso   1.00
H1805  H     0.18525   0.90552   0.95037   0.00000  Uiso   1.00
H1806  H     0.19128   0.82616   0.92481   0.00000  Uiso   1.00
H1807  H     0.26548   0.79056   0.91503   0.00000  Uiso   1.00
H1808  H     0.33388   0.83457   0.93098   0.00000  Uiso   1.00
H1809  H     0.32847   0.91423   0.95547   0.00000  Uiso   1.00
H1810  H     0.32845   0.91419   0.71121   0.00000  Uiso   1.00
H1811  H     0.33381   0.83456   0.73580   0.00000  Uiso   1.00
H1812  H     0.26539   0.79061   0.75185   0.00000  Uiso   1.00
H1813  H     0.04541   0.60213   0.83337   0.00000  Uiso   1.00
H1814  H     0.19121   0.82623   0.74202   0.00000  Uiso   1.00
H1815  H     0.18522   0.90557   0.71634   0.00000  Uiso   1.00
H1816  H     0.31475   0.59446   0.95034   0.00000  Uiso   1.00
H1817  H     0.30874   0.67381   0.92470   0.00000  Uiso   1.00
H1818  H     0.23455   0.70941   0.91489   0.00000  Uiso   1.00
H1819  H     0.16614   0.66542   0.93091   0.00000  Uiso   1.00
H1820  H     0.17153   0.58578   0.95547   0.00000  Uiso   1.00
H1821  H     0.45459   0.89787   0.83325   0.00000  Uiso   1.00
H1822  H     0.35373   0.79360   0.83342   0.00000  Uiso   1.00
H1823  H     0.14627   0.70640   0.83330   0.00000  Uiso   1.00
H1824  H     0.10367   0.95645   0.83313   0.00000  Uiso   1.00
N1825  N     0.00000   0.75000   0.95240   0.00000  Uiso   1.00
N1826  N     0.00000   0.75000   0.71427   0.00000  Uiso   1.00
N1827  N     0.25000   0.50000   0.95240   0.00000  Uiso   1.00
N1828  N     0.25000   0.50000   0.71427   0.00000  Uiso   1.00
O1829  O     0.04581   0.70419   0.87154   0.00000  Uiso   1.00
O1830  O     0.20420   0.54581   0.79513   0.00000  Uiso   1.00
O1831  O     0.20420   0.54581   0.87154   0.00000  Uiso   1.00
O1832  O     0.29581   0.95419   0.79513   0.00000  Uiso   1.00
O1833  O     0.20420   0.95419   0.79513   0.00000  Uiso   1.00
O1834  O     0.29581   0.54581   0.87154   0.00000  Uiso   1.00
O1835  O     0.29581   0.54581   0.79513   0.00000  Uiso   1.00
O1836  O     0.20420   0.95419   0.87154   0.00000  Uiso   1.00
O1837  O     0.45420   0.79581   0.79513   0.00000  Uiso   1.00
O1838  O     0.45420   0.79581   0.87154   0.00000  Uiso   1.00
O1839  O     0.04581   0.70419   0.79513   0.00000  Uiso   1.00
O1840  O     0.45420   0.70419   0.79513   0.00000  Uiso   1.00
O1841  O     0.04581   0.79581   0.87154   0.00000  Uiso   1.00
O1842  O     0.04581   0.79581   0.79513   0.00000  Uiso   1.00
O1843  O     0.45420   0.70419   0.87154   0.00000  Uiso   1.00
O1844  O     0.29581   0.95419   0.87154   0.00000  Uiso   1.00
Zn1845 Zn    0.00000   0.75000   0.88437   0.00000  Uiso   1.00
Zn1846 Zn    0.00000   0.75000   0.78229   0.00000  Uiso   1.00
Zn1847 Zn    0.25000   0.50000   0.88437   0.00000  Uiso   1.00
Zn1848 Zn    0.25000   0.50000   0.78229   0.00000  Uiso   1.00
C1849  C     0.55979   0.69022   0.83333   0.00000  Uiso   1.00
C1850  C     0.50306   0.71028   0.97611   0.00000  Uiso   1.00
C1851  C     0.50306   0.71028   0.69057   0.00000  Uiso   1.00
C1852  C     0.99694   0.78972   0.97610   0.00000  Uiso   1.00
C1853  C     0.74694   0.53972   0.69056   0.00000  Uiso   1.00
C1854  C     0.75306   0.96028   0.97611   0.00000  Uiso   1.00
C1855  C     0.75306   0.96028   0.69057   0.00000  Uiso   1.00
C1856  C     0.74694   0.53972   0.97610   0.00000  Uiso   1.00
C1857  C     0.86275   0.67088   0.83331   0.00000  Uiso   1.00
C1858  C     0.63725   0.82912   0.83345   0.00000  Uiso   1.00
C1859  C     0.58017   0.88825   0.83322   0.00000  Uiso   1.00
C1860  C     0.94021   0.80978   0.83333   0.00000  Uiso   1.00
C1861  C     0.91983   0.61175   0.83336   0.00000  Uiso   1.00
C1862  C     0.58021   0.61184   0.83336   0.00000  Uiso   1.00
C1863  C     0.91979   0.88816   0.83328   0.00000  Uiso   1.00
C1864  C     0.86279   0.82914   0.83338   0.00000  Uiso   1.00
C1865  C     0.63721   0.67086   0.83331   0.00000  Uiso   1.00
C1866  C     0.61275   0.92088   0.83322   0.00000  Uiso   1.00
C1867  C     0.88725   0.57912   0.83335   0.00000  Uiso   1.00
C1868  C     0.83017   0.63825   0.83331   0.00000  Uiso   1.00
C1869  C     0.66983   0.86175   0.83344   0.00000  Uiso   1.00
C1870  C     0.83021   0.86184   0.83338   0.00000  Uiso   1.00
C1871  C     0.94023   0.69018   0.83333   0.00000  Uiso   1.00
C1872  C     0.66979   0.63816   0.83331   0.00000  Uiso   1.00
C1873  C     0.61279   0.57914   0.83335   0.00000  Uiso   1.00
C1874  C     0.88721   0.92086   0.83328   0.00000  Uiso   1.00
C1875  C     0.59291   0.84290   0.83333   0.00000  Uiso   1.00
C1876  C     0.90709   0.65710   0.83334   0.00000  Uiso   1.00
C1877  C     0.90707   0.84286   0.83333   0.00000  Uiso   1.00
C1878  C     0.59293   0.65714   0.83333   0.00000  Uiso   1.00
C1879  C     0.84291   0.59290   0.83333   0.00000  Uiso   1.00
C1880  C     0.65709   0.90710   0.83333   0.00000  Uiso   1.00
C1881  C     0.65707   0.59286   0.83333   0.00000  Uiso   1.00
C1882  C     0.55977   0.80982   0.83333   0.00000  Uiso   1.00
C1883  C     0.84293   0.90714   0.83333   0.00000  Uiso   1.00
C1884  C     0.99353   0.83369   0.71391   0.00000  Uiso   1.00
C1885  C     0.95163   0.85432   0.71901   0.00000  Uiso   1.00
C1886  C     0.94848   0.89958   0.73236   0.00000  Uiso   1.00
C1887  C     0.98705   0.92445   0.74115   0.00000  Uiso   1.00
C1888  C     0.52885   0.90428   0.73589   0.00000  Uiso   1.00
C1889  C     0.53216   0.85916   0.72202   0.00000  Uiso   1.00
C1890  C     0.50645   0.66631   0.95275   0.00000  Uiso   1.00
C1891  C     0.96782   0.64086   0.94463   0.00000  Uiso   1.00
C1892  C     0.97111   0.59574   0.93074   0.00000  Uiso   1.00
C1893  C     0.80979   0.94022   0.83333   0.00000  Uiso   1.00
C1894  C     0.51290   0.57556   0.92547   0.00000  Uiso   1.00
C1895  C     0.55147   0.60041   0.93427   0.00000  Uiso   1.00
C1896  C     0.54834   0.64566   0.94765   0.00000  Uiso   1.00
C1897  C     0.50646   0.66631   0.71392   0.00000  Uiso   1.00
C1898  C     0.54836   0.64567   0.71903   0.00000  Uiso   1.00
C1899  C     0.55150   0.60043   0.73243   0.00000  Uiso   1.00
C1900  C     0.51293   0.57557   0.74125   0.00000  Uiso   1.00
C1901  C     0.97113   0.59575   0.73598   0.00000  Uiso   1.00
C1902  C     0.96783   0.64086   0.72206   0.00000  Uiso   1.00
C1903  C     0.99356   0.83369   0.95274   0.00000  Uiso   1.00
C1904  C     0.69021   0.55978   0.83333   0.00000  Uiso   1.00
C1905  C     0.53220   0.85912   0.94459   0.00000  Uiso   1.00
C1906  C     0.52891   0.90423   0.93065   0.00000  Uiso   1.00
C1907  C     0.98712   0.92441   0.92537   0.00000  Uiso   1.00
C1908  C     0.94854   0.89958   0.93420   0.00000  Uiso   1.00
C1909  C     0.95167   0.85434   0.94762   0.00000  Uiso   1.00
C1910  C     0.74355   0.58369   0.71391   0.00000  Uiso   1.00
C1911  C     0.70166   0.60434   0.71902   0.00000  Uiso   1.00
C1912  C     0.69853   0.64959   0.73239   0.00000  Uiso   1.00
C1913  C     0.73710   0.67444   0.74120   0.00000  Uiso   1.00
C1914  C     0.77889   0.65425   0.73593   0.00000  Uiso   1.00
C1915  C     0.69023   0.94018   0.83333   0.00000  Uiso   1.00
C1916  C     0.78219   0.60914   0.72203   0.00000  Uiso   1.00
C1917  C     0.75647   0.91631   0.95276   0.00000  Uiso   1.00
C1918  C     0.71784   0.89084   0.94465   0.00000  Uiso   1.00
C1919  C     0.72115   0.84572   0.93078   0.00000  Uiso   1.00
C1920  C     0.76295   0.82555   0.92552   0.00000  Uiso   1.00
C1921  C     0.80151   0.85042   0.93431   0.00000  Uiso   1.00
C1922  C     0.79837   0.89568   0.94766   0.00000  Uiso   1.00
C1923  C     0.75644   0.91631   0.71393   0.00000  Uiso   1.00
C1924  C     0.79833   0.89566   0.71904   0.00000  Uiso   1.00
C1925  C     0.80146   0.85042   0.73246   0.00000  Uiso   1.00
C1926  C     0.80977   0.55982   0.83333   0.00000  Uiso   1.00
C1927  C     0.76288   0.82559   0.74130   0.00000  Uiso   1.00
C1928  C     0.72109   0.84577   0.73602   0.00000  Uiso   1.00
C1929  C     0.71781   0.89087   0.72207   0.00000  Uiso   1.00
C1930  C     0.74354   0.58369   0.95274   0.00000  Uiso   1.00
C1931  C     0.78217   0.60914   0.94461   0.00000  Uiso   1.00
C1932  C     0.77887   0.65425   0.93069   0.00000  Uiso   1.00
C1933  C     0.73707   0.67443   0.92542   0.00000  Uiso   1.00
C1934  C     0.69850   0.64957   0.93424   0.00000  Uiso   1.00
C1935  C     0.70164   0.60433   0.94763   0.00000  Uiso   1.00
C1936  C     0.99694   0.78972   0.69056   0.00000  Uiso   1.00
H1937  H     0.85367   0.70645   0.83330   0.00000  Uiso   1.00
H1938  H     0.89633   0.54355   0.83337   0.00000  Uiso   1.00
H1939  H     0.79536   0.64807   0.83330   0.00000  Uiso   1.00
H1940  H     0.70464   0.85193   0.83352   0.00000  Uiso   1.00
H1941  H     0.79541   0.85213   0.83342   0.00000  Uiso   1.00
H1942  H     0.70459   0.64787   0.83330   0.00000  Uiso   1.00
H1943  H     0.60373   0.54360   0.83337   0.00000  Uiso   1.00
H1944  H     0.89627   0.95640   0.83324   0.00000  Uiso   1.00
H1945  H     0.92153   0.83577   0.71119   0.00000  Uiso   1.00
H1946  H     0.91612   0.91543   0.73568   0.00000  Uiso   1.00
H1947  H     0.98452   0.95944   0.75164   0.00000  Uiso   1.00
H1948  H     0.64633   0.79355   0.83353   0.00000  Uiso   1.00
H1949  H     0.55872   0.92384   0.74185   0.00000  Uiso   1.00
H1950  H     0.56475   0.84447   0.71629   0.00000  Uiso   1.00
H1951  H     0.93523   0.65555   0.95037   0.00000  Uiso   1.00
H1952  H     0.94123   0.57620   0.92476   0.00000  Uiso   1.00
H1953  H     0.51541   0.54058   0.91496   0.00000  Uiso   1.00
H1954  H     0.58383   0.58455   0.93094   0.00000  Uiso   1.00
H1955  H     0.57846   0.66420   0.95547   0.00000  Uiso   1.00
H1956  H     0.57847   0.66422   0.71120   0.00000  Uiso   1.00
H1957  H     0.58386   0.58458   0.73576   0.00000  Uiso   1.00
H1958  H     0.51545   0.54059   0.75177   0.00000  Uiso   1.00
H1959  H     0.54536   0.89807   0.83315   0.00000  Uiso   1.00
H1960  H     0.94126   0.57619   0.74196   0.00000  Uiso   1.00
H1961  H     0.93525   0.65554   0.71633   0.00000  Uiso   1.00
H1962  H     0.56478   0.84443   0.95033   0.00000  Uiso   1.00
H1963  H     0.55879   0.92376   0.92464   0.00000  Uiso   1.00
H1964  H     0.98461   0.95939   0.91482   0.00000  Uiso   1.00
H1965  H     0.91619   0.91544   0.93086   0.00000  Uiso   1.00
H1966  H     0.92155   0.83581   0.95546   0.00000  Uiso   1.00
H1967  H     0.67155   0.58580   0.71120   0.00000  Uiso   1.00
H1968  H     0.66617   0.66545   0.73573   0.00000  Uiso   1.00
H1969  H     0.73459   0.70942   0.75171   0.00000  Uiso   1.00
H1970  H     0.95464   0.60193   0.83337   0.00000  Uiso   1.00
H1971  H     0.80877   0.67380   0.74190   0.00000  Uiso   1.00
H1972  H     0.81477   0.59445   0.71630   0.00000  Uiso   1.00
H1973  H     0.68525   0.90552   0.95037   0.00000  Uiso   1.00
H1974  H     0.69128   0.82616   0.92481   0.00000  Uiso   1.00
H1975  H     0.76548   0.79056   0.91503   0.00000  Uiso   1.00
H1976  H     0.83388   0.83457   0.93098   0.00000  Uiso   1.00
H1977  H     0.82847   0.91423   0.95547   0.00000  Uiso   1.00
H1978  H     0.82845   0.91419   0.71121   0.00000  Uiso   1.00
H1979  H     0.83381   0.83456   0.73580   0.00000  Uiso   1.00
H1980  H     0.76539   0.79061   0.75185   0.00000  Uiso   1.00
H1981  H     0.54541   0.60213   0.83337   0.00000  Uiso   1.00
H1982  H     0.69121   0.82623   0.74202   0.00000  Uiso   1.00
H1983  H     0.68522   0.90557   0.71634   0.00000  Uiso   1.00
H1984  H     0.81475   0.59446   0.95034   0.00000  Uiso   1.00
H1985  H     0.80874   0.67381   0.92470   0.00000  Uiso   1.00
H1986  H     0.73455   0.70941   0.91489   0.00000  Uiso   1.00
H1987  H     0.66614   0.66542   0.93091   0.00000  Uiso   1.00
H1988  H     0.67153   0.58578   0.95547   0.00000  Uiso   1.00
H1989  H     0.95459   0.89787   0.83325   0.00000  Uiso   1.00
H1990  H     0.85373   0.79360   0.83342   0.00000  Uiso   1.00
H1991  H     0.64627   0.70640   0.83330   0.00000  Uiso   1.00
H1992  H     0.60367   0.95645   0.83313   0.00000  Uiso   1.00
N1993  N     0.50000   0.75000   0.95240   0.00000  Uiso   1.00
N1994  N     0.50000   0.75000   0.71427   0.00000  Uiso   1.00
N1995  N     0.75000   0.50000   0.95240   0.00000  Uiso   1.00
N1996  N     0.75000   0.50000   0.71427   0.00000  Uiso   1.00
O1997  O     0.54581   0.70419   0.87154   0.00000  Uiso   1.00
O1998  O     0.70420   0.54581   0.79513   0.00000  Uiso   1.00
O1999  O     0.70420   0.54581   0.87154   0.00000  Uiso   1.00
O2000  O     0.79581   0.95419   0.79513   0.00000  Uiso   1.00
O2001  O     0.70420   0.95419   0.79513   0.00000  Uiso   1.00
O2002  O     0.79581   0.54581   0.87154   0.00000  Uiso   1.00
O2003  O     0.79581   0.54581   0.79513   0.00000  Uiso   1.00
O2004  O     0.70420   0.95419   0.87154   0.00000  Uiso   1.00
O2005  O     0.95420   0.79581   0.79513   0.00000  Uiso   1.00
O2006  O     0.95420   0.79581   0.87154   0.00000  Uiso   1.00
O2007  O     0.54581   0.70419   0.79513   0.00000  Uiso   1.00
O2008  O     0.95420   0.70419   0.79513   0.00000  Uiso   1.00
O2009  O     0.54581   0.79581   0.87154   0.00000  Uiso   1.00
O2010  O     0.54581   0.79581   0.79513   0.00000  Uiso   1.00
O2011  O     0.95420   0.70419   0.87154   0.00000  Uiso   1.00
O2012  O     0.79581   0.95419   0.87154   0.00000  Uiso   1.00
Zn2013 Zn    0.50000   0.75000   0.88437   0.00000  Uiso   1.00
Zn2014 Zn    0.50000   0.75000   0.78229   0.00000  Uiso   1.00
Zn2015 Zn    0.75000   0.50000   0.88437   0.00000  Uiso   1.00
Zn2016 Zn    0.75000   0.50000   0.78229   0.00000  Uiso   1.00
loop_
_geom_bond_atom_site_label_1
_geom_bond_atom_site_label_2
_geom_bond_distance
_geom_bond_site_symmetry_2
_ccdc_geom_bond_type
C1     O149    1.289   .     A
C1     O159    1.289   .     A
C1     C30     1.393   .     S
C2     C42     1.478   .     S
C2     C675    1.435   .     S
C2     N145    1.374   .     S
C3     C49     1.478   .     S
C3     C1346   1.435   1_554 S
C3     N146    1.374   .     S
C4     N313    1.374   .     A
C4     C55     1.478   .     S
C4     C760    1.435   .     S
C5     C62     1.478   .     S
C5     C1352   1.435   1_554 S
C5     N148    1.374   .     S
C6     C69     1.478   .     S
C6     C679    1.435   .     S
C6     N483    1.374   .     S
C7     C75     1.478   .     S
C7     N484    1.374   .     A
C7     C1350   1.435   1_554 S
C8     C82     1.478   .     S
C8     N147    1.374   .     A
C8     C677    1.435   .     S
C9     H89     1.084   .     S
C9     C20     1.374   .     A
C9     C28     1.391   .     A
C10    C27     1.391   .     A
C10    C21     1.374   .     A
C10    H100    1.084   .     S
C11    C18     1.374   .     A
C11    C27     1.391   .     A
C11    H111    1.084   .     S
C12    C29     1.393   .     S
C12    O157    1.289   .     A
C12    O158    1.289   .     A
C13    C19     1.374   .     A
C13    C28     1.391   .     A
C13    H122    1.084   .     S
C14    C30     1.390   .     A
C14    H133    1.084   .     S
C14    C25     1.373   .     A
C15    H141    1.084   .     S
C15    C29     1.390   .     A
C15    C26     1.373   .     A
C16    C29     1.391   .     A
C16    H142    1.084   .     S
C16    C22     1.373   .     A
C17    C30     1.391   .     A
C17    C24     1.373   .     A
C17    H143    1.084   .     S
C18    C32     1.391   .     A
C18    H144    1.084   .     S
C19    C31     1.391   .     A
C19    H90     1.084   .     S
C20    H91     1.084   .     S
C20    C31     1.391   .     A
C21    C32     1.391   .     A
C21    H92     1.084   .     S
C22    C35     1.390   .     A
C22    H93     1.084   .     S
C23    O163    1.290   .     A
C23    O160    1.290   .     A
C23    C28     1.395   .     S
C24    H94     1.084   .     S
C24    C33     1.390   .     A
C25    H95     1.084   .     S
C25    C33     1.391   .     A
C26    H96     1.084   .     S
C26    C35     1.391   .     A
C27    C34     1.395   .     S
C31    C78     1.395   .     S
C32    C67     1.395   .     S
C33    C56     1.393   .     S
C34    O161    1.290   .     A
C34    O162    1.290   .     A
C35    C45     1.393   .     S
C36    C88     1.478   .     S
C36    C37     1.405   .     A
C36    C209    1.404   .     S
C37    H97     1.083   .     S
C37    C38     1.397   .     A
C38    H98     1.082   .     S
C38    C39     1.397   .     A
C39    H99     1.082   .     S
C39    C208    1.397   .     S
C40    H101    1.082   .     S
C40    C41     1.398   .     A
C40    C207    1.397   1_455 S
C41    H102    1.083   .     S
C41    C204    1.404   1_455 S
C42    C48     1.405   .     A
C42    C211    1.404   1_455 S
C43    C44     1.398   .     A
C43    H103    1.083   .     S
C43    C210    1.404   .     S
C44    H104    1.082   .     S
C44    C214    1.397   .     S
C45    O164    1.289   .     A
C45    O152    1.289   .     A
C46    H105    1.082   .     S
C46    C47     1.397   .     A
C46    C212    1.397   1_455 S
C47    C48     1.397   .     A
C47    H106    1.082   .     S
C48    H107    1.083   .     S
C49    C50     1.405   .     A
C49    C222    1.404   1_455 S
C50    H108    1.083   .     S
C50    C51     1.397   .     A
C51    H109    1.082   .     S
C51    C52     1.397   .     A
C52    H110    1.082   .     S
C52    C221    1.397   1_455 S
C53    C54     1.398   .     A
C53    H112    1.082   .     S
C53    C220    1.397   .     S
C54    H113    1.083   .     S
C54    C217    1.404   .     S
C55    C61     1.405   .     A
C55    C225    1.404   .     S
C56    O151    1.289   .     A
C56    O150    1.289   .     A
C57    H114    1.083   .     S
C57    C58     1.398   .     A
C57    C223    1.404   1_455 S
C58    H115    1.082   .     S
C58    C227    1.397   1_455 S
C59    H116    1.082   .     S
C59    C60     1.397   .     A
C59    C226    1.397   .     S
C60    H117    1.082   .     S
C60    C61     1.397   .     A
C61    H118    1.083   .     S
C62    C63     1.405   .     A
C62    C68     1.404   .     A
C63    C64     1.397   .     A
C63    H119    1.083   .     S
C64    H120    1.082   .     S
C64    C65     1.397   .     A
C65    H121    1.082   .     S
C65    C66     1.397   .     A
C66    C68     1.398   .     A
C66    H123    1.082   .     S
C67    O153    1.290   .     A
C67    O156    1.290   .     A
C68    H124    1.083   .     S
C69    C74     1.405   .     A
C69    C70     1.404   .     A
C70    C71     1.398   .     A
C70    H125    1.083   .     S
C71    H126    1.082   .     S
C71    C72     1.397   .     A
C72    H127    1.082   .     S
C72    C73     1.397   .     A
C73    C74     1.397   .     A
C73    H128    1.082   .     S
C74    H129    1.083   .     S
C75    C76     1.405   .     A
C75    C81     1.404   .     A
C76    H130    1.083   .     S
C76    C77     1.397   .     A
C77    H131    1.082   .     S
C77    C79     1.397   .     A
C78    O155    1.290   .     A
C78    O154    1.290   .     A
C79    H132    1.082   .     S
C79    C80     1.397   .     A
C80    C81     1.398   .     A
C80    H134    1.082   .     S
C81    H135    1.083   .     S
C82    C83     1.404   .     A
C82    C87     1.405   .     A
C83    C84     1.398   .     A
C83    H136    1.083   .     S
C84    C85     1.397   .     A
C84    H137    1.082   .     S
C85    C86     1.397   .     A
C85    H138    1.082   .     S
C86    C87     1.397   .     A
C86    H139    1.082   .     S
C87    H140    1.083   .     S
C88    N314    1.374   .     A
C88    C1348   1.435   1_554 S
N145   C172    1.374   1_455 A
N145   Zn165   2.043   .     S
N146   Zn166   2.043   .     S
N146   C256    1.374   1_455 A
N147   C342    1.374   1_545 S
N147   Zn167   2.043   .     S
N148   Zn168   2.043   .     S
N148   C343    1.374   1_545 A
O149   Zn165   1.965   .     S
O150   Zn168   1.965   .     S
O151   Zn167   1.965   .     S
O152   Zn504   1.965   .     S
O153   Zn504   1.968   .     S
O154   Zn167   1.968   .     S
O155   Zn168   1.968   .     S
O156   Zn503   1.968   .     S
O157   Zn334   1.965   .     S
O158   Zn333   1.965   .     S
O159   Zn166   1.965   .     S
O160   Zn334   1.968   .     S
O161   Zn165   1.968   .     S
O162   Zn166   1.968   .     S
O163   Zn333   1.968   .     S
O164   Zn503   1.965   .     S
Zn165  O331    1.968   1_455 S
Zn165  O326    1.965   1_455 S
Zn166  O328    1.968   1_455 S
Zn166  O325    1.965   1_455 S
Zn167  O492    1.968   1_545 S
Zn167  O500    1.965   1_545 S
Zn168  O488    1.965   1_545 S
Zn168  O489    1.968   1_545 S
C169   O317    1.289   .     A
C169   O327    1.289   .     A
C169   C198    1.393   .     S
C170   C210    1.478   .     S
C170   C843    1.435   .     S
C170   N313    1.374   .     S
C171   C217    1.478   .     S
C171   C1514   1.435   1_554 S
C171   N314    1.374   .     S
C172   N145    1.374   1_655 A
C172   C223    1.478   .     S
C172   C928    1.435   .     S
C173   C230    1.478   .     S
C173   C1520   1.435   1_554 S
C173   N316    1.374   .     S
C174   C237    1.478   .     S
C174   C847    1.435   .     S
C174   N651    1.374   .     S
C175   C243    1.478   .     S
C175   N652    1.374   .     A
C175   C1518   1.435   1_554 S
C176   C250    1.478   .     S
C176   N315    1.374   .     A
C176   C845    1.435   .     S
C177   H257    1.084   .     S
C177   C188    1.374   .     A
C177   C196    1.391   .     A
C178   C195    1.391   .     A
C178   C189    1.374   .     A
C178   H268    1.084   .     S
C179   C186    1.374   .     A
C179   C195    1.391   .     A
C179   H279    1.084   .     S
C180   C197    1.393   .     S
C180   O325    1.289   .     A
C180   O326    1.289   .     A
C181   C187    1.374   .     A
C181   C196    1.391   .     A
C181   H290    1.084   .     S
C182   C198    1.390   .     A
C182   H301    1.084   .     S
C182   C193    1.373   .     A
C183   H309    1.084   .     S
C183   C197    1.390   .     A
C183   C194    1.373   .     A
C184   C197    1.391   .     A
C184   H310    1.084   .     S
C184   C190    1.373   .     A
C185   C198    1.391   .     A
C185   C192    1.373   .     A
C185   H311    1.084   .     S
C186   C200    1.391   .     A
C186   H312    1.084   .     S
C187   C199    1.391   .     A
C187   H258    1.084   .     S
C188   H259    1.084   .     S
C188   C199    1.391   .     A
C189   C200    1.391   .     A
C189   H260    1.084   .     S
C190   C203    1.390   .     A
C190   H261    1.084   .     S
C191   O331    1.290   .     A
C191   O328    1.290   .     A
C191   C196    1.395   .     S
C192   H262    1.084   .     S
C192   C201    1.390   .     A
C193   H263    1.084   .     S
C193   C201    1.391   .     A
C194   H264    1.084   .     S
C194   C203    1.391   .     A
C195   C202    1.395   .     S
C199   C246    1.395   .     S
C200   C235    1.395   .     S
C201   C224    1.393   .     S
C202   O329    1.290   .     A
C202   O330    1.290   .     A
C203   C213    1.393   .     S
C204   C256    1.478   .     S
C204   C205    1.405   .     A
C204   C41     1.404   1_655 S
C205   H265    1.083   .     S
C205   C206    1.397   .     A
C206   H266    1.082   .     S
C206   C207    1.397   .     A
C207   H267    1.082   .     S
C207   C40     1.397   1_655 S
C208   H269    1.082   .     S
C208   C209    1.398   .     A
C209   H270    1.083   .     S
C210   C216    1.405   .     A
C211   C212    1.398   .     A
C211   H271    1.083   .     S
C211   C42     1.404   1_655 S
C212   H272    1.082   .     S
C212   C46     1.397   1_655 S
C213   O332    1.289   .     A
C213   O320    1.289   .     A
C214   H273    1.082   .     S
C214   C215    1.397   .     A
C215   C216    1.397   .     A
C215   H274    1.082   .     S
C216   H275    1.083   .     S
C217   C218    1.405   .     A
C218   H276    1.083   .     S
C218   C219    1.397   .     A
C219   H277    1.082   .     S
C219   C220    1.397   .     A
C220   H278    1.082   .     S
C221   C222    1.398   .     A
C221   H280    1.082   .     S
C221   C52     1.397   1_655 S
C222   H281    1.083   .     S
C222   C49     1.404   1_655 S
C223   C229    1.405   .     A
C223   C57     1.404   1_655 S
C224   O319    1.289   .     A
C224   O318    1.289   .     A
C225   H282    1.083   .     S
C225   C226    1.398   .     A
C226   H283    1.082   .     S
C227   H284    1.082   .     S
C227   C228    1.397   .     A
C227   C58     1.397   1_655 S
C228   H285    1.082   .     S
C228   C229    1.397   .     A
C229   H286    1.083   .     S
C230   C231    1.405   .     A
C230   C236    1.404   .     A
C231   C232    1.397   .     A
C231   H287    1.083   .     S
C232   H288    1.082   .     S
C232   C233    1.397   .     A
C233   H289    1.082   .     S
C233   C234    1.397   .     A
C234   C236    1.398   .     A
C234   H291    1.082   .     S
C235   O321    1.290   .     A
C235   O324    1.290   .     A
C236   H292    1.083   .     S
C237   C242    1.405   .     A
C237   C238    1.404   .     A
C238   C239    1.398   .     A
C238   H293    1.083   .     S
C239   H294    1.082   .     S
C239   C240    1.397   .     A
C240   H295    1.082   .     S
C240   C241    1.397   .     A
C241   C242    1.397   .     A
C241   H296    1.082   .     S
C242   H297    1.083   .     S
C243   C244    1.405   .     A
C243   C249    1.404   .     A
C244   H298    1.083   .     S
C244   C245    1.397   .     A
C245   H299    1.082   .     S
C245   C247    1.397   .     A
C246   O323    1.290   .     A
C246   O322    1.290   .     A
C247   H300    1.082   .     S
C247   C248    1.397   .     A
C248   C249    1.398   .     A
C248   H302    1.082   .     S
C249   H303    1.083   .     S
C250   C251    1.404   .     A
C250   C255    1.405   .     A
C251   C252    1.398   .     A
C251   H304    1.083   .     S
C252   C253    1.397   .     A
C252   H305    1.082   .     S
C253   C254    1.397   .     A
C253   H306    1.082   .     S
C254   C255    1.397   .     A
C254   H307    1.082   .     S
C255   H308    1.083   .     S
C256   N146    1.374   1_655 A
C256   C1516   1.435   1_554 S
N313   Zn333   2.043   .     S
N314   Zn334   2.043   .     S
N315   C510    1.374   1_545 S
N315   Zn335   2.043   .     S
N316   Zn336   2.043   .     S
N316   C511    1.374   1_545 A
O317   Zn333   1.965   .     S
O318   Zn336   1.965   .     S
O319   Zn335   1.965   .     S
O320   Zn672   1.965   .     S
O321   Zn672   1.968   .     S
O322   Zn335   1.968   .     S
O323   Zn336   1.968   .     S
O324   Zn671   1.968   .     S
O325   Zn166   1.965   1_655 S
O326   Zn165   1.965   1_655 S
O327   Zn334   1.965   .     S
O328   Zn166   1.968   1_655 S
O329   Zn333   1.968   .     S
O330   Zn334   1.968   .     S
O331   Zn165   1.968   1_655 S
O332   Zn671   1.965   .     S
Zn335  O660    1.968   1_545 S
Zn335  O668    1.965   1_545 S
Zn336  O656    1.965   1_545 S
Zn336  O657    1.968   1_545 S
C337   O485    1.289   .     A
C337   O495    1.289   .     A
C337   C366    1.393   .     S
C338   C378    1.478   .     S
C338   C1011   1.435   .     S
C338   N481    1.374   .     S
C339   C385    1.478   .     S
C339   C1682   1.435   1_554 S
C339   N482    1.374   .     S
C340   N649    1.374   .     A
C340   C391    1.478   .     S
C340   C1096   1.435   .     S
C341   C398    1.478   .     S
C341   C1688   1.435   1_554 S
C341   N484    1.374   .     S
C342   C405    1.478   .     S
C342   C1015   1.435   .     S
C342   N147    1.374   1_565 S
C343   C411    1.478   .     S
C343   N148    1.374   1_565 A
C343   C1686   1.435   1_554 S
C344   C418    1.478   .     S
C344   N483    1.374   .     A
C344   C1013   1.435   .     S
C345   H425    1.084   .     S
C345   C356    1.374   .     A
C345   C364    1.391   .     A
C346   C363    1.391   .     A
C346   C357    1.374   .     A
C346   H436    1.084   .     S
C347   C354    1.374   .     A
C347   C363    1.391   .     A
C347   H447    1.084   .     S
C348   C365    1.393   .     S
C348   O493    1.289   .     A
C348   O494    1.289   .     A
C349   C355    1.374   .     A
C349   C364    1.391   .     A
C349   H458    1.084   .     S
C350   C366    1.390   .     A
C350   H469    1.084   .     S
C350   C361    1.373   .     A
C351   H477    1.084   .     S
C351   C365    1.390   .     A
C351   C362    1.373   .     A
C352   C365    1.391   .     A
C352   H478    1.084   .     S
C352   C358    1.373   .     A
C353   C366    1.391   .     A
C353   C360    1.373   .     A
C353   H479    1.084   .     S
C354   C368    1.391   .     A
C354   H480    1.084   .     S
C355   C367    1.391   .     A
C355   H426    1.084   .     S
C356   H427    1.084   .     S
C356   C367    1.391   .     A
C357   C368    1.391   .     A
C357   H428    1.084   .     S
C358   C371    1.390   .     A
C358   H429    1.084   .     S
C359   O499    1.290   .     A
C359   O496    1.290   .     A
C359   C364    1.395   .     S
C360   H430    1.084   .     S
C360   C369    1.390   .     A
C361   H431    1.084   .     S
C361   C369    1.391   .     A
C362   H432    1.084   .     S
C362   C371    1.391   .     A
C363   C370    1.395   .     S
C367   C414    1.395   .     S
C368   C403    1.395   .     S
C369   C392    1.393   .     S
C370   O497    1.290   .     A
C370   O498    1.290   .     A
C371   C381    1.393   .     S
C372   C424    1.478   .     S
C372   C373    1.405   .     A
C372   C545    1.404   .     S
C373   H433    1.083   .     S
C373   C374    1.397   .     A
C374   H434    1.082   .     S
C374   C375    1.397   .     A
C375   H435    1.082   .     S
C375   C544    1.397   .     S
C376   H437    1.082   .     S
C376   C377    1.398   .     A
C376   C543    1.397   1_455 S
C377   H438    1.083   .     S
C377   C540    1.404   1_455 S
C378   C384    1.405   .     A
C378   C547    1.404   1_455 S
C379   C380    1.398   .     A
C379   H439    1.083   .     S
C379   C546    1.404   .     S
C380   H440    1.082   .     S
C380   C550    1.397   .     S
C381   O500    1.289   .     A
C381   O488    1.289   .     A
C382   H441    1.082   .     S
C382   C383    1.397   .     A
C382   C548    1.397   1_455 S
C383   C384    1.397   .     A
C383   H442    1.082   .     S
C384   H443    1.083   .     S
C385   C386    1.405   .     A
C385   C558    1.404   1_455 S
C386   H444    1.083   .     S
C386   C387    1.397   .     A
C387   H445    1.082   .     S
C387   C388    1.397   .     A
C388   H446    1.082   .     S
C388   C557    1.397   1_455 S
C389   C390    1.398   .     A
C389   H448    1.082   .     S
C389   C556    1.397   .     S
C390   H449    1.083   .     S
C390   C553    1.404   .     S
C391   C397    1.405   .     A
C391   C561    1.404   .     S
C392   O487    1.289   .     A
C392   O486    1.289   .     A
C393   H450    1.083   .     S
C393   C394    1.398   .     A
C393   C559    1.404   1_455 S
C394   H451    1.082   .     S
C394   C563    1.397   1_455 S
C395   H452    1.082   .     S
C395   C396    1.397   .     A
C395   C562    1.397   .     S
C396   H453    1.082   .     S
C396   C397    1.397   .     A
C397   H454    1.083   .     S
C398   C399    1.405   .     A
C398   C404    1.404   .     A
C399   C400    1.397   .     A
C399   H455    1.083   .     S
C400   H456    1.082   .     S
C400   C401    1.397   .     A
C401   H457    1.082   .     S
C401   C402    1.397   .     A
C402   C404    1.398   .     A
C402   H459    1.082   .     S
C403   O489    1.290   .     A
C403   O492    1.290   .     A
C404   H460    1.083   .     S
C405   C410    1.405   .     A
C405   C406    1.404   .     A
C406   C407    1.398   .     A
C406   H461    1.083   .     S
C407   H462    1.082   .     S
C407   C408    1.397   .     A
C408   H463    1.082   .     S
C408   C409    1.397   .     A
C409   C410    1.397   .     A
C409   H464    1.082   .     S
C410   H465    1.083   .     S
C411   C412    1.405   .     A
C411   C417    1.404   .     A
C412   H466    1.083   .     S
C412   C413    1.397   .     A
C413   H467    1.082   .     S
C413   C415    1.397   .     A
C414   O491    1.290   .     A
C414   O490    1.290   .     A
C415   H468    1.082   .     S
C415   C416    1.397   .     A
C416   C417    1.398   .     A
C416   H470    1.082   .     S
C417   H471    1.083   .     S
C418   C419    1.404   .     A
C418   C423    1.405   .     A
C419   C420    1.398   .     A
C419   H472    1.083   .     S
C420   C421    1.397   .     A
C420   H473    1.082   .     S
C421   C422    1.397   .     A
C421   H474    1.082   .     S
C422   C423    1.397   .     A
C422   H475    1.082   .     S
C423   H476    1.083   .     S
C424   N650    1.374   .     A
C424   C1684   1.435   1_554 S
N481   C508    1.374   1_455 A
N481   Zn501   2.043   .     S
N482   Zn502   2.043   .     S
N482   C592    1.374   1_455 A
N483   Zn503   2.043   .     S
N484   Zn504   2.043   .     S
O485   Zn501   1.965   .     S
O486   Zn504   1.965   .     S
O487   Zn503   1.965   .     S
O488   Zn168   1.965   1_565 S
O489   Zn168   1.968   1_565 S
O490   Zn503   1.968   .     S
O491   Zn504   1.968   .     S
O492   Zn167   1.968   1_565 S
O493   Zn670   1.965   .     S
O494   Zn669   1.965   .     S
O495   Zn502   1.965   .     S
O496   Zn670   1.968   .     S
O497   Zn501   1.968   .     S
O498   Zn502   1.968   .     S
O499   Zn669   1.968   .     S
O500   Zn167   1.965   1_565 S
Zn501  O667    1.968   1_455 S
Zn501  O662    1.965   1_455 S
Zn502  O664    1.968   1_455 S
Zn502  O661    1.965   1_455 S
C505   O653    1.289   .     A
C505   O663    1.289   .     A
C505   C534    1.393   .     S
C506   C546    1.478   .     S
C506   C1179   1.435   .     S
C506   N649    1.374   .     S
C507   C553    1.478   .     S
C507   C1850   1.435   1_554 S
C507   N650    1.374   .     S
C508   N481    1.374   1_655 A
C508   C559    1.478   .     S
C508   C1264   1.435   .     S
C509   C566    1.478   .     S
C509   C1856   1.435   1_554 S
C509   N652    1.374   .     S
C510   C573    1.478   .     S
C510   C1183   1.435   .     S
C510   N315    1.374   1_565 S
C511   C579    1.478   .     S
C511   N316    1.374   1_565 A
C511   C1854   1.435   1_554 S
C512   C586    1.478   .     S
C512   N651    1.374   .     A
C512   C1181   1.435   .     S
C513   H593    1.084   .     S
C513   C524    1.374   .     A
C513   C532    1.391   .     A
C514   C531    1.391   .     A
C514   C525    1.374   .     A
C514   H604    1.084   .     S
C515   C522    1.374   .     A
C515   C531    1.391   .     A
C515   H615    1.084   .     S
C516   C533    1.393   .     S
C516   O661    1.289   .     A
C516   O662    1.289   .     A
C517   C523    1.374   .     A
C517   C532    1.391   .     A
C517   H626    1.084   .     S
C518   C534    1.390   .     A
C518   H637    1.084   .     S
C518   C529    1.373   .     A
C519   H645    1.084   .     S
C519   C533    1.390   .     A
C519   C530    1.373   .     A
C520   C533    1.391   .     A
C520   H646    1.084   .     S
C520   C526    1.373   .     A
C521   C534    1.391   .     A
C521   C528    1.373   .     A
C521   H647    1.084   .     S
C522   C536    1.391   .     A
C522   H648    1.084   .     S
C523   C535    1.391   .     A
C523   H594    1.084   .     S
C524   H595    1.084   .     S
C524   C535    1.391   .     A
C525   C536    1.391   .     A
C525   H596    1.084   .     S
C526   C539    1.390   .     A
C526   H597    1.084   .     S
C527   O667    1.290   .     A
C527   O664    1.290   .     A
C527   C532    1.395   .     S
C528   H598    1.084   .     S
C528   C537    1.390   .     A
C529   H599    1.084   .     S
C529   C537    1.391   .     A
C530   H600    1.084   .     S
C530   C539    1.391   .     A
C531   C538    1.395   .     S
C535   C582    1.395   .     S
C536   C571    1.395   .     S
C537   C560    1.393   .     S
C538   O665    1.290   .     A
C538   O666    1.290   .     A
C539   C549    1.393   .     S
C540   C592    1.478   .     S
C540   C541    1.405   .     A
C540   C377    1.404   1_655 S
C541   H601    1.083   .     S
C541   C542    1.397   .     A
C542   H602    1.082   .     S
C542   C543    1.397   .     A
C543   H603    1.082   .     S
C543   C376    1.397   1_655 S
C544   H605    1.082   .     S
C544   C545    1.398   .     A
C545   H606    1.083   .     S
C546   C552    1.405   .     A
C547   C548    1.398   .     A
C547   H607    1.083   .     S
C547   C378    1.404   1_655 S
C548   H608    1.082   .     S
C548   C382    1.397   1_655 S
C549   O668    1.289   .     A
C549   O656    1.289   .     A
C550   H609    1.082   .     S
C550   C551    1.397   .     A
C551   C552    1.397   .     A
C551   H610    1.082   .     S
C552   H611    1.083   .     S
C553   C554    1.405   .     A
C554   H612    1.083   .     S
C554   C555    1.397   .     A
C555   H613    1.082   .     S
C555   C556    1.397   .     A
C556   H614    1.082   .     S
C557   C558    1.398   .     A
C557   H616    1.082   .     S
C557   C388    1.397   1_655 S
C558   H617    1.083   .     S
C558   C385    1.404   1_655 S
C559   C565    1.405   .     A
C559   C393    1.404   1_655 S
C560   O655    1.289   .     A
C560   O654    1.289   .     A
C561   H618    1.083   .     S
C561   C562    1.398   .     A
C562   H619    1.082   .     S
C563   H620    1.082   .     S
C563   C564    1.397   .     A
C563   C394    1.397   1_655 S
C564   H621    1.082   .     S
C564   C565    1.397   .     A
C565   H622    1.083   .     S
C566   C567    1.405   .     A
C566   C572    1.404   .     A
C567   C568    1.397   .     A
C567   H623    1.083   .     S
C568   H624    1.082   .     S
C568   C569    1.397   .     A
C569   H625    1.082   .     S
C569   C570    1.397   .     A
C570   C572    1.398   .     A
C570   H627    1.082   .     S
C571   O657    1.290   .     A
C571   O660    1.290   .     A
C572   H628    1.083   .     S
C573   C578    1.405   .     A
C573   C574    1.404   .     A
C574   C575    1.398   .     A
C574   H629    1.083   .     S
C575   H630    1.082   .     S
C575   C576    1.397   .     A
C576   H631    1.082   .     S
C576   C577    1.397   .     A
C577   C578    1.397   .     A
C577   H632    1.082   .     S
C578   H633    1.083   .     S
C579   C580    1.405   .     A
C579   C585    1.404   .     A
C580   H634    1.083   .     S
C580   C581    1.397   .     A
C581   H635    1.082   .     S
C581   C583    1.397   .     A
C582   O659    1.290   .     A
C582   O658    1.290   .     A
C583   H636    1.082   .     S
C583   C584    1.397   .     A
C584   C585    1.398   .     A
C584   H638    1.082   .     S
C585   H639    1.083   .     S
C586   C587    1.404   .     A
C586   C591    1.405   .     A
C587   C588    1.398   .     A
C587   H640    1.083   .     S
C588   C589    1.397   .     A
C588   H641    1.082   .     S
C589   C590    1.397   .     A
C589   H642    1.082   .     S
C590   C591    1.397   .     A
C590   H643    1.082   .     S
C591   H644    1.083   .     S
C592   N482    1.374   1_655 A
C592   C1852   1.435   1_554 S
N649   Zn669   2.043   .     S
N650   Zn670   2.043   .     S
N651   Zn671   2.043   .     S
N652   Zn672   2.043   .     S
O653   Zn669   1.965   .     S
O654   Zn672   1.965   .     S
O655   Zn671   1.965   .     S
O656   Zn336   1.965   1_565 S
O657   Zn336   1.968   1_565 S
O658   Zn671   1.968   .     S
O659   Zn672   1.968   .     S
O660   Zn335   1.968   1_565 S
O661   Zn502   1.965   1_655 S
O662   Zn501   1.965   1_655 S
O663   Zn670   1.965   .     S
O664   Zn502   1.968   1_655 S
O665   Zn669   1.968   .     S
O666   Zn670   1.968   .     S
O667   Zn501   1.968   1_655 S
O668   Zn335   1.965   1_565 S
C673   O821    1.289   .     A
C673   O831    1.289   .     A
C673   C702    1.393   .     S
C674   C714    1.478   .     S
C674   C1347   1.435   .     S
C674   N817    1.374   .     S
C675   C721    1.478   .     S
C675   N818    1.374   .     S
C676   N985    1.374   .     A
C676   C727    1.478   .     S
C676   C1432   1.435   .     S
C677   C734    1.478   .     S
C677   N820    1.374   .     S
C678   C741    1.478   .     S
C678   C1351   1.435   .     S
C678   N1155   1.374   .     S
C679   C747    1.478   .     S
C679   N1156   1.374   .     A
C680   C754    1.478   .     S
C680   N819    1.374   .     A
C680   C1349   1.435   .     S
C681   H761    1.084   .     S
C681   C692    1.374   .     A
C681   C700    1.391   .     A
C682   C699    1.391   .     A
C682   C693    1.374   .     A
C682   H772    1.084   .     S
C683   C690    1.374   .     A
C683   C699    1.391   .     A
C683   H783    1.084   .     S
C684   C701    1.393   .     S
C684   O829    1.289   .     A
C684   O830    1.289   .     A
C685   C691    1.374   .     A
C685   C700    1.391   .     A
C685   H794    1.084   .     S
C686   C702    1.390   .     A
C686   H805    1.084   .     S
C686   C697    1.373   .     A
C687   H813    1.084   .     S
C687   C701    1.390   .     A
C687   C698    1.373   .     A
C688   C701    1.391   .     A
C688   H814    1.084   .     S
C688   C694    1.373   .     A
C689   C702    1.391   .     A
C689   C696    1.373   .     A
C689   H815    1.084   .     S
C690   C704    1.391   .     A
C690   H816    1.084   .     S
C691   C703    1.391   .     A
C691   H762    1.084   .     S
C692   H763    1.084   .     S
C692   C703    1.391   .     A
C693   C704    1.391   .     A
C693   H764    1.084   .     S
C694   C707    1.390   .     A
C694   H765    1.084   .     S
C695   O835    1.290   .     A
C695   O832    1.290   .     A
C695   C700    1.395   .     S
C696   H766    1.084   .     S
C696   C705    1.390   .     A
C697   H767    1.084   .     S
C697   C705    1.391   .     A
C698   H768    1.084   .     S
C698   C707    1.391   .     A
C699   C706    1.395   .     S
C703   C750    1.395   .     S
C704   C739    1.395   .     S
C705   C728    1.393   .     S
C706   O833    1.290   .     A
C706   O834    1.290   .     A
C707   C717    1.393   .     S
C708   C760    1.478   .     S
C708   C709    1.405   .     A
C708   C881    1.404   .     S
C709   H769    1.083   .     S
C709   C710    1.397   .     A
C710   H770    1.082   .     S
C710   C711    1.397   .     A
C711   H771    1.082   .     S
C711   C880    1.397   .     S
C712   H773    1.082   .     S
C712   C713    1.398   .     A
C712   C879    1.397   1_455 S
C713   H774    1.083   .     S
C713   C876    1.404   1_455 S
C714   C720    1.405   .     A
C714   C883    1.404   1_455 S
C715   C716    1.398   .     A
C715   H775    1.083   .     S
C715   C882    1.404   .     S
C716   H776    1.082   .     S
C716   C886    1.397   .     S
C717   O836    1.289   .     A
C717   O824    1.289   .     A
C718   H777    1.082   .     S
C718   C719    1.397   .     A
C718   C884    1.397   1_455 S
C719   C720    1.397   .     A
C719   H778    1.082   .     S
C720   H779    1.083   .     S
C721   C722    1.405   .     A
C721   C894    1.404   1_455 S
C722   H780    1.083   .     S
C722   C723    1.397   .     A
C723   H781    1.082   .     S
C723   C724    1.397   .     A
C724   H782    1.082   .     S
C724   C893    1.397   1_455 S
C725   C726    1.398   .     A
C725   H784    1.082   .     S
C725   C892    1.397   .     S
C726   H785    1.083   .     S
C726   C889    1.404   .     S
C727   C733    1.405   .     A
C727   C897    1.404   .     S
C728   O823    1.289   .     A
C728   O822    1.289   .     A
C729   H786    1.083   .     S
C729   C730    1.398   .     A
C729   C895    1.404   1_455 S
C730   H787    1.082   .     S
C730   C899    1.397   1_455 S
C731   H788    1.082   .     S
C731   C732    1.397   .     A
C731   C898    1.397   .     S
C732   H789    1.082   .     S
C732   C733    1.397   .     A
C733   H790    1.083   .     S
C734   C735    1.405   .     A
C734   C740    1.404   .     A
C735   C736    1.397   .     A
C735   H791    1.083   .     S
C736   H792    1.082   .     S
C736   C737    1.397   .     A
C737   H793    1.082   .     S
C737   C738    1.397   .     A
C738   C740    1.398   .     A
C738   H795    1.082   .     S
C739   O825    1.290   .     A
C739   O828    1.290   .     A
C740   H796    1.083   .     S
C741   C746    1.405   .     A
C741   C742    1.404   .     A
C742   C743    1.398   .     A
C742   H797    1.083   .     S
C743   H798    1.082   .     S
C743   C744    1.397   .     A
C744   H799    1.082   .     S
C744   C745    1.397   .     A
C745   C746    1.397   .     A
C745   H800    1.082   .     S
C746   H801    1.083   .     S
C747   C748    1.405   .     A
C747   C753    1.404   .     A
C748   H802    1.083   .     S
C748   C749    1.397   .     A
C749   H803    1.082   .     S
C749   C751    1.397   .     A
C750   O827    1.290   .     A
C750   O826    1.290   .     A
C751   H804    1.082   .     S
C751   C752    1.397   .     A
C752   C753    1.398   .     A
C752   H806    1.082   .     S
C753   H807    1.083   .     S
C754   C755    1.404   .     A
C754   C759    1.405   .     A
C755   C756    1.398   .     A
C755   H808    1.083   .     S
C756   C757    1.397   .     A
C756   H809    1.082   .     S
C757   C758    1.397   .     A
C757   H810    1.082   .     S
C758   C759    1.397   .     A
C758   H811    1.082   .     S
C759   H812    1.083   .     S
C760   N986    1.374   .     A
N817   C844    1.374   1_455 A
N817   Zn837   2.043   .     S
N818   Zn838   2.043   .     S
N818   C928    1.374   1_455 A
N819   C1014   1.374   1_545 S
N819   Zn839   2.043   .     S
N820   Zn840   2.043   .     S
N820   C1015   1.374   1_545 A
O821   Zn837   1.965   .     S
O822   Zn840   1.965   .     S
O823   Zn839   1.965   .     S
O824   Zn1176  1.965   .     S
O825   Zn1176  1.968   .     S
O826   Zn839   1.968   .     S
O827   Zn840   1.968   .     S
O828   Zn1175  1.968   .     S
O829   Zn1006  1.965   .     S
O830   Zn1005  1.965   .     S
O831   Zn838   1.965   .     S
O832   Zn1006  1.968   .     S
O833   Zn837   1.968   .     S
O834   Zn838   1.968   .     S
O835   Zn1005  1.968   .     S
O836   Zn1175  1.965   .     S
Zn837  O1003   1.968   1_455 S
Zn837  O998    1.965   1_455 S
Zn838  O1000   1.968   1_455 S
Zn838  O997    1.965   1_455 S
Zn839  O1164   1.968   1_545 S
Zn839  O1172   1.965   1_545 S
Zn840  O1160   1.965   1_545 S
Zn840  O1161   1.968   1_545 S
C841   O989    1.289   .     A
C841   O999    1.289   .     A
C841   C870    1.393   .     S
C842   C882    1.478   .     S
C842   C1515   1.435   .     S
C842   N985    1.374   .     S
C843   C889    1.478   .     S
C843   N986    1.374   .     S
C844   N817    1.374   1_655 A
C844   C895    1.478   .     S
C844   C1600   1.435   .     S
C845   C902    1.478   .     S
C845   N988    1.374   .     S
C846   C909    1.478   .     S
C846   C1519   1.435   .     S
C846   N1323   1.374   .     S
C847   C915    1.478   .     S
C847   N1324   1.374   .     A
C848   C922    1.478   .     S
C848   N987    1.374   .     A
C848   C1517   1.435   .     S
C849   H929    1.084   .     S
C849   C860    1.374   .     A
C849   C868    1.391   .     A
C850   C867    1.391   .     A
C850   C861    1.374   .     A
C850   H940    1.084   .     S
C851   C858    1.374   .     A
C851   C867    1.391   .     A
C851   H951    1.084   .     S
C852   C869    1.393   .     S
C852   O997    1.289   .     A
C852   O998    1.289   .     A
C853   C859    1.374   .     A
C853   C868    1.391   .     A
C853   H962    1.084   .     S
C854   C870    1.390   .     A
C854   H973    1.084   .     S
C854   C865    1.373   .     A
C855   H981    1.084   .     S
C855   C869    1.390   .     A
C855   C866    1.373   .     A
C856   C869    1.391   .     A
C856   H982    1.084   .     S
C856   C862    1.373   .     A
C857   C870    1.391   .     A
C857   C864    1.373   .     A
C857   H983    1.084   .     S
C858   C872    1.391   .     A
C858   H984    1.084   .     S
C859   C871    1.391   .     A
C859   H930    1.084   .     S
C860   H931    1.084   .     S
C860   C871    1.391   .     A
C861   C872    1.391   .     A
C861   H932    1.084   .     S
C862   C875    1.390   .     A
C862   H933    1.084   .     S
C863   O1003   1.290   .     A
C863   O1000   1.290   .     A
C863   C868    1.395   .     S
C864   H934    1.084   .     S
C864   C873    1.390   .     A
C865   H935    1.084   .     S
C865   C873    1.391   .     A
C866   H936    1.084   .     S
C866   C875    1.391   .     A
C867   C874    1.395   .     S
C871   C918    1.395   .     S
C872   C907    1.395   .     S
C873   C896    1.393   .     S
C874   O1001   1.290   .     A
C874   O1002   1.290   .     A
C875   C885    1.393   .     S
C876   C928    1.478   .     S
C876   C877    1.405   .     A
C876   C713    1.404   1_655 S
C877   H937    1.083   .     S
C877   C878    1.397   .     A
C878   H938    1.082   .     S
C878   C879    1.397   .     A
C879   H939    1.082   .     S
C879   C712    1.397   1_655 S
C880   H941    1.082   .     S
C880   C881    1.398   .     A
C881   H942    1.083   .     S
C882   C888    1.405   .     A
C883   C884    1.398   .     A
C883   H943    1.083   .     S
C883   C714    1.404   1_655 S
C884   H944    1.082   .     S
C884   C718    1.397   1_655 S
C885   O1004   1.289   .     A
C885   O992    1.289   .     A
C886   H945    1.082   .     S
C886   C887    1.397   .     A
C887   C888    1.397   .     A
C887   H946    1.082   .     S
C888   H947    1.083   .     S
C889   C890    1.405   .     A
C890   H948    1.083   .     S
C890   C891    1.397   .     A
C891   H949    1.082   .     S
C891   C892    1.397   .     A
C892   H950    1.082   .     S
C893   C894    1.398   .     A
C893   H952    1.082   .     S
C893   C724    1.397   1_655 S
C894   H953    1.083   .     S
C894   C721    1.404   1_655 S
C895   C901    1.405   .     A
C895   C729    1.404   1_655 S
C896   O991    1.289   .     A
C896   O990    1.289   .     A
C897   H954    1.083   .     S
C897   C898    1.398   .     A
C898   H955    1.082   .     S
C899   H956    1.082   .     S
C899   C900    1.397   .     A
C899   C730    1.397   1_655 S
C900   H957    1.082   .     S
C900   C901    1.397   .     A
C901   H958    1.083   .     S
C902   C903    1.405   .     A
C902   C908    1.404   .     A
C903   C904    1.397   .     A
C903   H959    1.083   .     S
C904   H960    1.082   .     S
C904   C905    1.397   .     A
C905   H961    1.082   .     S
C905   C906    1.397   .     A
C906   C908    1.398   .     A
C906   H963    1.082   .     S
C907   O993    1.290   .     A
C907   O996    1.290   .     A
C908   H964    1.083   .     S
C909   C914    1.405   .     A
C909   C910    1.404   .     A
C910   C911    1.398   .     A
C910   H965    1.083   .     S
C911   H966    1.082   .     S
C911   C912    1.397   .     A
C912   H967    1.082   .     S
C912   C913    1.397   .     A
C913   C914    1.397   .     A
C913   H968    1.082   .     S
C914   H969    1.083   .     S
C915   C916    1.405   .     A
C915   C921    1.404   .     A
C916   H970    1.083   .     S
C916   C917    1.397   .     A
C917   H971    1.082   .     S
C917   C919    1.397   .     A
C918   O995    1.290   .     A
C918   O994    1.290   .     A
C919   H972    1.082   .     S
C919   C920    1.397   .     A
C920   C921    1.398   .     A
C920   H974    1.082   .     S
C921   H975    1.083   .     S
C922   C923    1.404   .     A
C922   C927    1.405   .     A
C923   C924    1.398   .     A
C923   H976    1.083   .     S
C924   C925    1.397   .     A
C924   H977    1.082   .     S
C925   C926    1.397   .     A
C925   H978    1.082   .     S
C926   C927    1.397   .     A
C926   H979    1.082   .     S
C927   H980    1.083   .     S
C928   N818    1.374   1_655 A
N985   Zn1005  2.043   .     S
N986   Zn1006  2.043   .     S
N987   C1182   1.374   1_545 S
N987   Zn1007  2.043   .     S
N988   Zn1008  2.043   .     S
N988   C1183   1.374   1_545 A
O989   Zn1005  1.965   .     S
O990   Zn1008  1.965   .     S
O991   Zn1007  1.965   .     S
O992   Zn1344  1.965   .     S
O993   Zn1344  1.968   .     S
O994   Zn1007  1.968   .     S
O995   Zn1008  1.968   .     S
O996   Zn1343  1.968   .     S
O997   Zn838   1.965   1_655 S
O998   Zn837   1.965   1_655 S
O999   Zn1006  1.965   .     S
O1000  Zn838   1.968   1_655 S
O1001  Zn1005  1.968   .     S
O1002  Zn1006  1.968   .     S
O1003  Zn837   1.968   1_655 S
O1004  Zn1343  1.965   .     S
Zn1007 O1332   1.968   1_545 S
Zn1007 O1340   1.965   1_545 S
Zn1008 O1328   1.965   1_545 S
Zn1008 O1329   1.968   1_545 S
C1009  O1157   1.289   .     A
C1009  O1167   1.289   .     A
C1009  C1038   1.393   .     S
C1010  C1050   1.478   .     S
C1010  C1683   1.435   .     S
C1010  N1153   1.374   .     S
C1011  C1057   1.478   .     S
C1011  N1154   1.374   .     S
C1012  N1321   1.374   .     A
C1012  C1063   1.478   .     S
C1012  C1768   1.435   .     S
C1013  C1070   1.478   .     S
C1013  N1156   1.374   .     S
C1014  C1077   1.478   .     S
C1014  C1687   1.435   .     S
C1014  N819    1.374   1_565 S
C1015  C1083   1.478   .     S
C1015  N820    1.374   1_565 A
C1016  C1090   1.478   .     S
C1016  N1155   1.374   .     A
C1016  C1685   1.435   .     S
C1017  H1097   1.084   .     S
C1017  C1028   1.374   .     A
C1017  C1036   1.391   .     A
C1018  C1035   1.391   .     A
C1018  C1029   1.374   .     A
C1018  H1108   1.084   .     S
C1019  C1026   1.374   .     A
C1019  C1035   1.391   .     A
C1019  H1119   1.084   .     S
C1020  C1037   1.393   .     S
C1020  O1165   1.289   .     A
C1020  O1166   1.289   .     A
C1021  C1027   1.374   .     A
C1021  C1036   1.391   .     A
C1021  H1130   1.084   .     S
C1022  C1038   1.390   .     A
C1022  H1141   1.084   .     S
C1022  C1033   1.373   .     A
C1023  H1149   1.084   .     S
C1023  C1037   1.390   .     A
C1023  C1034   1.373   .     A
C1024  C1037   1.391   .     A
C1024  H1150   1.084   .     S
C1024  C1030   1.373   .     A
C1025  C1038   1.391   .     A
C1025  C1032   1.373   .     A
C1025  H1151   1.084   .     S
C1026  C1040   1.391   .     A
C1026  H1152   1.084   .     S
C1027  C1039   1.391   .     A
C1027  H1098   1.084   .     S
C1028  H1099   1.084   .     S
C1028  C1039   1.391   .     A
C1029  C1040   1.391   .     A
C1029  H1100   1.084   .     S
C1030  C1043   1.390   .     A
C1030  H1101   1.084   .     S
C1031  O1171   1.290   .     A
C1031  O1168   1.290   .     A
C1031  C1036   1.395   .     S
C1032  H1102   1.084   .     S
C1032  C1041   1.390   .     A
C1033  H1103   1.084   .     S
C1033  C1041   1.391   .     A
C1034  H1104   1.084   .     S
C1034  C1043   1.391   .     A
C1035  C1042   1.395   .     S
C1039  C1086   1.395   .     S
C1040  C1075   1.395   .     S
C1041  C1064   1.393   .     S
C1042  O1169   1.290   .     A
C1042  O1170   1.290   .     A
C1043  C1053   1.393   .     S
C1044  C1096   1.478   .     S
C1044  C1045   1.405   .     A
C1044  C1217   1.404   .     S
C1045  H1105   1.083   .     S
C1045  C1046   1.397   .     A
C1046  H1106   1.082   .     S
C1046  C1047   1.397   .     A
C1047  H1107   1.082   .     S
C1047  C1216   1.397   .     S
C1048  H1109   1.082   .     S
C1048  C1049   1.398   .     A
C1048  C1215   1.397   1_455 S
C1049  H1110   1.083   .     S
C1049  C1212   1.404   1_455 S
C1050  C1056   1.405   .     A
C1050  C1219   1.404   1_455 S
C1051  C1052   1.398   .     A
C1051  H1111   1.083   .     S
C1051  C1218   1.404   .     S
C1052  H1112   1.082   .     S
C1052  C1222   1.397   .     S
C1053  O1172   1.289   .     A
C1053  O1160   1.289   .     A
C1054  H1113   1.082   .     S
C1054  C1055   1.397   .     A
C1054  C1220   1.397   1_455 S
C1055  C1056   1.397   .     A
C1055  H1114   1.082   .     S
C1056  H1115   1.083   .     S
C1057  C1058   1.405   .     A
C1057  C1230   1.404   1_455 S
C1058  H1116   1.083   .     S
C1058  C1059   1.397   .     A
C1059  H1117   1.082   .     S
C1059  C1060   1.397   .     A
C1060  H1118   1.082   .     S
C1060  C1229   1.397   1_455 S
C1061  C1062   1.398   .     A
C1061  H1120   1.082   .     S
C1061  C1228   1.397   .     S
C1062  H1121   1.083   .     S
C1062  C1225   1.404   .     S
C1063  C1069   1.405   .     A
C1063  C1233   1.404   .     S
C1064  O1159   1.289   .     A
C1064  O1158   1.289   .     A
C1065  H1122   1.083   .     S
C1065  C1066   1.398   .     A
C1065  C1231   1.404   1_455 S
C1066  H1123   1.082   .     S
C1066  C1235   1.397   1_455 S
C1067  H1124   1.082   .     S
C1067  C1068   1.397   .     A
C1067  C1234   1.397   .     S
C1068  H1125   1.082   .     S
C1068  C1069   1.397   .     A
C1069  H1126   1.083   .     S
C1070  C1071   1.405   .     A
C1070  C1076   1.404   .     A
C1071  C1072   1.397   .     A
C1071  H1127   1.083   .     S
C1072  H1128   1.082   .     S
C1072  C1073   1.397   .     A
C1073  H1129   1.082   .     S
C1073  C1074   1.397   .     A
C1074  C1076   1.398   .     A
C1074  H1131   1.082   .     S
C1075  O1161   1.290   .     A
C1075  O1164   1.290   .     A
C1076  H1132   1.083   .     S
C1077  C1082   1.405   .     A
C1077  C1078   1.404   .     A
C1078  C1079   1.398   .     A
C1078  H1133   1.083   .     S
C1079  H1134   1.082   .     S
C1079  C1080   1.397   .     A
C1080  H1135   1.082   .     S
C1080  C1081   1.397   .     A
C1081  C1082   1.397   .     A
C1081  H1136   1.082   .     S
C1082  H1137   1.083   .     S
C1083  C1084   1.405   .     A
C1083  C1089   1.404   .     A
C1084  H1138   1.083   .     S
C1084  C1085   1.397   .     A
C1085  H1139   1.082   .     S
C1085  C1087   1.397   .     A
C1086  O1163   1.290   .     A
C1086  O1162   1.290   .     A
C1087  H1140   1.082   .     S
C1087  C1088   1.397   .     A
C1088  C1089   1.398   .     A
C1088  H1142   1.082   .     S
C1089  H1143   1.083   .     S
C1090  C1091   1.404   .     A
C1090  C1095   1.405   .     A
C1091  C1092   1.398   .     A
C1091  H1144   1.083   .     S
C1092  C1093   1.397   .     A
C1092  H1145   1.082   .     S
C1093  C1094   1.397   .     A
C1093  H1146   1.082   .     S
C1094  C1095   1.397   .     A
C1094  H1147   1.082   .     S
C1095  H1148   1.083   .     S
C1096  N1322   1.374   .     A
N1153  C1180   1.374   1_455 A
N1153  Zn1173  2.043   .     S
N1154  Zn1174  2.043   .     S
N1154  C1264   1.374   1_455 A
N1155  Zn1175  2.043   .     S
N1156  Zn1176  2.043   .     S
O1157  Zn1173  1.965   .     S
O1158  Zn1176  1.965   .     S
O1159  Zn1175  1.965   .     S
O1160  Zn840   1.965   1_565 S
O1161  Zn840   1.968   1_565 S
O1162  Zn1175  1.968   .     S
O1163  Zn1176  1.968   .     S
O1164  Zn839   1.968   1_565 S
O1165  Zn1342  1.965   .     S
O1166  Zn1341  1.965   .     S
O1167  Zn1174  1.965   .     S
O1168  Zn1342  1.968   .     S
O1169  Zn1173  1.968   .     S
O1170  Zn1174  1.968   .     S
O1171  Zn1341  1.968   .     S
O1172  Zn839   1.965   1_565 S
Zn1173 O1339   1.968   1_455 S
Zn1173 O1334   1.965   1_455 S
Zn1174 O1336   1.968   1_455 S
Zn1174 O1333   1.965   1_455 S
C1177  O1325   1.289   .     A
C1177  O1335   1.289   .     A
C1177  C1206   1.393   .     S
C1178  C1218   1.478   .     S
C1178  C1851   1.435   .     S
C1178  N1321   1.374   .     S
C1179  C1225   1.478   .     S
C1179  N1322   1.374   .     S
C1180  N1153   1.374   1_655 A
C1180  C1231   1.478   .     S
C1180  C1936   1.435   .     S
C1181  C1238   1.478   .     S
C1181  N1324   1.374   .     S
C1182  C1245   1.478   .     S
C1182  C1855   1.435   .     S
C1182  N987    1.374   1_565 S
C1183  C1251   1.478   .     S
C1183  N988    1.374   1_565 A
C1184  C1258   1.478   .     S
C1184  N1323   1.374   .     A
C1184  C1853   1.435   .     S
C1185  H1265   1.084   .     S
C1185  C1196   1.374   .     A
C1185  C1204   1.391   .     A
C1186  C1203   1.391   .     A
C1186  C1197   1.374   .     A
C1186  H1276   1.084   .     S
C1187  C1194   1.374   .     A
C1187  C1203   1.391   .     A
C1187  H1287   1.084   .     S
C1188  C1205   1.393   .     S
C1188  O1333   1.289   .     A
C1188  O1334   1.289   .     A
C1189  C1195   1.374   .     A
C1189  C1204   1.391   .     A
C1189  H1298   1.084   .     S
C1190  C1206   1.390   .     A
C1190  H1309   1.084   .     S
C1190  C1201   1.373   .     A
C1191  H1317   1.084   .     S
C1191  C1205   1.390   .     A
C1191  C1202   1.373   .     A
C1192  C1205   1.391   .     A
C1192  H1318   1.084   .     S
C1192  C1198   1.373   .     A
C1193  C1206   1.391   .     A
C1193  C1200   1.373   .     A
C1193  H1319   1.084   .     S
C1194  C1208   1.391   .     A
C1194  H1320   1.084   .     S
C1195  C1207   1.391   .     A
C1195  H1266   1.084   .     S
C1196  H1267   1.084   .     S
C1196  C1207   1.391   .     A
C1197  C1208   1.391   .     A
C1197  H1268   1.084   .     S
C1198  C1211   1.390   .     A
C1198  H1269   1.084   .     S
C1199  O1339   1.290   .     A
C1199  O1336   1.290   .     A
C1199  C1204   1.395   .     S
C1200  H1270   1.084   .     S
C1200  C1209   1.390   .     A
C1201  H1271   1.084   .     S
C1201  C1209   1.391   .     A
C1202  H1272   1.084   .     S
C1202  C1211   1.391   .     A
C1203  C1210   1.395   .     S
C1207  C1254   1.395   .     S
C1208  C1243   1.395   .     S
C1209  C1232   1.393   .     S
C1210  O1337   1.290   .     A
C1210  O1338   1.290   .     A
C1211  C1221   1.393   .     S
C1212  C1264   1.478   .     S
C1212  C1213   1.405   .     A
C1212  C1049   1.404   1_655 S
C1213  H1273   1.083   .     S
C1213  C1214   1.397   .     A
C1214  H1274   1.082   .     S
C1214  C1215   1.397   .     A
C1215  H1275   1.082   .     S
C1215  C1048   1.397   1_655 S
C1216  H1277   1.082   .     S
C1216  C1217   1.398   .     A
C1217  H1278   1.083   .     S
C1218  C1224   1.405   .     A
C1219  C1220   1.398   .     A
C1219  H1279   1.083   .     S
C1219  C1050   1.404   1_655 S
C1220  H1280   1.082   .     S
C1220  C1054   1.397   1_655 S
C1221  O1340   1.289   .     A
C1221  O1328   1.289   .     A
C1222  H1281   1.082   .     S
C1222  C1223   1.397   .     A
C1223  C1224   1.397   .     A
C1223  H1282   1.082   .     S
C1224  H1283   1.083   .     S
C1225  C1226   1.405   .     A
C1226  H1284   1.083   .     S
C1226  C1227   1.397   .     A
C1227  H1285   1.082   .     S
C1227  C1228   1.397   .     A
C1228  H1286   1.082   .     S
C1229  C1230   1.398   .     A
C1229  H1288   1.082   .     S
C1229  C1060   1.397   1_655 S
C1230  H1289   1.083   .     S
C1230  C1057   1.404   1_655 S
C1231  C1237   1.405   .     A
C1231  C1065   1.404   1_655 S
C1232  O1327   1.289   .     A
C1232  O1326   1.289   .     A
C1233  H1290   1.083   .     S
C1233  C1234   1.398   .     A
C1234  H1291   1.082   .     S
C1235  H1292   1.082   .     S
C1235  C1236   1.397   .     A
C1235  C1066   1.397   1_655 S
C1236  H1293   1.082   .     S
C1236  C1237   1.397   .     A
C1237  H1294   1.083   .     S
C1238  C1239   1.405   .     A
C1238  C1244   1.404   .     A
C1239  C1240   1.397   .     A
C1239  H1295   1.083   .     S
C1240  H1296   1.082   .     S
C1240  C1241   1.397   .     A
C1241  H1297   1.082   .     S
C1241  C1242   1.397   .     A
C1242  C1244   1.398   .     A
C1242  H1299   1.082   .     S
C1243  O1329   1.290   .     A
C1243  O1332   1.290   .     A
C1244  H1300   1.083   .     S
C1245  C1250   1.405   .     A
C1245  C1246   1.404   .     A
C1246  C1247   1.398   .     A
C1246  H1301   1.083   .     S
C1247  H1302   1.082   .     S
C1247  C1248   1.397   .     A
C1248  H1303   1.082   .     S
C1248  C1249   1.397   .     A
C1249  C1250   1.397   .     A
C1249  H1304   1.082   .     S
C1250  H1305   1.083   .     S
C1251  C1252   1.405   .     A
C1251  C1257   1.404   .     A
C1252  H1306   1.083   .     S
C1252  C1253   1.397   .     A
C1253  H1307   1.082   .     S
C1253  C1255   1.397   .     A
C1254  O1331   1.290   .     A
C1254  O1330   1.290   .     A
C1255  H1308   1.082   .     S
C1255  C1256   1.397   .     A
C1256  C1257   1.398   .     A
C1256  H1310   1.082   .     S
C1257  H1311   1.083   .     S
C1258  C1259   1.404   .     A
C1258  C1263   1.405   .     A
C1259  C1260   1.398   .     A
C1259  H1312   1.083   .     S
C1260  C1261   1.397   .     A
C1260  H1313   1.082   .     S
C1261  C1262   1.397   .     A
C1261  H1314   1.082   .     S
C1262  C1263   1.397   .     A
C1262  H1315   1.082   .     S
C1263  H1316   1.083   .     S
C1264  N1154   1.374   1_655 A
N1321  Zn1341  2.043   .     S
N1322  Zn1342  2.043   .     S
N1323  Zn1343  2.043   .     S
N1324  Zn1344  2.043   .     S
O1325  Zn1341  1.965   .     S
O1326  Zn1344  1.965   .     S
O1327  Zn1343  1.965   .     S
O1328  Zn1008  1.965   1_565 S
O1329  Zn1008  1.968   1_565 S
O1330  Zn1343  1.968   .     S
O1331  Zn1344  1.968   .     S
O1332  Zn1007  1.968   1_565 S
O1333  Zn1174  1.965   1_655 S
O1334  Zn1173  1.965   1_655 S
O1335  Zn1342  1.965   .     S
O1336  Zn1174  1.968   1_655 S
O1337  Zn1341  1.968   .     S
O1338  Zn1342  1.968   .     S
O1339  Zn1173  1.968   1_655 S
O1340  Zn1007  1.965   1_565 S
C1345  O1493   1.289   .     A
C1345  O1503   1.289   .     A
C1345  C1374   1.393   .     S
C1346  C1386   1.478   .     S
C1346  C3      1.435   1_556 S
C1346  N1489   1.374   .     S
C1347  C1393   1.478   .     S
C1347  N1490   1.374   .     S
C1348  N1657   1.374   .     A
C1348  C1399   1.478   .     S
C1348  C88     1.435   1_556 S
C1349  C1406   1.478   .     S
C1349  N1492   1.374   .     S
C1350  C1413   1.478   .     S
C1350  C7      1.435   1_556 S
C1350  N1827   1.374   .     S
C1351  C1419   1.478   .     S
C1351  N1828   1.374   .     A
C1352  C1426   1.478   .     S
C1352  N1491   1.374   .     A
C1352  C5      1.435   1_556 S
C1353  H1433   1.084   .     S
C1353  C1364   1.374   .     A
C1353  C1372   1.391   .     A
C1354  C1371   1.391   .     A
C1354  C1365   1.374   .     A
C1354  H1444   1.084   .     S
C1355  C1362   1.374   .     A
C1355  C1371   1.391   .     A
C1355  H1455   1.084   .     S
C1356  C1373   1.393   .     S
C1356  O1501   1.289   .     A
C1356  O1502   1.289   .     A
C1357  C1363   1.374   .     A
C1357  C1372   1.391   .     A
C1357  H1466   1.084   .     S
C1358  C1374   1.390   .     A
C1358  H1477   1.084   .     S
C1358  C1369   1.373   .     A
C1359  H1485   1.084   .     S
C1359  C1373   1.390   .     A
C1359  C1370   1.373   .     A
C1360  C1373   1.391   .     A
C1360  H1486   1.084   .     S
C1360  C1366   1.373   .     A
C1361  C1374   1.391   .     A
C1361  C1368   1.373   .     A
C1361  H1487   1.084   .     S
C1362  C1376   1.391   .     A
C1362  H1488   1.084   .     S
C1363  C1375   1.391   .     A
C1363  H1434   1.084   .     S
C1364  H1435   1.084   .     S
C1364  C1375   1.391   .     A
C1365  C1376   1.391   .     A
C1365  H1436   1.084   .     S
C1366  C1379   1.390   .     A
C1366  H1437   1.084   .     S
C1367  O1507   1.290   .     A
C1367  O1504   1.290   .     A
C1367  C1372   1.395   .     S
C1368  H1438   1.084   .     S
C1368  C1377   1.390   .     A
C1369  H1439   1.084   .     S
C1369  C1377   1.391   .     A
C1370  H1440   1.084   .     S
C1370  C1379   1.391   .     A
C1371  C1378   1.395   .     S
C1375  C1422   1.395   .     S
C1376  C1411   1.395   .     S
C1377  C1400   1.393   .     S
C1378  O1505   1.290   .     A
C1378  O1506   1.290   .     A
C1379  C1389   1.393   .     S
C1380  C1432   1.478   .     S
C1380  C1381   1.405   .     A
C1380  C1553   1.404   .     S
C1381  H1441   1.083   .     S
C1381  C1382   1.397   .     A
C1382  H1442   1.082   .     S
C1382  C1383   1.397   .     A
C1383  H1443   1.082   .     S
C1383  C1552   1.397   .     S
C1384  H1445   1.082   .     S
C1384  C1385   1.398   .     A
C1384  C1551   1.397   1_455 S
C1385  H1446   1.083   .     S
C1385  C1548   1.404   1_455 S
C1386  C1392   1.405   .     A
C1386  C1555   1.404   1_455 S
C1387  C1388   1.398   .     A
C1387  H1447   1.083   .     S
C1387  C1554   1.404   .     S
C1388  H1448   1.082   .     S
C1388  C1558   1.397   .     S
C1389  O1508   1.289   .     A
C1389  O1496   1.289   .     A
C1390  H1449   1.082   .     S
C1390  C1391   1.397   .     A
C1390  C1556   1.397   1_455 S
C1391  C1392   1.397   .     A
C1391  H1450   1.082   .     S
C1392  H1451   1.083   .     S
C1393  C1394   1.405   .     A
C1393  C1566   1.404   1_455 S
C1394  H1452   1.083   .     S
C1394  C1395   1.397   .     A
C1395  H1453   1.082   .     S
C1395  C1396   1.397   .     A
C1396  H1454   1.082   .     S
C1396  C1565   1.397   1_455 S
C1397  C1398   1.398   .     A
C1397  H1456   1.082   .     S
C1397  C1564   1.397   .     S
C1398  H1457   1.083   .     S
C1398  C1561   1.404   .     S
C1399  C1405   1.405   .     A
C1399  C1569   1.404   .     S
C1400  O1495   1.289   .     A
C1400  O1494   1.289   .     A
C1401  H1458   1.083   .     S
C1401  C1402   1.398   .     A
C1401  C1567   1.404   1_455 S
C1402  H1459   1.082   .     S
C1402  C1571   1.397   1_455 S
C1403  H1460   1.082   .     S
C1403  C1404   1.397   .     A
C1403  C1570   1.397   .     S
C1404  H1461   1.082   .     S
C1404  C1405   1.397   .     A
C1405  H1462   1.083   .     S
C1406  C1407   1.405   .     A
C1406  C1412   1.404   .     A
C1407  C1408   1.397   .     A
C1407  H1463   1.083   .     S
C1408  H1464   1.082   .     S
C1408  C1409   1.397   .     A
C1409  H1465   1.082   .     S
C1409  C1410   1.397   .     A
C1410  C1412   1.398   .     A
C1410  H1467   1.082   .     S
C1411  O1497   1.290   .     A
C1411  O1500   1.290   .     A
C1412  H1468   1.083   .     S
C1413  C1418   1.405   .     A
C1413  C1414   1.404   .     A
C1414  C1415   1.398   .     A
C1414  H1469   1.083   .     S
C1415  H1470   1.082   .     S
C1415  C1416   1.397   .     A
C1416  H1471   1.082   .     S
C1416  C1417   1.397   .     A
C1417  C1418   1.397   .     A
C1417  H1472   1.082   .     S
C1418  H1473   1.083   .     S
C1419  C1420   1.405   .     A
C1419  C1425   1.404   .     A
C1420  H1474   1.083   .     S
C1420  C1421   1.397   .     A
C1421  H1475   1.082   .     S
C1421  C1423   1.397   .     A
C1422  O1499   1.290   .     A
C1422  O1498   1.290   .     A
C1423  H1476   1.082   .     S
C1423  C1424   1.397   .     A
C1424  C1425   1.398   .     A
C1424  H1478   1.082   .     S
C1425  H1479   1.083   .     S
C1426  C1427   1.404   .     A
C1426  C1431   1.405   .     A
C1427  C1428   1.398   .     A
C1427  H1480   1.083   .     S
C1428  C1429   1.397   .     A
C1428  H1481   1.082   .     S
C1429  C1430   1.397   .     A
C1429  H1482   1.082   .     S
C1430  C1431   1.397   .     A
C1430  H1483   1.082   .     S
C1431  H1484   1.083   .     S
C1432  N1658   1.374   .     A
N1489  C1516   1.374   1_455 A
N1489  Zn1509  2.043   .     S
N1490  Zn1510  2.043   .     S
N1490  C1600   1.374   1_455 A
N1491  C1686   1.374   1_545 S
N1491  Zn1511  2.043   .     S
N1492  Zn1512  2.043   .     S
N1492  C1687   1.374   1_545 A
O1493  Zn1509  1.965   .     S
O1494  Zn1512  1.965   .     S
O1495  Zn1511  1.965   .     S
O1496  Zn1848  1.965   .     S
O1497  Zn1848  1.968   .     S
O1498  Zn1511  1.968   .     S
O1499  Zn1512  1.968   .     S
O1500  Zn1847  1.968   .     S
O1501  Zn1678  1.965   .     S
O1502  Zn1677  1.965   .     S
O1503  Zn1510  1.965   .     S
O1504  Zn1678  1.968   .     S
O1505  Zn1509  1.968   .     S
O1506  Zn1510  1.968   .     S
O1507  Zn1677  1.968   .     S
O1508  Zn1847  1.965   .     S
Zn1509 O1675   1.968   1_455 S
Zn1509 O1670   1.965   1_455 S
Zn1510 O1672   1.968   1_455 S
Zn1510 O1669   1.965   1_455 S
Zn1511 O1836   1.968   1_545 S
Zn1511 O1844   1.965   1_545 S
Zn1512 O1832   1.965   1_545 S
Zn1512 O1833   1.968   1_545 S
C1513  O1661   1.289   .     A
C1513  O1671   1.289   .     A
C1513  C1542   1.393   .     S
C1514  C1554   1.478   .     S
C1514  C171    1.435   1_556 S
C1514  N1657   1.374   .     S
C1515  C1561   1.478   .     S
C1515  N1658   1.374   .     S
C1516  N1489   1.374   1_655 A
C1516  C1567   1.478   .     S
C1516  C256    1.435   1_556 S
C1517  C1574   1.478   .     S
C1517  N1660   1.374   .     S
C1518  C1581   1.478   .     S
C1518  C175    1.435   1_556 S
C1518  N1995   1.374   .     S
C1519  C1587   1.478   .     S
C1519  N1996   1.374   .     A
C1520  C1594   1.478   .     S
C1520  N1659   1.374   .     A
C1520  C173    1.435   1_556 S
C1521  H1601   1.084   .     S
C1521  C1532   1.374   .     A
C1521  C1540   1.391   .     A
C1522  C1539   1.391   .     A
C1522  C1533   1.374   .     A
C1522  H1612   1.084   .     S
C1523  C1530   1.374   .     A
C1523  C1539   1.391   .     A
C1523  H1623   1.084   .     S
C1524  C1541   1.393   .     S
C1524  O1669   1.289   .     A
C1524  O1670   1.289   .     A
C1525  C1531   1.374   .     A
C1525  C1540   1.391   .     A
C1525  H1634   1.084   .     S
C1526  C1542   1.390   .     A
C1526  H1645   1.084   .     S
C1526  C1537   1.373   .     A
C1527  H1653   1.084   .     S
C1527  C1541   1.390   .     A
C1527  C1538   1.373   .     A
C1528  C1541   1.391   .     A
C1528  H1654   1.084   .     S
C1528  C1534   1.373   .     A
C1529  C1542   1.391   .     A
C1529  C1536   1.373   .     A
C1529  H1655   1.084   .     S
C1530  C1544   1.391   .     A
C1530  H1656   1.084   .     S
C1531  C1543   1.391   .     A
C1531  H1602   1.084   .     S
C1532  H1603   1.084   .     S
C1532  C1543   1.391   .     A
C1533  C1544   1.391   .     A
C1533  H1604   1.084   .     S
C1534  C1547   1.390   .     A
C1534  H1605   1.084   .     S
C1535  O1675   1.290   .     A
C1535  O1672   1.290   .     A
C1535  C1540   1.395   .     S
C1536  H1606   1.084   .     S
C1536  C1545   1.390   .     A
C1537  H1607   1.084   .     S
C1537  C1545   1.391   .     A
C1538  H1608   1.084   .     S
C1538  C1547   1.391   .     A
C1539  C1546   1.395   .     S
C1543  C1590   1.395   .     S
C1544  C1579   1.395   .     S
C1545  C1568   1.393   .     S
C1546  O1673   1.290   .     A
C1546  O1674   1.290   .     A
C1547  C1557   1.393   .     S
C1548  C1600   1.478   .     S
C1548  C1549   1.405   .     A
C1548  C1385   1.404   1_655 S
C1549  H1609   1.083   .     S
C1549  C1550   1.397   .     A
C1550  H1610   1.082   .     S
C1550  C1551   1.397   .     A
C1551  H1611   1.082   .     S
C1551  C1384   1.397   1_655 S
C1552  H1613   1.082   .     S
C1552  C1553   1.398   .     A
C1553  H1614   1.083   .     S
C1554  C1560   1.405   .     A
C1555  C1556   1.398   .     A
C1555  H1615   1.083   .     S
C1555  C1386   1.404   1_655 S
C1556  H1616   1.082   .     S
C1556  C1390   1.397   1_655 S
C1557  O1676   1.289   .     A
C1557  O1664   1.289   .     A
C1558  H1617   1.082   .     S
C1558  C1559   1.397   .     A
C1559  C1560   1.397   .     A
C1559  H1618   1.082   .     S
C1560  H1619   1.083   .     S
C1561  C1562   1.405   .     A
C1562  H1620   1.083   .     S
C1562  C1563   1.397   .     A
C1563  H1621   1.082   .     S
C1563  C1564   1.397   .     A
C1564  H1622   1.082   .     S
C1565  C1566   1.398   .     A
C1565  H1624   1.082   .     S
C1565  C1396   1.397   1_655 S
C1566  H1625   1.083   .     S
C1566  C1393   1.404   1_655 S
C1567  C1573   1.405   .     A
C1567  C1401   1.404   1_655 S
C1568  O1663   1.289   .     A
C1568  O1662   1.289   .     A
C1569  H1626   1.083   .     S
C1569  C1570   1.398   .     A
C1570  H1627   1.082   .     S
C1571  H1628   1.082   .     S
C1571  C1572   1.397   .     A
C1571  C1402   1.397   1_655 S
C1572  H1629   1.082   .     S
C1572  C1573   1.397   .     A
C1573  H1630   1.083   .     S
C1574  C1575   1.405   .     A
C1574  C1580   1.404   .     A
C1575  C1576   1.397   .     A
C1575  H1631   1.083   .     S
C1576  H1632   1.082   .     S
C1576  C1577   1.397   .     A
C1577  H1633   1.082   .     S
C1577  C1578   1.397   .     A
C1578  C1580   1.398   .     A
C1578  H1635   1.082   .     S
C1579  O1665   1.290   .     A
C1579  O1668   1.290   .     A
C1580  H1636   1.083   .     S
C1581  C1586   1.405   .     A
C1581  C1582   1.404   .     A
C1582  C1583   1.398   .     A
C1582  H1637   1.083   .     S
C1583  H1638   1.082   .     S
C1583  C1584   1.397   .     A
C1584  H1639   1.082   .     S
C1584  C1585   1.397   .     A
C1585  C1586   1.397   .     A
C1585  H1640   1.082   .     S
C1586  H1641   1.083   .     S
C1587  C1588   1.405   .     A
C1587  C1593   1.404   .     A
C1588  H1642   1.083   .     S
C1588  C1589   1.397   .     A
C1589  H1643   1.082   .     S
C1589  C1591   1.397   .     A
C1590  O1667   1.290   .     A
C1590  O1666   1.290   .     A
C1591  H1644   1.082   .     S
C1591  C1592   1.397   .     A
C1592  C1593   1.398   .     A
C1592  H1646   1.082   .     S
C1593  H1647   1.083   .     S
C1594  C1595   1.404   .     A
C1594  C1599   1.405   .     A
C1595  C1596   1.398   .     A
C1595  H1648   1.083   .     S
C1596  C1597   1.397   .     A
C1596  H1649   1.082   .     S
C1597  C1598   1.397   .     A
C1597  H1650   1.082   .     S
C1598  C1599   1.397   .     A
C1598  H1651   1.082   .     S
C1599  H1652   1.083   .     S
C1600  N1490   1.374   1_655 A
N1657  Zn1677  2.043   .     S
N1658  Zn1678  2.043   .     S
N1659  C1854   1.374   1_545 S
N1659  Zn1679  2.043   .     S
N1660  Zn1680  2.043   .     S
N1660  C1855   1.374   1_545 A
O1661  Zn1677  1.965   .     S
O1662  Zn1680  1.965   .     S
O1663  Zn1679  1.965   .     S
O1664  Zn2016  1.965   .     S
O1665  Zn2016  1.968   .     S
O1666  Zn1679  1.968   .     S
O1667  Zn1680  1.968   .     S
O1668  Zn2015  1.968   .     S
O1669  Zn1510  1.965   1_655 S
O1670  Zn1509  1.965   1_655 S
O1671  Zn1678  1.965   .     S
O1672  Zn1510  1.968   1_655 S
O1673  Zn1677  1.968   .     S
O1674  Zn1678  1.968   .     S
O1675  Zn1509  1.968   1_655 S
O1676  Zn2015  1.965   .     S
Zn1679 O2004   1.968   1_545 S
Zn1679 O2012   1.965   1_545 S
Zn1680 O2000   1.965   1_545 S
Zn1680 O2001   1.968   1_545 S
C1681  O1829   1.289   .     A
C1681  O1839   1.289   .     A
C1681  C1710   1.393   .     S
C1682  C1722   1.478   .     S
C1682  C339    1.435   1_556 S
C1682  N1825   1.374   .     S
C1683  C1729   1.478   .     S
C1683  N1826   1.374   .     S
C1684  N1993   1.374   .     A
C1684  C1735   1.478   .     S
C1684  C424    1.435   1_556 S
C1685  C1742   1.478   .     S
C1685  N1828   1.374   .     S
C1686  C1749   1.478   .     S
C1686  C343    1.435   1_556 S
C1686  N1491   1.374   1_565 S
C1687  C1755   1.478   .     S
C1687  N1492   1.374   1_565 A
C1688  C1762   1.478   .     S
C1688  N1827   1.374   .     A
C1688  C341    1.435   1_556 S
C1689  H1769   1.084   .     S
C1689  C1700   1.374   .     A
C1689  C1708   1.391   .     A
C1690  C1707   1.391   .     A
C1690  C1701   1.374   .     A
C1690  H1780   1.084   .     S
C1691  C1698   1.374   .     A
C1691  C1707   1.391   .     A
C1691  H1791   1.084   .     S
C1692  C1709   1.393   .     S
C1692  O1837   1.289   .     A
C1692  O1838   1.289   .     A
C1693  C1699   1.374   .     A
C1693  C1708   1.391   .     A
C1693  H1802   1.084   .     S
C1694  C1710   1.390   .     A
C1694  H1813   1.084   .     S
C1694  C1705   1.373   .     A
C1695  H1821   1.084   .     S
C1695  C1709   1.390   .     A
C1695  C1706   1.373   .     A
C1696  C1709   1.391   .     A
C1696  H1822   1.084   .     S
C1696  C1702   1.373   .     A
C1697  C1710   1.391   .     A
C1697  C1704   1.373   .     A
C1697  H1823   1.084   .     S
C1698  C1712   1.391   .     A
C1698  H1824   1.084   .     S
C1699  C1711   1.391   .     A
C1699  H1770   1.084   .     S
C1700  H1771   1.084   .     S
C1700  C1711   1.391   .     A
C1701  C1712   1.391   .     A
C1701  H1772   1.084   .     S
C1702  C1715   1.390   .     A
C1702  H1773   1.084   .     S
C1703  O1843   1.290   .     A
C1703  O1840   1.290   .     A
C1703  C1708   1.395   .     S
C1704  H1774   1.084   .     S
C1704  C1713   1.390   .     A
C1705  H1775   1.084   .     S
C1705  C1713   1.391   .     A
C1706  H1776   1.084   .     S
C1706  C1715   1.391   .     A
C1707  C1714   1.395   .     S
C1711  C1758   1.395   .     S
C1712  C1747   1.395   .     S
C1713  C1736   1.393   .     S
C1714  O1841   1.290   .     A
C1714  O1842   1.290   .     A
C1715  C1725   1.393   .     S
C1716  C1768   1.478   .     S
C1716  C1717   1.405   .     A
C1716  C1889   1.404   .     S
C1717  H1777   1.083   .     S
C1717  C1718   1.397   .     A
C1718  H1778   1.082   .     S
C1718  C1719   1.397   .     A
C1719  H1779   1.082   .     S
C1719  C1888   1.397   .     S
C1720  H1781   1.082   .     S
C1720  C1721   1.398   .     A
C1720  C1887   1.397   1_455 S
C1721  H1782   1.083   .     S
C1721  C1884   1.404   1_455 S
C1722  C1728   1.405   .     A
C1722  C1891   1.404   1_455 S
C1723  C1724   1.398   .     A
C1723  H1783   1.083   .     S
C1723  C1890   1.404   .     S
C1724  H1784   1.082   .     S
C1724  C1894   1.397   .     S
C1725  O1844   1.289   .     A
C1725  O1832   1.289   .     A
C1726  H1785   1.082   .     S
C1726  C1727   1.397   .     A
C1726  C1892   1.397   1_455 S
C1727  C1728   1.397   .     A
C1727  H1786   1.082   .     S
C1728  H1787   1.083   .     S
C1729  C1730   1.405   .     A
C1729  C1902   1.404   1_455 S
C1730  H1788   1.083   .     S
C1730  C1731   1.397   .     A
C1731  H1789   1.082   .     S
C1731  C1732   1.397   .     A
C1732  H1790   1.082   .     S
C1732  C1901   1.397   1_455 S
C1733  C1734   1.398   .     A
C1733  H1792   1.082   .     S
C1733  C1900   1.397   .     S
C1734  H1793   1.083   .     S
C1734  C1897   1.404   .     S
C1735  C1741   1.405   .     A
C1735  C1905   1.404   .     S
C1736  O1831   1.289   .     A
C1736  O1830   1.289   .     A
C1737  H1794   1.083   .     S
C1737  C1738   1.398   .     A
C1737  C1903   1.404   1_455 S
C1738  H1795   1.082   .     S
C1738  C1907   1.397   1_455 S
C1739  H1796   1.082   .     S
C1739  C1740   1.397   .     A
C1739  C1906   1.397   .     S
C1740  H1797   1.082   .     S
C1740  C1741   1.397   .     A
C1741  H1798   1.083   .     S
C1742  C1743   1.405   .     A
C1742  C1748   1.404   .     A
C1743  C1744   1.397   .     A
C1743  H1799   1.083   .     S
C1744  H1800   1.082   .     S
C1744  C1745   1.397   .     A
C1745  H1801   1.082   .     S
C1745  C1746   1.397   .     A
C1746  C1748   1.398   .     A
C1746  H1803   1.082   .     S
C1747  O1833   1.290   .     A
C1747  O1836   1.290   .     A
C1748  H1804   1.083   .     S
C1749  C1754   1.405   .     A
C1749  C1750   1.404   .     A
C1750  C1751   1.398   .     A
C1750  H1805   1.083   .     S
C1751  H1806   1.082   .     S
C1751  C1752   1.397   .     A
C1752  H1807   1.082   .     S
C1752  C1753   1.397   .     A
C1753  C1754   1.397   .     A
C1753  H1808   1.082   .     S
C1754  H1809   1.083   .     S
C1755  C1756   1.405   .     A
C1755  C1761   1.404   .     A
C1756  H1810   1.083   .     S
C1756  C1757   1.397   .     A
C1757  H1811   1.082   .     S
C1757  C1759   1.397   .     A
C1758  O1835   1.290   .     A
C1758  O1834   1.290   .     A
C1759  H1812   1.082   .     S
C1759  C1760   1.397   .     A
C1760  C1761   1.398   .     A
C1760  H1814   1.082   .     S
C1761  H1815   1.083   .     S
C1762  C1763   1.404   .     A
C1762  C1767   1.405   .     A
C1763  C1764   1.398   .     A
C1763  H1816   1.083   .     S
C1764  C1765   1.397   .     A
C1764  H1817   1.082   .     S
C1765  C1766   1.397   .     A
C1765  H1818   1.082   .     S
C1766  C1767   1.397   .     A
C1766  H1819   1.082   .     S
C1767  H1820   1.083   .     S
C1768  N1994   1.374   .     A
N1825  C1852   1.374   1_455 A
N1825  Zn1845  2.043   .     S
N1826  Zn1846  2.043   .     S
N1826  C1936   1.374   1_455 A
N1827  Zn1847  2.043   .     S
N1828  Zn1848  2.043   .     S
O1829  Zn1845  1.965   .     S
O1830  Zn1848  1.965   .     S
O1831  Zn1847  1.965   .     S
O1832  Zn1512  1.965   1_565 S
O1833  Zn1512  1.968   1_565 S
O1834  Zn1847  1.968   .     S
O1835  Zn1848  1.968   .     S
O1836  Zn1511  1.968   1_565 S
O1837  Zn2014  1.965   .     S
O1838  Zn2013  1.965   .     S
O1839  Zn1846  1.965   .     S
O1840  Zn2014  1.968   .     S
O1841  Zn1845  1.968   .     S
O1842  Zn1846  1.968   .     S
O1843  Zn2013  1.968   .     S
O1844  Zn1511  1.965   1_565 S
Zn1845 O2011   1.968   1_455 S
Zn1845 O2006   1.965   1_455 S
Zn1846 O2008   1.968   1_455 S
Zn1846 O2005   1.965   1_455 S
C1849  O1997   1.289   .     A
C1849  O2007   1.289   .     A
C1849  C1878   1.393   .     S
C1850  C1890   1.478   .     S
C1850  C507    1.435   1_556 S
C1850  N1993   1.374   .     S
C1851  C1897   1.478   .     S
C1851  N1994   1.374   .     S
C1852  N1825   1.374   1_655 A
C1852  C1903   1.478   .     S
C1852  C592    1.435   1_556 S
C1853  C1910   1.478   .     S
C1853  N1996   1.374   .     S
C1854  C1917   1.478   .     S
C1854  C511    1.435   1_556 S
C1854  N1659   1.374   1_565 S
C1855  C1923   1.478   .     S
C1855  N1660   1.374   1_565 A
C1856  C1930   1.478   .     S
C1856  N1995   1.374   .     A
C1856  C509    1.435   1_556 S
C1857  H1937   1.084   .     S
C1857  C1868   1.374   .     A
C1857  C1876   1.391   .     A
C1858  C1875   1.391   .     A
C1858  C1869   1.374   .     A
C1858  H1948   1.084   .     S
C1859  C1866   1.374   .     A
C1859  C1875   1.391   .     A
C1859  H1959   1.084   .     S
C1860  C1877   1.393   .     S
C1860  O2005   1.289   .     A
C1860  O2006   1.289   .     A
C1861  C1867   1.374   .     A
C1861  C1876   1.391   .     A
C1861  H1970   1.084   .     S
C1862  C1878   1.390   .     A
C1862  H1981   1.084   .     S
C1862  C1873   1.373   .     A
C1863  H1989   1.084   .     S
C1863  C1877   1.390   .     A
C1863  C1874   1.373   .     A
C1864  C1877   1.391   .     A
C1864  H1990   1.084   .     S
C1864  C1870   1.373   .     A
C1865  C1878   1.391   .     A
C1865  C1872   1.373   .     A
C1865  H1991   1.084   .     S
C1866  C1880   1.391   .     A
C1866  H1992   1.084   .     S
C1867  C1879   1.391   .     A
C1867  H1938   1.084   .     S
C1868  H1939   1.084   .     S
C1868  C1879   1.391   .     A
C1869  C1880   1.391   .     A
C1869  H1940   1.084   .     S
C1870  C1883   1.390   .     A
C1870  H1941   1.084   .     S
C1871  O2011   1.290   .     A
C1871  O2008   1.290   .     A
C1871  C1876   1.395   .     S
C1872  H1942   1.084   .     S
C1872  C1881   1.390   .     A
C1873  H1943   1.084   .     S
C1873  C1881   1.391   .     A
C1874  H1944   1.084   .     S
C1874  C1883   1.391   .     A
C1875  C1882   1.395   .     S
C1879  C1926   1.395   .     S
C1880  C1915   1.395   .     S
C1881  C1904   1.393   .     S
C1882  O2009   1.290   .     A
C1882  O2010   1.290   .     A
C1883  C1893   1.393   .     S
C1884  C1936   1.478   .     S
C1884  C1885   1.405   .     A
C1884  C1721   1.404   1_655 S
C1885  H1945   1.083   .     S
C1885  C1886   1.397   .     A
C1886  H1946   1.082   .     S
C1886  C1887   1.397   .     A
C1887  H1947   1.082   .     S
C1887  C1720   1.397   1_655 S
C1888  H1949   1.082   .     S
C1888  C1889   1.398   .     A
C1889  H1950   1.083   .     S
C1890  C1896   1.405   .     A
C1891  C1892   1.398   .     A
C1891  H1951   1.083   .     S
C1891  C1722   1.404   1_655 S
C1892  H1952   1.082   .     S
C1892  C1726   1.397   1_655 S
C1893  O2012   1.289   .     A
C1893  O2000   1.289   .     A
C1894  H1953   1.082   .     S
C1894  C1895   1.397   .     A
C1895  C1896   1.397   .     A
C1895  H1954   1.082   .     S
C1896  H1955   1.083   .     S
C1897  C1898   1.405   .     A
C1898  H1956   1.083   .     S
C1898  C1899   1.397   .     A
C1899  H1957   1.082   .     S
C1899  C1900   1.397   .     A
C1900  H1958   1.082   .     S
C1901  C1902   1.398   .     A
C1901  H1960   1.082   .     S
C1901  C1732   1.397   1_655 S
C1902  H1961   1.083   .     S
C1902  C1729   1.404   1_655 S
C1903  C1909   1.405   .     A
C1903  C1737   1.404   1_655 S
C1904  O1999   1.289   .     A
C1904  O1998   1.289   .     A
C1905  H1962   1.083   .     S
C1905  C1906   1.398   .     A
C1906  H1963   1.082   .     S
C1907  H1964   1.082   .     S
C1907  C1908   1.397   .     A
C1907  C1738   1.397   1_655 S
C1908  H1965   1.082   .     S
C1908  C1909   1.397   .     A
C1909  H1966   1.083   .     S
C1910  C1911   1.405   .     A
C1910  C1916   1.404   .     A
C1911  C1912   1.397   .     A
C1911  H1967   1.083   .     S
C1912  H1968   1.082   .     S
C1912  C1913   1.397   .     A
C1913  H1969   1.082   .     S
C1913  C1914   1.397   .     A
C1914  C1916   1.398   .     A
C1914  H1971   1.082   .     S
C1915  O2001   1.290   .     A
C1915  O2004   1.290   .     A
C1916  H1972   1.083   .     S
C1917  C1922   1.405   .     A
C1917  C1918   1.404   .     A
C1918  C1919   1.398   .     A
C1918  H1973   1.083   .     S
C1919  H1974   1.082   .     S
C1919  C1920   1.397   .     A
C1920  H1975   1.082   .     S
C1920  C1921   1.397   .     A
C1921  C1922   1.397   .     A
C1921  H1976   1.082   .     S
C1922  H1977   1.083   .     S
C1923  C1924   1.405   .     A
C1923  C1929   1.404   .     A
C1924  H1978   1.083   .     S
C1924  C1925   1.397   .     A
C1925  H1979   1.082   .     S
C1925  C1927   1.397   .     A
C1926  O2003   1.290   .     A
C1926  O2002   1.290   .     A
C1927  H1980   1.082   .     S
C1927  C1928   1.397   .     A
C1928  C1929   1.398   .     A
C1928  H1982   1.082   .     S
C1929  H1983   1.083   .     S
C1930  C1931   1.404   .     A
C1930  C1935   1.405   .     A
C1931  C1932   1.398   .     A
C1931  H1984   1.083   .     S
C1932  C1933   1.397   .     A
C1932  H1985   1.082   .     S
C1933  C1934   1.397   .     A
C1933  H1986   1.082   .     S
C1934  C1935   1.397   .     A
C1934  H1987   1.082   .     S
C1935  H1988   1.083   .     S
C1936  N1826   1.374   1_655 A
N1993  Zn2013  2.043   .     S
N1994  Zn2014  2.043   .     S
N1995  Zn2015  2.043   .     S
N1996  Zn2016  2.043   .     S
O1997  Zn2013  1.965   .     S
O1998  Zn2016  1.965   .     S
O1999  Zn2015  1.965   .     S
O2000  Zn1680  1.965   1_565 S
O2001  Zn1680  1.968   1_565 S
O2002  Zn2015  1.968   .     S
O2003  Zn2016  1.968   .     S
O2004  Zn1679  1.968   1_565 S
O2005  Zn1846  1.965   1_655 S
O2006  Zn1845  1.965   1_655 S
O2007  Zn2014  1.965   .     S
O2008  Zn1846  1.968   1_655 S
O2009  Zn2013  1.968   .     S
O2010  Zn2014  1.968   .     S
O2011  Zn1845  1.968   1_655 S
O2012  Zn1679  1.965   1_565 S
