data_str_m3_o1_o16_pcu_sym.164
_audit_creation_date              2020-01-03
_audit_creation_method            'Materials Studio'
_symmetry_space_group_name_H-M    'P1'
_symmetry_Int_Tables_number       1
_symmetry_cell_setting            triclinic
loop_
_symmetry_equiv_pos_as_xyz
  x,y,z
_cell_length_a                    29.8519
_cell_length_b                    32.2628
_cell_length_c                    26.0438
_cell_angle_alpha                 91.4830
_cell_angle_beta                  68.7133
_cell_angle_gamma                 88.3443
loop_
_atom_site_label
_atom_site_type_symbol
_atom_site_fract_x
_atom_site_fract_y
_atom_site_fract_z
_atom_site_U_iso_or_equiv
_atom_site_adp_type
_atom_site_occupancy
C1     C     0.16660   0.24664   0.24830   0.00000  Uiso   1.00
C2     C     0.14453   0.16448   0.49403   0.00000  Uiso   1.00
C3     C     0.14927   0.14752   0.44131   0.00000  Uiso   1.00
C4     C     0.18171   0.15399   0.01435   0.00000  Uiso   1.00
C5     C     0.21495   0.12008   0.48986   0.00000  Uiso   1.00
C6     C     0.21308   0.09939   0.44313   0.00000  Uiso   1.00
C7     C     0.18103   0.11235   0.41881   0.00000  Uiso   1.00
C8     C     0.18675   0.17585   0.05879   0.00000  Uiso   1.00
C9     C     0.24356   0.12397   0.06592   0.00000  Uiso   1.00
C10    C     0.12048   0.16485   0.41390   0.00000  Uiso   1.00
C11    C     0.20979   0.31126   0.22523   0.00000  Uiso   1.00
C12    C     0.13938   0.16585   0.35289   0.00000  Uiso   1.00
C13    C     0.20925   0.02058   0.22881   0.00000  Uiso   1.00
C14    C     0.16591   0.04300   0.25436   0.00000  Uiso   1.00
C15    C     0.12204   0.02316   0.27745   0.00000  Uiso   1.00
C16    C     0.12172   0.31405   0.26953   0.00000  Uiso   1.00
C17    C     0.16591   0.29113   0.24664   0.00000  Uiso   1.00
C18    C     0.32248   0.14250   0.21234   0.00000  Uiso   1.00
C19    C     0.03637   0.14105   0.21422   0.00000  Uiso   1.00
C20    C     0.01121   0.19110   0.28721   0.00000  Uiso   1.00
C21    C     0.29678   0.18993   0.28851   0.00000  Uiso   1.00
C22    C     0.16644   0.08694   0.25186   0.00000  Uiso   1.00
C23    C     0.19388   0.16643   0.14754   0.00000  Uiso   1.00
C24    C     0.24707   0.10589   0.01532   0.00000  Uiso   1.00
C25    C     0.21201   0.15799   0.08840   0.00000  Uiso   1.00
C26    C     0.07704   0.18647   0.44508   0.00000  Uiso   1.00
C27    C     0.06728   0.19757   0.00039   0.00000  Uiso   1.00
C28    C     0.10111   0.18847   0.02478   0.00000  Uiso   1.00
H29    H     0.26365   0.11010   0.08879   0.00000  Uiso   1.00
H30    H     0.24275   0.03610   0.21039   0.00000  Uiso   1.00
H31    H     0.23526   0.07167   0.42578   0.00000  Uiso   1.00
H32    H     0.16853   0.20536   0.07397   0.00000  Uiso   1.00
N33    N     0.04760   0.16668   0.25001   0.00000  Uiso   1.00
N34    N     0.28573   0.16665   0.25001   0.00000  Uiso   1.00
O35    O     0.12846   0.22775   0.25001   0.00000  Uiso   1.00
O36    O     0.20490   0.22774   0.25001   0.00000  Uiso   1.00
O37    O     0.10947   0.16666   0.32681   0.00000  Uiso   1.00
O38    O     0.18591   0.16665   0.32681   0.00000  Uiso   1.00
O39    O     0.12843   0.10559   0.25000   0.00000  Uiso   1.00
O40    O     0.20488   0.10558   0.25000   0.00000  Uiso   1.00
O41    O     0.14742   0.16668   0.17319   0.00000  Uiso   1.00
O42    O     0.22387   0.16667   0.17319   0.00000  Uiso   1.00
Zn43   Zn    0.11562   0.16667   0.25000   0.00000  Uiso   1.00
Zn44   Zn    0.21771   0.16666   0.25000   0.00000  Uiso   1.00
N45    N     0.07735   0.04510   0.30881   0.00000  Uiso   1.00
H46    H     0.08254   0.06616   0.33712   0.00000  Uiso   1.00
H47    H     0.06386   0.06044   0.28234   0.00000  Uiso   1.00
N48    N     0.07677   0.29508   0.28153   0.00000  Uiso   1.00
H49    H     0.05078   0.30520   0.31853   0.00000  Uiso   1.00
C50    C     0.05943   0.29601   0.23626   0.00000  Uiso   1.00
H51    H     0.05244   0.32855   0.22732   0.00000  Uiso   1.00
H52    H     0.02536   0.27948   0.24701   0.00000  Uiso   1.00
H53    H     0.08621   0.28043   0.19861   0.00000  Uiso   1.00
N54    N     0.31456   0.11889   0.16951   0.00000  Uiso   1.00
H55    H     0.30631   0.13955   0.14380   0.00000  Uiso   1.00
H56    H     0.28607   0.09961   0.18684   0.00000  Uiso   1.00
N57    N     0.07210   0.11134   0.18020   0.00000  Uiso   1.00
H58    H     0.05982   0.08176   0.19193   0.00000  Uiso   1.00
H59    H     0.07511   0.11396   0.13923   0.00000  Uiso   1.00
N60    N     0.01948   0.21591   0.32897   0.00000  Uiso   1.00
H61    H     0.05585   0.21925   0.31938   0.00000  Uiso   1.00
H62    H     0.00457   0.24571   0.33000   0.00000  Uiso   1.00
N63    N     0.26049   0.21291   0.33264   0.00000  Uiso   1.00
H64    H     0.24137   0.19258   0.36257   0.00000  Uiso   1.00
H65    H     0.23818   0.23052   0.31821   0.00000  Uiso   1.00
N66    N     0.28151   0.07253   0.49245   0.00000  Uiso   1.00
H67    H     0.29838   0.07173   0.45017   0.00000  Uiso   1.00
C68    C     0.26622   0.03254   0.01479   0.00000  Uiso   1.00
H69    H     0.29616   0.00902   0.49673   0.00000  Uiso   1.00
H70    H     0.23488   0.02288   0.00463   0.00000  Uiso   1.00
H71    H     0.25630   0.03382   0.06028   0.00000  Uiso   1.00
N72    N     0.04120   0.19428   0.42224   0.00000  Uiso   1.00
H73    H     0.02320   0.22275   0.43423   0.00000  Uiso   1.00
C74    C     0.00863   0.16066   0.42954   0.00000  Uiso   1.00
H75    H     0.31383   0.16863   0.41254   0.00000  Uiso   1.00
H76    H     0.32394   0.15511   0.47408   0.00000  Uiso   1.00
H77    H     0.02859   0.13185   0.40784   0.00000  Uiso   1.00
N78    N     0.08556   0.19844   0.08284   0.00000  Uiso   1.00
H79    H     0.09577   0.17530   0.10392   0.00000  Uiso   1.00
H80    H     0.09693   0.22773   0.08954   0.00000  Uiso   1.00
N81    N     0.02192   0.21814   0.03215   0.00000  Uiso   1.00
H82    H     0.02847   0.24655   0.04779   0.00000  Uiso   1.00
H83    H     0.00371   0.19980   0.06526   0.00000  Uiso   1.00
N84    N     0.17664   0.08465   0.37709   0.00000  Uiso   1.00
H85    H     0.20519   0.08927   0.34037   0.00000  Uiso   1.00
H86    H     0.14365   0.08873   0.37223   0.00000  Uiso   1.00
N87    N     0.25465   0.28866   0.19750   0.00000  Uiso   1.00
H88    H     0.27810   0.29580   0.21778   0.00000  Uiso   1.00
H89    H     0.26948   0.29892   0.15725   0.00000  Uiso   1.00
C90    C     0.49993   0.24664   0.24830   0.00000  Uiso   1.00
C91    C     0.47787   0.16448   0.49403   0.00000  Uiso   1.00
C92    C     0.48260   0.14752   0.44131   0.00000  Uiso   1.00
C93    C     0.51505   0.15399   0.01435   0.00000  Uiso   1.00
C94    C     0.54828   0.12008   0.48986   0.00000  Uiso   1.00
C95    C     0.54641   0.09939   0.44313   0.00000  Uiso   1.00
C96    C     0.51437   0.11235   0.41881   0.00000  Uiso   1.00
C97    C     0.52008   0.17585   0.05879   0.00000  Uiso   1.00
C98    C     0.57689   0.12397   0.06592   0.00000  Uiso   1.00
C99    C     0.45381   0.16485   0.41390   0.00000  Uiso   1.00
C100   C     0.54312   0.31126   0.22523   0.00000  Uiso   1.00
C101   C     0.47272   0.16585   0.35289   0.00000  Uiso   1.00
C102   C     0.54258   0.02058   0.22881   0.00000  Uiso   1.00
C103   C     0.49925   0.04300   0.25436   0.00000  Uiso   1.00
C104   C     0.45537   0.02316   0.27745   0.00000  Uiso   1.00
C105   C     0.45505   0.31405   0.26953   0.00000  Uiso   1.00
C106   C     0.49925   0.29113   0.24664   0.00000  Uiso   1.00
C107   C     0.65582   0.14250   0.21234   0.00000  Uiso   1.00
C108   C     0.36971   0.14105   0.21422   0.00000  Uiso   1.00
C109   C     0.34454   0.19110   0.28721   0.00000  Uiso   1.00
C110   C     0.63011   0.18993   0.28851   0.00000  Uiso   1.00
C111   C     0.49978   0.08694   0.25186   0.00000  Uiso   1.00
C112   C     0.52721   0.16643   0.14754   0.00000  Uiso   1.00
C113   C     0.58040   0.10589   0.01532   0.00000  Uiso   1.00
C114   C     0.54534   0.15799   0.08840   0.00000  Uiso   1.00
C115   C     0.41038   0.18647   0.44508   0.00000  Uiso   1.00
C116   C     0.40061   0.19757   0.00039   0.00000  Uiso   1.00
C117   C     0.43444   0.18847   0.02478   0.00000  Uiso   1.00
H118   H     0.59699   0.11010   0.08879   0.00000  Uiso   1.00
H119   H     0.57608   0.03610   0.21039   0.00000  Uiso   1.00
H120   H     0.56860   0.07167   0.42578   0.00000  Uiso   1.00
H121   H     0.50186   0.20536   0.07397   0.00000  Uiso   1.00
N122   N     0.38093   0.16668   0.25001   0.00000  Uiso   1.00
N123   N     0.61906   0.16665   0.25001   0.00000  Uiso   1.00
O124   O     0.46179   0.22775   0.25001   0.00000  Uiso   1.00
O125   O     0.53823   0.22774   0.25001   0.00000  Uiso   1.00
O126   O     0.44280   0.16666   0.32681   0.00000  Uiso   1.00
O127   O     0.51924   0.16665   0.32681   0.00000  Uiso   1.00
O128   O     0.46177   0.10559   0.25000   0.00000  Uiso   1.00
O129   O     0.53821   0.10558   0.25000   0.00000  Uiso   1.00
O130   O     0.48076   0.16668   0.17319   0.00000  Uiso   1.00
O131   O     0.55720   0.16667   0.17319   0.00000  Uiso   1.00
Zn132  Zn    0.44896   0.16667   0.25000   0.00000  Uiso   1.00
Zn133  Zn    0.55104   0.16666   0.25000   0.00000  Uiso   1.00
N134   N     0.41068   0.04510   0.30881   0.00000  Uiso   1.00
H135   H     0.41587   0.06616   0.33712   0.00000  Uiso   1.00
H136   H     0.39719   0.06044   0.28234   0.00000  Uiso   1.00
N137   N     0.41011   0.29508   0.28153   0.00000  Uiso   1.00
H138   H     0.38412   0.30520   0.31853   0.00000  Uiso   1.00
C139   C     0.39276   0.29601   0.23626   0.00000  Uiso   1.00
H140   H     0.38577   0.32855   0.22732   0.00000  Uiso   1.00
H141   H     0.35869   0.27948   0.24701   0.00000  Uiso   1.00
H142   H     0.41955   0.28043   0.19861   0.00000  Uiso   1.00
N143   N     0.64789   0.11889   0.16951   0.00000  Uiso   1.00
H144   H     0.63964   0.13955   0.14380   0.00000  Uiso   1.00
H145   H     0.61940   0.09961   0.18684   0.00000  Uiso   1.00
N146   N     0.40543   0.11134   0.18020   0.00000  Uiso   1.00
H147   H     0.39316   0.08176   0.19193   0.00000  Uiso   1.00
H148   H     0.40844   0.11396   0.13923   0.00000  Uiso   1.00
N149   N     0.35281   0.21591   0.32897   0.00000  Uiso   1.00
H150   H     0.38919   0.21925   0.31938   0.00000  Uiso   1.00
H151   H     0.33790   0.24571   0.33000   0.00000  Uiso   1.00
N152   N     0.59382   0.21291   0.33264   0.00000  Uiso   1.00
H153   H     0.57470   0.19258   0.36257   0.00000  Uiso   1.00
H154   H     0.57152   0.23052   0.31821   0.00000  Uiso   1.00
N155   N     0.61485   0.07253   0.49245   0.00000  Uiso   1.00
H156   H     0.63172   0.07173   0.45017   0.00000  Uiso   1.00
C157   C     0.59955   0.03254   0.01479   0.00000  Uiso   1.00
H158   H     0.62949   0.00902   0.49673   0.00000  Uiso   1.00
H159   H     0.56821   0.02288   0.00463   0.00000  Uiso   1.00
H160   H     0.58963   0.03382   0.06028   0.00000  Uiso   1.00
N161   N     0.37453   0.19428   0.42224   0.00000  Uiso   1.00
H162   H     0.35654   0.22275   0.43423   0.00000  Uiso   1.00
C163   C     0.34197   0.16066   0.42954   0.00000  Uiso   1.00
H164   H     0.64716   0.16863   0.41254   0.00000  Uiso   1.00
H165   H     0.65728   0.15511   0.47408   0.00000  Uiso   1.00
H166   H     0.36192   0.13185   0.40784   0.00000  Uiso   1.00
N167   N     0.41890   0.19844   0.08284   0.00000  Uiso   1.00
H168   H     0.42911   0.17530   0.10392   0.00000  Uiso   1.00
H169   H     0.43026   0.22773   0.08954   0.00000  Uiso   1.00
N170   N     0.35525   0.21814   0.03215   0.00000  Uiso   1.00
H171   H     0.36181   0.24655   0.04779   0.00000  Uiso   1.00
H172   H     0.33704   0.19980   0.06526   0.00000  Uiso   1.00
N173   N     0.50998   0.08465   0.37709   0.00000  Uiso   1.00
H174   H     0.53852   0.08927   0.34037   0.00000  Uiso   1.00
H175   H     0.47699   0.08873   0.37223   0.00000  Uiso   1.00
N176   N     0.58798   0.28866   0.19750   0.00000  Uiso   1.00
H177   H     0.61143   0.29580   0.21778   0.00000  Uiso   1.00
H178   H     0.60281   0.29892   0.15725   0.00000  Uiso   1.00
C179   C     0.83327   0.24664   0.24830   0.00000  Uiso   1.00
C180   C     0.81120   0.16448   0.49403   0.00000  Uiso   1.00
C181   C     0.81593   0.14752   0.44131   0.00000  Uiso   1.00
C182   C     0.84838   0.15399   0.01435   0.00000  Uiso   1.00
C183   C     0.88161   0.12008   0.48986   0.00000  Uiso   1.00
C184   C     0.87974   0.09939   0.44313   0.00000  Uiso   1.00
C185   C     0.84770   0.11235   0.41881   0.00000  Uiso   1.00
C186   C     0.85341   0.17585   0.05879   0.00000  Uiso   1.00
C187   C     0.91023   0.12397   0.06592   0.00000  Uiso   1.00
C188   C     0.78714   0.16485   0.41390   0.00000  Uiso   1.00
C189   C     0.87645   0.31126   0.22523   0.00000  Uiso   1.00
C190   C     0.80605   0.16585   0.35289   0.00000  Uiso   1.00
C191   C     0.87591   0.02058   0.22881   0.00000  Uiso   1.00
C192   C     0.83258   0.04300   0.25436   0.00000  Uiso   1.00
C193   C     0.78871   0.02316   0.27745   0.00000  Uiso   1.00
C194   C     0.78839   0.31405   0.26953   0.00000  Uiso   1.00
C195   C     0.83258   0.29113   0.24664   0.00000  Uiso   1.00
C196   C     0.98915   0.14250   0.21234   0.00000  Uiso   1.00
C197   C     0.70304   0.14105   0.21422   0.00000  Uiso   1.00
C198   C     0.67788   0.19110   0.28721   0.00000  Uiso   1.00
C199   C     0.96344   0.18993   0.28851   0.00000  Uiso   1.00
C200   C     0.83311   0.08694   0.25186   0.00000  Uiso   1.00
C201   C     0.86054   0.16643   0.14754   0.00000  Uiso   1.00
C202   C     0.91373   0.10589   0.01532   0.00000  Uiso   1.00
C203   C     0.87868   0.15799   0.08840   0.00000  Uiso   1.00
C204   C     0.74371   0.18647   0.44508   0.00000  Uiso   1.00
C205   C     0.73395   0.19757   0.00039   0.00000  Uiso   1.00
C206   C     0.76777   0.18847   0.02478   0.00000  Uiso   1.00
H207   H     0.93032   0.11010   0.08879   0.00000  Uiso   1.00
H208   H     0.90941   0.03610   0.21039   0.00000  Uiso   1.00
H209   H     0.90193   0.07167   0.42578   0.00000  Uiso   1.00
H210   H     0.83520   0.20536   0.07397   0.00000  Uiso   1.00
N211   N     0.71426   0.16668   0.25001   0.00000  Uiso   1.00
N212   N     0.95239   0.16665   0.25001   0.00000  Uiso   1.00
O213   O     0.79512   0.22775   0.25001   0.00000  Uiso   1.00
O214   O     0.87157   0.22774   0.25001   0.00000  Uiso   1.00
O215   O     0.77613   0.16666   0.32681   0.00000  Uiso   1.00
O216   O     0.85258   0.16665   0.32681   0.00000  Uiso   1.00
O217   O     0.79510   0.10559   0.25000   0.00000  Uiso   1.00
O218   O     0.87154   0.10558   0.25000   0.00000  Uiso   1.00
O219   O     0.81409   0.16668   0.17319   0.00000  Uiso   1.00
O220   O     0.89053   0.16667   0.17319   0.00000  Uiso   1.00
Zn221  Zn    0.78229   0.16667   0.25000   0.00000  Uiso   1.00
Zn222  Zn    0.88438   0.16666   0.25000   0.00000  Uiso   1.00
N223   N     0.74401   0.04510   0.30881   0.00000  Uiso   1.00
H224   H     0.74921   0.06616   0.33712   0.00000  Uiso   1.00
H225   H     0.73052   0.06044   0.28234   0.00000  Uiso   1.00
N226   N     0.74344   0.29508   0.28153   0.00000  Uiso   1.00
H227   H     0.71745   0.30520   0.31853   0.00000  Uiso   1.00
C228   C     0.72609   0.29601   0.23626   0.00000  Uiso   1.00
H229   H     0.71910   0.32855   0.22732   0.00000  Uiso   1.00
H230   H     0.69202   0.27948   0.24701   0.00000  Uiso   1.00
H231   H     0.75288   0.28043   0.19861   0.00000  Uiso   1.00
N232   N     0.98122   0.11889   0.16951   0.00000  Uiso   1.00
H233   H     0.97297   0.13955   0.14380   0.00000  Uiso   1.00
H234   H     0.95273   0.09961   0.18684   0.00000  Uiso   1.00
N235   N     0.73876   0.11134   0.18020   0.00000  Uiso   1.00
H236   H     0.72649   0.08176   0.19193   0.00000  Uiso   1.00
H237   H     0.74178   0.11396   0.13923   0.00000  Uiso   1.00
N238   N     0.68614   0.21591   0.32897   0.00000  Uiso   1.00
H239   H     0.72252   0.21925   0.31938   0.00000  Uiso   1.00
H240   H     0.67124   0.24571   0.33000   0.00000  Uiso   1.00
N241   N     0.92716   0.21291   0.33264   0.00000  Uiso   1.00
H242   H     0.90803   0.19258   0.36257   0.00000  Uiso   1.00
H243   H     0.90485   0.23052   0.31821   0.00000  Uiso   1.00
N244   N     0.94818   0.07253   0.49245   0.00000  Uiso   1.00
H245   H     0.96505   0.07173   0.45017   0.00000  Uiso   1.00
C246   C     0.93289   0.03254   0.01479   0.00000  Uiso   1.00
H247   H     0.96282   0.00902   0.49673   0.00000  Uiso   1.00
H248   H     0.90154   0.02288   0.00463   0.00000  Uiso   1.00
H249   H     0.92296   0.03382   0.06028   0.00000  Uiso   1.00
N250   N     0.70787   0.19428   0.42224   0.00000  Uiso   1.00
H251   H     0.68987   0.22275   0.43423   0.00000  Uiso   1.00
C252   C     0.67530   0.16066   0.42954   0.00000  Uiso   1.00
H253   H     0.98049   0.16863   0.41254   0.00000  Uiso   1.00
H254   H     0.99061   0.15511   0.47408   0.00000  Uiso   1.00
H255   H     0.69526   0.13185   0.40784   0.00000  Uiso   1.00
N256   N     0.75223   0.19844   0.08284   0.00000  Uiso   1.00
H257   H     0.76244   0.17530   0.10392   0.00000  Uiso   1.00
H258   H     0.76359   0.22773   0.08954   0.00000  Uiso   1.00
N259   N     0.68859   0.21814   0.03215   0.00000  Uiso   1.00
H260   H     0.69514   0.24655   0.04779   0.00000  Uiso   1.00
H261   H     0.67038   0.19980   0.06526   0.00000  Uiso   1.00
N262   N     0.84331   0.08465   0.37709   0.00000  Uiso   1.00
H263   H     0.87185   0.08927   0.34037   0.00000  Uiso   1.00
H264   H     0.81032   0.08873   0.37223   0.00000  Uiso   1.00
N265   N     0.92131   0.28866   0.19750   0.00000  Uiso   1.00
H266   H     0.94477   0.29580   0.21778   0.00000  Uiso   1.00
H267   H     0.93615   0.29892   0.15725   0.00000  Uiso   1.00
C268   C     0.16660   0.57997   0.24830   0.00000  Uiso   1.00
C269   C     0.14453   0.49781   0.49403   0.00000  Uiso   1.00
C270   C     0.14927   0.48086   0.44131   0.00000  Uiso   1.00
C271   C     0.18171   0.48732   0.01435   0.00000  Uiso   1.00
C272   C     0.21495   0.45341   0.48986   0.00000  Uiso   1.00
C273   C     0.21308   0.43272   0.44313   0.00000  Uiso   1.00
C274   C     0.18103   0.44568   0.41881   0.00000  Uiso   1.00
C275   C     0.18675   0.50918   0.05879   0.00000  Uiso   1.00
C276   C     0.24356   0.45730   0.06592   0.00000  Uiso   1.00
C277   C     0.12048   0.49819   0.41390   0.00000  Uiso   1.00
C278   C     0.20979   0.64459   0.22523   0.00000  Uiso   1.00
C279   C     0.13938   0.49918   0.35289   0.00000  Uiso   1.00
C280   C     0.20925   0.35391   0.22881   0.00000  Uiso   1.00
C281   C     0.16591   0.37633   0.25436   0.00000  Uiso   1.00
C282   C     0.12204   0.35649   0.27745   0.00000  Uiso   1.00
C283   C     0.12172   0.64739   0.26953   0.00000  Uiso   1.00
C284   C     0.16591   0.62446   0.24664   0.00000  Uiso   1.00
C285   C     0.32248   0.47583   0.21234   0.00000  Uiso   1.00
C286   C     0.03637   0.47439   0.21422   0.00000  Uiso   1.00
C287   C     0.01121   0.52443   0.28721   0.00000  Uiso   1.00
C288   C     0.29678   0.52327   0.28851   0.00000  Uiso   1.00
C289   C     0.16644   0.42027   0.25186   0.00000  Uiso   1.00
C290   C     0.19388   0.49976   0.14754   0.00000  Uiso   1.00
C291   C     0.24707   0.43922   0.01532   0.00000  Uiso   1.00
C292   C     0.21201   0.49132   0.08840   0.00000  Uiso   1.00
C293   C     0.07704   0.51980   0.44508   0.00000  Uiso   1.00
C294   C     0.06728   0.53091   0.00039   0.00000  Uiso   1.00
C295   C     0.10111   0.52180   0.02478   0.00000  Uiso   1.00
H296   H     0.26365   0.44343   0.08879   0.00000  Uiso   1.00
H297   H     0.24275   0.36943   0.21039   0.00000  Uiso   1.00
H298   H     0.23526   0.40501   0.42578   0.00000  Uiso   1.00
H299   H     0.16853   0.53870   0.07397   0.00000  Uiso   1.00
N300   N     0.04760   0.50001   0.25001   0.00000  Uiso   1.00
N301   N     0.28573   0.49998   0.25001   0.00000  Uiso   1.00
O302   O     0.12846   0.56108   0.25001   0.00000  Uiso   1.00
O303   O     0.20490   0.56107   0.25001   0.00000  Uiso   1.00
O304   O     0.10947   0.50000   0.32681   0.00000  Uiso   1.00
O305   O     0.18591   0.49999   0.32681   0.00000  Uiso   1.00
O306   O     0.12843   0.43893   0.25000   0.00000  Uiso   1.00
O307   O     0.20488   0.43892   0.25000   0.00000  Uiso   1.00
O308   O     0.14742   0.50001   0.17319   0.00000  Uiso   1.00
O309   O     0.22387   0.50000   0.17319   0.00000  Uiso   1.00
Zn310  Zn    0.11562   0.50001   0.25000   0.00000  Uiso   1.00
Zn311  Zn    0.21771   0.49999   0.25000   0.00000  Uiso   1.00
N312   N     0.07735   0.37844   0.30881   0.00000  Uiso   1.00
H313   H     0.08254   0.39949   0.33712   0.00000  Uiso   1.00
H314   H     0.06386   0.39377   0.28234   0.00000  Uiso   1.00
N315   N     0.07677   0.62841   0.28153   0.00000  Uiso   1.00
H316   H     0.05078   0.63853   0.31853   0.00000  Uiso   1.00
C317   C     0.05943   0.62934   0.23626   0.00000  Uiso   1.00
H318   H     0.05244   0.66188   0.22732   0.00000  Uiso   1.00
H319   H     0.02536   0.61282   0.24701   0.00000  Uiso   1.00
H320   H     0.08621   0.61377   0.19861   0.00000  Uiso   1.00
N321   N     0.31456   0.45223   0.16951   0.00000  Uiso   1.00
H322   H     0.30631   0.47289   0.14380   0.00000  Uiso   1.00
H323   H     0.28607   0.43294   0.18684   0.00000  Uiso   1.00
N324   N     0.07210   0.44468   0.18020   0.00000  Uiso   1.00
H325   H     0.05982   0.41509   0.19193   0.00000  Uiso   1.00
H326   H     0.07511   0.44730   0.13923   0.00000  Uiso   1.00
N327   N     0.01948   0.54924   0.32897   0.00000  Uiso   1.00
H328   H     0.05585   0.55258   0.31938   0.00000  Uiso   1.00
H329   H     0.00457   0.57904   0.33000   0.00000  Uiso   1.00
N330   N     0.26049   0.54624   0.33264   0.00000  Uiso   1.00
H331   H     0.24137   0.52592   0.36257   0.00000  Uiso   1.00
H332   H     0.23818   0.56385   0.31821   0.00000  Uiso   1.00
N333   N     0.28151   0.40586   0.49245   0.00000  Uiso   1.00
H334   H     0.29838   0.40507   0.45017   0.00000  Uiso   1.00
C335   C     0.26622   0.36587   0.01479   0.00000  Uiso   1.00
H336   H     0.29616   0.34235   0.49673   0.00000  Uiso   1.00
H337   H     0.23488   0.35622   0.00463   0.00000  Uiso   1.00
H338   H     0.25630   0.36715   0.06028   0.00000  Uiso   1.00
N339   N     0.04120   0.52762   0.42224   0.00000  Uiso   1.00
H340   H     0.02320   0.55608   0.43423   0.00000  Uiso   1.00
C341   C     0.00863   0.49400   0.42954   0.00000  Uiso   1.00
H342   H     0.31383   0.50197   0.41254   0.00000  Uiso   1.00
H343   H     0.32394   0.48844   0.47408   0.00000  Uiso   1.00
H344   H     0.02859   0.46518   0.40784   0.00000  Uiso   1.00
N345   N     0.08556   0.53177   0.08284   0.00000  Uiso   1.00
H346   H     0.09577   0.50864   0.10392   0.00000  Uiso   1.00
H347   H     0.09693   0.56106   0.08954   0.00000  Uiso   1.00
N348   N     0.02192   0.55147   0.03215   0.00000  Uiso   1.00
H349   H     0.02847   0.57988   0.04779   0.00000  Uiso   1.00
H350   H     0.00371   0.53314   0.06526   0.00000  Uiso   1.00
N351   N     0.17664   0.41798   0.37709   0.00000  Uiso   1.00
H352   H     0.20519   0.42261   0.34037   0.00000  Uiso   1.00
H353   H     0.14365   0.42206   0.37223   0.00000  Uiso   1.00
N354   N     0.25465   0.62200   0.19750   0.00000  Uiso   1.00
H355   H     0.27810   0.62914   0.21778   0.00000  Uiso   1.00
H356   H     0.26948   0.63225   0.15725   0.00000  Uiso   1.00
C357   C     0.49993   0.57997   0.24830   0.00000  Uiso   1.00
C358   C     0.47787   0.49781   0.49403   0.00000  Uiso   1.00
C359   C     0.48260   0.48086   0.44131   0.00000  Uiso   1.00
C360   C     0.51505   0.48732   0.01435   0.00000  Uiso   1.00
C361   C     0.54828   0.45341   0.48986   0.00000  Uiso   1.00
C362   C     0.54641   0.43272   0.44313   0.00000  Uiso   1.00
C363   C     0.51437   0.44568   0.41881   0.00000  Uiso   1.00
C364   C     0.52008   0.50918   0.05879   0.00000  Uiso   1.00
C365   C     0.57689   0.45730   0.06592   0.00000  Uiso   1.00
C366   C     0.45381   0.49819   0.41390   0.00000  Uiso   1.00
C367   C     0.54312   0.64459   0.22523   0.00000  Uiso   1.00
C368   C     0.47272   0.49918   0.35289   0.00000  Uiso   1.00
C369   C     0.54258   0.35391   0.22881   0.00000  Uiso   1.00
C370   C     0.49925   0.37633   0.25436   0.00000  Uiso   1.00
C371   C     0.45537   0.35649   0.27745   0.00000  Uiso   1.00
C372   C     0.45505   0.64739   0.26953   0.00000  Uiso   1.00
C373   C     0.49925   0.62446   0.24664   0.00000  Uiso   1.00
C374   C     0.65582   0.47583   0.21234   0.00000  Uiso   1.00
C375   C     0.36971   0.47439   0.21422   0.00000  Uiso   1.00
C376   C     0.34454   0.52443   0.28721   0.00000  Uiso   1.00
C377   C     0.63011   0.52327   0.28851   0.00000  Uiso   1.00
C378   C     0.49978   0.42027   0.25186   0.00000  Uiso   1.00
C379   C     0.52721   0.49976   0.14754   0.00000  Uiso   1.00
C380   C     0.58040   0.43922   0.01532   0.00000  Uiso   1.00
C381   C     0.54534   0.49132   0.08840   0.00000  Uiso   1.00
C382   C     0.41038   0.51980   0.44508   0.00000  Uiso   1.00
C383   C     0.40061   0.53091   0.00039   0.00000  Uiso   1.00
C384   C     0.43444   0.52180   0.02478   0.00000  Uiso   1.00
H385   H     0.59699   0.44343   0.08879   0.00000  Uiso   1.00
H386   H     0.57608   0.36943   0.21039   0.00000  Uiso   1.00
H387   H     0.56860   0.40501   0.42578   0.00000  Uiso   1.00
H388   H     0.50186   0.53870   0.07397   0.00000  Uiso   1.00
N389   N     0.38093   0.50001   0.25001   0.00000  Uiso   1.00
N390   N     0.61906   0.49998   0.25001   0.00000  Uiso   1.00
O391   O     0.46179   0.56108   0.25001   0.00000  Uiso   1.00
O392   O     0.53823   0.56107   0.25001   0.00000  Uiso   1.00
O393   O     0.44280   0.50000   0.32681   0.00000  Uiso   1.00
O394   O     0.51924   0.49999   0.32681   0.00000  Uiso   1.00
O395   O     0.46177   0.43893   0.25000   0.00000  Uiso   1.00
O396   O     0.53821   0.43892   0.25000   0.00000  Uiso   1.00
O397   O     0.48076   0.50001   0.17319   0.00000  Uiso   1.00
O398   O     0.55720   0.50000   0.17319   0.00000  Uiso   1.00
Zn399  Zn    0.44896   0.50001   0.25000   0.00000  Uiso   1.00
Zn400  Zn    0.55104   0.49999   0.25000   0.00000  Uiso   1.00
N401   N     0.41068   0.37844   0.30881   0.00000  Uiso   1.00
H402   H     0.41587   0.39949   0.33712   0.00000  Uiso   1.00
H403   H     0.39719   0.39377   0.28234   0.00000  Uiso   1.00
N404   N     0.41011   0.62841   0.28153   0.00000  Uiso   1.00
H405   H     0.38412   0.63853   0.31853   0.00000  Uiso   1.00
C406   C     0.39276   0.62934   0.23626   0.00000  Uiso   1.00
H407   H     0.38577   0.66188   0.22732   0.00000  Uiso   1.00
H408   H     0.35869   0.61282   0.24701   0.00000  Uiso   1.00
H409   H     0.41955   0.61377   0.19861   0.00000  Uiso   1.00
N410   N     0.64789   0.45223   0.16951   0.00000  Uiso   1.00
H411   H     0.63964   0.47289   0.14380   0.00000  Uiso   1.00
H412   H     0.61940   0.43294   0.18684   0.00000  Uiso   1.00
N413   N     0.40543   0.44468   0.18020   0.00000  Uiso   1.00
H414   H     0.39316   0.41509   0.19193   0.00000  Uiso   1.00
H415   H     0.40844   0.44730   0.13923   0.00000  Uiso   1.00
N416   N     0.35281   0.54924   0.32897   0.00000  Uiso   1.00
H417   H     0.38919   0.55258   0.31938   0.00000  Uiso   1.00
H418   H     0.33790   0.57904   0.33000   0.00000  Uiso   1.00
N419   N     0.59382   0.54624   0.33264   0.00000  Uiso   1.00
H420   H     0.57470   0.52592   0.36257   0.00000  Uiso   1.00
H421   H     0.57152   0.56385   0.31821   0.00000  Uiso   1.00
N422   N     0.61485   0.40586   0.49245   0.00000  Uiso   1.00
H423   H     0.63172   0.40507   0.45017   0.00000  Uiso   1.00
C424   C     0.59955   0.36587   0.01479   0.00000  Uiso   1.00
H425   H     0.62949   0.34235   0.49673   0.00000  Uiso   1.00
H426   H     0.56821   0.35622   0.00463   0.00000  Uiso   1.00
H427   H     0.58963   0.36715   0.06028   0.00000  Uiso   1.00
N428   N     0.37453   0.52762   0.42224   0.00000  Uiso   1.00
H429   H     0.35654   0.55608   0.43423   0.00000  Uiso   1.00
C430   C     0.34197   0.49400   0.42954   0.00000  Uiso   1.00
H431   H     0.64716   0.50197   0.41254   0.00000  Uiso   1.00
H432   H     0.65728   0.48844   0.47408   0.00000  Uiso   1.00
H433   H     0.36192   0.46518   0.40784   0.00000  Uiso   1.00
N434   N     0.41890   0.53177   0.08284   0.00000  Uiso   1.00
H435   H     0.42911   0.50864   0.10392   0.00000  Uiso   1.00
H436   H     0.43026   0.56106   0.08954   0.00000  Uiso   1.00
N437   N     0.35525   0.55147   0.03215   0.00000  Uiso   1.00
H438   H     0.36181   0.57988   0.04779   0.00000  Uiso   1.00
H439   H     0.33704   0.53314   0.06526   0.00000  Uiso   1.00
N440   N     0.50998   0.41798   0.37709   0.00000  Uiso   1.00
H441   H     0.53852   0.42261   0.34037   0.00000  Uiso   1.00
H442   H     0.47699   0.42206   0.37223   0.00000  Uiso   1.00
N443   N     0.58798   0.62200   0.19750   0.00000  Uiso   1.00
H444   H     0.61143   0.62914   0.21778   0.00000  Uiso   1.00
H445   H     0.60281   0.63225   0.15725   0.00000  Uiso   1.00
C446   C     0.83327   0.57997   0.24830   0.00000  Uiso   1.00
C447   C     0.81120   0.49781   0.49403   0.00000  Uiso   1.00
C448   C     0.81593   0.48086   0.44131   0.00000  Uiso   1.00
C449   C     0.84838   0.48732   0.01435   0.00000  Uiso   1.00
C450   C     0.88161   0.45341   0.48986   0.00000  Uiso   1.00
C451   C     0.87974   0.43272   0.44313   0.00000  Uiso   1.00
C452   C     0.84770   0.44568   0.41881   0.00000  Uiso   1.00
C453   C     0.85341   0.50918   0.05879   0.00000  Uiso   1.00
C454   C     0.91023   0.45730   0.06592   0.00000  Uiso   1.00
C455   C     0.78714   0.49819   0.41390   0.00000  Uiso   1.00
C456   C     0.87645   0.64459   0.22523   0.00000  Uiso   1.00
C457   C     0.80605   0.49918   0.35289   0.00000  Uiso   1.00
C458   C     0.87591   0.35391   0.22881   0.00000  Uiso   1.00
C459   C     0.83258   0.37633   0.25436   0.00000  Uiso   1.00
C460   C     0.78871   0.35649   0.27745   0.00000  Uiso   1.00
C461   C     0.78839   0.64739   0.26953   0.00000  Uiso   1.00
C462   C     0.83258   0.62446   0.24664   0.00000  Uiso   1.00
C463   C     0.98915   0.47583   0.21234   0.00000  Uiso   1.00
C464   C     0.70304   0.47439   0.21422   0.00000  Uiso   1.00
C465   C     0.67788   0.52443   0.28721   0.00000  Uiso   1.00
C466   C     0.96344   0.52327   0.28851   0.00000  Uiso   1.00
C467   C     0.83311   0.42027   0.25186   0.00000  Uiso   1.00
C468   C     0.86054   0.49976   0.14754   0.00000  Uiso   1.00
C469   C     0.91373   0.43922   0.01532   0.00000  Uiso   1.00
C470   C     0.87868   0.49132   0.08840   0.00000  Uiso   1.00
C471   C     0.74371   0.51980   0.44508   0.00000  Uiso   1.00
C472   C     0.73395   0.53091   0.00039   0.00000  Uiso   1.00
C473   C     0.76777   0.52180   0.02478   0.00000  Uiso   1.00
H474   H     0.93032   0.44343   0.08879   0.00000  Uiso   1.00
H475   H     0.90941   0.36943   0.21039   0.00000  Uiso   1.00
H476   H     0.90193   0.40501   0.42578   0.00000  Uiso   1.00
H477   H     0.83520   0.53870   0.07397   0.00000  Uiso   1.00
N478   N     0.71426   0.50001   0.25001   0.00000  Uiso   1.00
N479   N     0.95239   0.49998   0.25001   0.00000  Uiso   1.00
O480   O     0.79512   0.56108   0.25001   0.00000  Uiso   1.00
O481   O     0.87157   0.56107   0.25001   0.00000  Uiso   1.00
O482   O     0.77613   0.50000   0.32681   0.00000  Uiso   1.00
O483   O     0.85258   0.49999   0.32681   0.00000  Uiso   1.00
O484   O     0.79510   0.43893   0.25000   0.00000  Uiso   1.00
O485   O     0.87154   0.43892   0.25000   0.00000  Uiso   1.00
O486   O     0.81409   0.50001   0.17319   0.00000  Uiso   1.00
O487   O     0.89053   0.50000   0.17319   0.00000  Uiso   1.00
Zn488  Zn    0.78229   0.50001   0.25000   0.00000  Uiso   1.00
Zn489  Zn    0.88438   0.49999   0.25000   0.00000  Uiso   1.00
N490   N     0.74401   0.37844   0.30881   0.00000  Uiso   1.00
H491   H     0.74921   0.39949   0.33712   0.00000  Uiso   1.00
H492   H     0.73052   0.39377   0.28234   0.00000  Uiso   1.00
N493   N     0.74344   0.62841   0.28153   0.00000  Uiso   1.00
H494   H     0.71745   0.63853   0.31853   0.00000  Uiso   1.00
C495   C     0.72609   0.62934   0.23626   0.00000  Uiso   1.00
H496   H     0.71910   0.66188   0.22732   0.00000  Uiso   1.00
H497   H     0.69202   0.61282   0.24701   0.00000  Uiso   1.00
H498   H     0.75288   0.61377   0.19861   0.00000  Uiso   1.00
N499   N     0.98122   0.45223   0.16951   0.00000  Uiso   1.00
H500   H     0.97297   0.47289   0.14380   0.00000  Uiso   1.00
H501   H     0.95273   0.43294   0.18684   0.00000  Uiso   1.00
N502   N     0.73876   0.44468   0.18020   0.00000  Uiso   1.00
H503   H     0.72649   0.41509   0.19193   0.00000  Uiso   1.00
H504   H     0.74178   0.44730   0.13923   0.00000  Uiso   1.00
N505   N     0.68614   0.54924   0.32897   0.00000  Uiso   1.00
H506   H     0.72252   0.55258   0.31938   0.00000  Uiso   1.00
H507   H     0.67124   0.57904   0.33000   0.00000  Uiso   1.00
N508   N     0.92716   0.54624   0.33264   0.00000  Uiso   1.00
H509   H     0.90803   0.52592   0.36257   0.00000  Uiso   1.00
H510   H     0.90485   0.56385   0.31821   0.00000  Uiso   1.00
N511   N     0.94818   0.40586   0.49245   0.00000  Uiso   1.00
H512   H     0.96505   0.40507   0.45017   0.00000  Uiso   1.00
C513   C     0.93289   0.36587   0.01479   0.00000  Uiso   1.00
H514   H     0.96282   0.34235   0.49673   0.00000  Uiso   1.00
H515   H     0.90154   0.35622   0.00463   0.00000  Uiso   1.00
H516   H     0.92296   0.36715   0.06028   0.00000  Uiso   1.00
N517   N     0.70787   0.52762   0.42224   0.00000  Uiso   1.00
H518   H     0.68987   0.55608   0.43423   0.00000  Uiso   1.00
C519   C     0.67530   0.49400   0.42954   0.00000  Uiso   1.00
H520   H     0.98049   0.50197   0.41254   0.00000  Uiso   1.00
H521   H     0.99061   0.48844   0.47408   0.00000  Uiso   1.00
H522   H     0.69526   0.46518   0.40784   0.00000  Uiso   1.00
N523   N     0.75223   0.53177   0.08284   0.00000  Uiso   1.00
H524   H     0.76244   0.50864   0.10392   0.00000  Uiso   1.00
H525   H     0.76359   0.56106   0.08954   0.00000  Uiso   1.00
N526   N     0.68859   0.55147   0.03215   0.00000  Uiso   1.00
H527   H     0.69514   0.57988   0.04779   0.00000  Uiso   1.00
H528   H     0.67038   0.53314   0.06526   0.00000  Uiso   1.00
N529   N     0.84331   0.41798   0.37709   0.00000  Uiso   1.00
H530   H     0.87185   0.42261   0.34037   0.00000  Uiso   1.00
H531   H     0.81032   0.42206   0.37223   0.00000  Uiso   1.00
N532   N     0.92131   0.62200   0.19750   0.00000  Uiso   1.00
H533   H     0.94477   0.62914   0.21778   0.00000  Uiso   1.00
H534   H     0.93615   0.63225   0.15725   0.00000  Uiso   1.00
C535   C     0.16660   0.91331   0.24830   0.00000  Uiso   1.00
C536   C     0.14453   0.83115   0.49403   0.00000  Uiso   1.00
C537   C     0.14927   0.81419   0.44131   0.00000  Uiso   1.00
C538   C     0.18171   0.82066   0.01435   0.00000  Uiso   1.00
C539   C     0.21495   0.78675   0.48986   0.00000  Uiso   1.00
C540   C     0.21308   0.76606   0.44313   0.00000  Uiso   1.00
C541   C     0.18103   0.77902   0.41881   0.00000  Uiso   1.00
C542   C     0.18675   0.84251   0.05879   0.00000  Uiso   1.00
C543   C     0.24356   0.79064   0.06592   0.00000  Uiso   1.00
C544   C     0.12048   0.83152   0.41390   0.00000  Uiso   1.00
C545   C     0.20979   0.97793   0.22523   0.00000  Uiso   1.00
C546   C     0.13938   0.83252   0.35289   0.00000  Uiso   1.00
C547   C     0.20925   0.68725   0.22881   0.00000  Uiso   1.00
C548   C     0.16591   0.70967   0.25436   0.00000  Uiso   1.00
C549   C     0.12204   0.68983   0.27745   0.00000  Uiso   1.00
C550   C     0.12172   0.98072   0.26953   0.00000  Uiso   1.00
C551   C     0.16591   0.95779   0.24664   0.00000  Uiso   1.00
C552   C     0.32248   0.80917   0.21234   0.00000  Uiso   1.00
C553   C     0.03637   0.80772   0.21422   0.00000  Uiso   1.00
C554   C     0.01121   0.85777   0.28721   0.00000  Uiso   1.00
C555   C     0.29678   0.85660   0.28851   0.00000  Uiso   1.00
C556   C     0.16644   0.75361   0.25186   0.00000  Uiso   1.00
C557   C     0.19388   0.83309   0.14754   0.00000  Uiso   1.00
C558   C     0.24707   0.77255   0.01532   0.00000  Uiso   1.00
C559   C     0.21201   0.82466   0.08840   0.00000  Uiso   1.00
C560   C     0.07704   0.85313   0.44508   0.00000  Uiso   1.00
C561   C     0.06728   0.86424   0.00039   0.00000  Uiso   1.00
C562   C     0.10111   0.85514   0.02478   0.00000  Uiso   1.00
H563   H     0.26365   0.77677   0.08879   0.00000  Uiso   1.00
H564   H     0.24275   0.70276   0.21039   0.00000  Uiso   1.00
H565   H     0.23526   0.73834   0.42578   0.00000  Uiso   1.00
H566   H     0.16853   0.87203   0.07397   0.00000  Uiso   1.00
N567   N     0.04760   0.83334   0.25001   0.00000  Uiso   1.00
N568   N     0.28573   0.83331   0.25001   0.00000  Uiso   1.00
O569   O     0.12846   0.89442   0.25001   0.00000  Uiso   1.00
O570   O     0.20490   0.89441   0.25001   0.00000  Uiso   1.00
O571   O     0.10947   0.83333   0.32681   0.00000  Uiso   1.00
O572   O     0.18591   0.83332   0.32681   0.00000  Uiso   1.00
O573   O     0.12843   0.77226   0.25000   0.00000  Uiso   1.00
O574   O     0.20488   0.77225   0.25000   0.00000  Uiso   1.00
O575   O     0.14742   0.83335   0.17319   0.00000  Uiso   1.00
O576   O     0.22387   0.83334   0.17319   0.00000  Uiso   1.00
Zn577  Zn    0.11562   0.83334   0.25000   0.00000  Uiso   1.00
Zn578  Zn    0.21771   0.83333   0.25000   0.00000  Uiso   1.00
N579   N     0.07735   0.71177   0.30881   0.00000  Uiso   1.00
H580   H     0.08254   0.73283   0.33712   0.00000  Uiso   1.00
H581   H     0.06386   0.72711   0.28234   0.00000  Uiso   1.00
N582   N     0.07677   0.96174   0.28153   0.00000  Uiso   1.00
H583   H     0.05078   0.97187   0.31853   0.00000  Uiso   1.00
C584   C     0.05943   0.96267   0.23626   0.00000  Uiso   1.00
H585   H     0.05244   0.99522   0.22732   0.00000  Uiso   1.00
H586   H     0.02536   0.94615   0.24701   0.00000  Uiso   1.00
H587   H     0.08621   0.94710   0.19861   0.00000  Uiso   1.00
N588   N     0.31456   0.78556   0.16951   0.00000  Uiso   1.00
H589   H     0.30631   0.80622   0.14380   0.00000  Uiso   1.00
H590   H     0.28607   0.76628   0.18684   0.00000  Uiso   1.00
N591   N     0.07210   0.77801   0.18020   0.00000  Uiso   1.00
H592   H     0.05982   0.74842   0.19193   0.00000  Uiso   1.00
H593   H     0.07511   0.78063   0.13923   0.00000  Uiso   1.00
N594   N     0.01948   0.88258   0.32897   0.00000  Uiso   1.00
H595   H     0.05585   0.88592   0.31938   0.00000  Uiso   1.00
H596   H     0.00457   0.91238   0.33000   0.00000  Uiso   1.00
N597   N     0.26049   0.87957   0.33264   0.00000  Uiso   1.00
H598   H     0.24137   0.85925   0.36257   0.00000  Uiso   1.00
H599   H     0.23818   0.89718   0.31821   0.00000  Uiso   1.00
N600   N     0.28151   0.73919   0.49245   0.00000  Uiso   1.00
H601   H     0.29838   0.73840   0.45017   0.00000  Uiso   1.00
C602   C     0.26622   0.69921   0.01479   0.00000  Uiso   1.00
H603   H     0.29616   0.67568   0.49673   0.00000  Uiso   1.00
H604   H     0.23488   0.68955   0.00463   0.00000  Uiso   1.00
H605   H     0.25630   0.70049   0.06028   0.00000  Uiso   1.00
N606   N     0.04120   0.86095   0.42224   0.00000  Uiso   1.00
H607   H     0.02320   0.88942   0.43423   0.00000  Uiso   1.00
C608   C     0.00863   0.82733   0.42954   0.00000  Uiso   1.00
H609   H     0.31383   0.83530   0.41254   0.00000  Uiso   1.00
H610   H     0.32394   0.82178   0.47408   0.00000  Uiso   1.00
H611   H     0.02859   0.79851   0.40784   0.00000  Uiso   1.00
N612   N     0.08556   0.86511   0.08284   0.00000  Uiso   1.00
H613   H     0.09577   0.84197   0.10392   0.00000  Uiso   1.00
H614   H     0.09693   0.89440   0.08954   0.00000  Uiso   1.00
N615   N     0.02192   0.88480   0.03215   0.00000  Uiso   1.00
H616   H     0.02847   0.91321   0.04779   0.00000  Uiso   1.00
H617   H     0.00371   0.86647   0.06526   0.00000  Uiso   1.00
N618   N     0.17664   0.75131   0.37709   0.00000  Uiso   1.00
H619   H     0.20519   0.75594   0.34037   0.00000  Uiso   1.00
H620   H     0.14365   0.75540   0.37223   0.00000  Uiso   1.00
N621   N     0.25465   0.95533   0.19750   0.00000  Uiso   1.00
H622   H     0.27810   0.96247   0.21778   0.00000  Uiso   1.00
H623   H     0.26948   0.96559   0.15725   0.00000  Uiso   1.00
C624   C     0.49993   0.91331   0.24830   0.00000  Uiso   1.00
C625   C     0.47787   0.83115   0.49403   0.00000  Uiso   1.00
C626   C     0.48260   0.81419   0.44131   0.00000  Uiso   1.00
C627   C     0.51505   0.82066   0.01435   0.00000  Uiso   1.00
C628   C     0.54828   0.78675   0.48986   0.00000  Uiso   1.00
C629   C     0.54641   0.76606   0.44313   0.00000  Uiso   1.00
C630   C     0.51437   0.77902   0.41881   0.00000  Uiso   1.00
C631   C     0.52008   0.84251   0.05879   0.00000  Uiso   1.00
C632   C     0.57689   0.79064   0.06592   0.00000  Uiso   1.00
C633   C     0.45381   0.83152   0.41390   0.00000  Uiso   1.00
C634   C     0.54312   0.97793   0.22523   0.00000  Uiso   1.00
C635   C     0.47272   0.83252   0.35289   0.00000  Uiso   1.00
C636   C     0.54258   0.68725   0.22881   0.00000  Uiso   1.00
C637   C     0.49925   0.70967   0.25436   0.00000  Uiso   1.00
C638   C     0.45537   0.68983   0.27745   0.00000  Uiso   1.00
C639   C     0.45505   0.98072   0.26953   0.00000  Uiso   1.00
C640   C     0.49925   0.95779   0.24664   0.00000  Uiso   1.00
C641   C     0.65582   0.80917   0.21234   0.00000  Uiso   1.00
C642   C     0.36971   0.80772   0.21422   0.00000  Uiso   1.00
C643   C     0.34454   0.85777   0.28721   0.00000  Uiso   1.00
C644   C     0.63011   0.85660   0.28851   0.00000  Uiso   1.00
C645   C     0.49978   0.75361   0.25186   0.00000  Uiso   1.00
C646   C     0.52721   0.83309   0.14754   0.00000  Uiso   1.00
C647   C     0.58040   0.77255   0.01532   0.00000  Uiso   1.00
C648   C     0.54534   0.82466   0.08840   0.00000  Uiso   1.00
C649   C     0.41038   0.85313   0.44508   0.00000  Uiso   1.00
C650   C     0.40061   0.86424   0.00039   0.00000  Uiso   1.00
C651   C     0.43444   0.85514   0.02478   0.00000  Uiso   1.00
H652   H     0.59699   0.77677   0.08879   0.00000  Uiso   1.00
H653   H     0.57608   0.70276   0.21039   0.00000  Uiso   1.00
H654   H     0.56860   0.73834   0.42578   0.00000  Uiso   1.00
H655   H     0.50186   0.87203   0.07397   0.00000  Uiso   1.00
N656   N     0.38093   0.83334   0.25001   0.00000  Uiso   1.00
N657   N     0.61906   0.83331   0.25001   0.00000  Uiso   1.00
O658   O     0.46179   0.89442   0.25001   0.00000  Uiso   1.00
O659   O     0.53823   0.89441   0.25001   0.00000  Uiso   1.00
O660   O     0.44280   0.83333   0.32681   0.00000  Uiso   1.00
O661   O     0.51924   0.83332   0.32681   0.00000  Uiso   1.00
O662   O     0.46177   0.77226   0.25000   0.00000  Uiso   1.00
O663   O     0.53821   0.77225   0.25000   0.00000  Uiso   1.00
O664   O     0.48076   0.83335   0.17319   0.00000  Uiso   1.00
O665   O     0.55720   0.83334   0.17319   0.00000  Uiso   1.00
Zn666  Zn    0.44896   0.83334   0.25000   0.00000  Uiso   1.00
Zn667  Zn    0.55104   0.83333   0.25000   0.00000  Uiso   1.00
N668   N     0.41068   0.71177   0.30881   0.00000  Uiso   1.00
H669   H     0.41587   0.73283   0.33712   0.00000  Uiso   1.00
H670   H     0.39719   0.72711   0.28234   0.00000  Uiso   1.00
N671   N     0.41011   0.96174   0.28153   0.00000  Uiso   1.00
H672   H     0.38412   0.97187   0.31853   0.00000  Uiso   1.00
C673   C     0.39276   0.96267   0.23626   0.00000  Uiso   1.00
H674   H     0.38577   0.99522   0.22732   0.00000  Uiso   1.00
H675   H     0.35869   0.94615   0.24701   0.00000  Uiso   1.00
H676   H     0.41955   0.94710   0.19861   0.00000  Uiso   1.00
N677   N     0.64789   0.78556   0.16951   0.00000  Uiso   1.00
H678   H     0.63964   0.80622   0.14380   0.00000  Uiso   1.00
H679   H     0.61940   0.76628   0.18684   0.00000  Uiso   1.00
N680   N     0.40543   0.77801   0.18020   0.00000  Uiso   1.00
H681   H     0.39316   0.74842   0.19193   0.00000  Uiso   1.00
H682   H     0.40844   0.78063   0.13923   0.00000  Uiso   1.00
N683   N     0.35281   0.88258   0.32897   0.00000  Uiso   1.00
H684   H     0.38919   0.88592   0.31938   0.00000  Uiso   1.00
H685   H     0.33790   0.91238   0.33000   0.00000  Uiso   1.00
N686   N     0.59382   0.87957   0.33264   0.00000  Uiso   1.00
H687   H     0.57470   0.85925   0.36257   0.00000  Uiso   1.00
H688   H     0.57152   0.89718   0.31821   0.00000  Uiso   1.00
N689   N     0.61485   0.73919   0.49245   0.00000  Uiso   1.00
H690   H     0.63172   0.73840   0.45017   0.00000  Uiso   1.00
C691   C     0.59955   0.69921   0.01479   0.00000  Uiso   1.00
H692   H     0.62949   0.67568   0.49673   0.00000  Uiso   1.00
H693   H     0.56821   0.68955   0.00463   0.00000  Uiso   1.00
H694   H     0.58963   0.70049   0.06028   0.00000  Uiso   1.00
N695   N     0.37453   0.86095   0.42224   0.00000  Uiso   1.00
H696   H     0.35654   0.88942   0.43423   0.00000  Uiso   1.00
C697   C     0.34197   0.82733   0.42954   0.00000  Uiso   1.00
H698   H     0.64716   0.83530   0.41254   0.00000  Uiso   1.00
H699   H     0.65728   0.82178   0.47408   0.00000  Uiso   1.00
H700   H     0.36192   0.79851   0.40784   0.00000  Uiso   1.00
N701   N     0.41890   0.86511   0.08284   0.00000  Uiso   1.00
H702   H     0.42911   0.84197   0.10392   0.00000  Uiso   1.00
H703   H     0.43026   0.89440   0.08954   0.00000  Uiso   1.00
N704   N     0.35525   0.88480   0.03215   0.00000  Uiso   1.00
H705   H     0.36181   0.91321   0.04779   0.00000  Uiso   1.00
H706   H     0.33704   0.86647   0.06526   0.00000  Uiso   1.00
N707   N     0.50998   0.75131   0.37709   0.00000  Uiso   1.00
H708   H     0.53852   0.75594   0.34037   0.00000  Uiso   1.00
H709   H     0.47699   0.75540   0.37223   0.00000  Uiso   1.00
N710   N     0.58798   0.95533   0.19750   0.00000  Uiso   1.00
H711   H     0.61143   0.96247   0.21778   0.00000  Uiso   1.00
H712   H     0.60281   0.96559   0.15725   0.00000  Uiso   1.00
C713   C     0.83327   0.91331   0.24830   0.00000  Uiso   1.00
C714   C     0.81120   0.83115   0.49403   0.00000  Uiso   1.00
C715   C     0.81593   0.81419   0.44131   0.00000  Uiso   1.00
C716   C     0.84838   0.82066   0.01435   0.00000  Uiso   1.00
C717   C     0.88161   0.78675   0.48986   0.00000  Uiso   1.00
C718   C     0.87974   0.76606   0.44313   0.00000  Uiso   1.00
C719   C     0.84770   0.77902   0.41881   0.00000  Uiso   1.00
C720   C     0.85341   0.84251   0.05879   0.00000  Uiso   1.00
C721   C     0.91023   0.79064   0.06592   0.00000  Uiso   1.00
C722   C     0.78714   0.83152   0.41390   0.00000  Uiso   1.00
C723   C     0.87645   0.97793   0.22523   0.00000  Uiso   1.00
C724   C     0.80605   0.83252   0.35289   0.00000  Uiso   1.00
C725   C     0.87591   0.68725   0.22881   0.00000  Uiso   1.00
C726   C     0.83258   0.70967   0.25436   0.00000  Uiso   1.00
C727   C     0.78871   0.68983   0.27745   0.00000  Uiso   1.00
C728   C     0.78839   0.98072   0.26953   0.00000  Uiso   1.00
C729   C     0.83258   0.95779   0.24664   0.00000  Uiso   1.00
C730   C     0.98915   0.80917   0.21234   0.00000  Uiso   1.00
C731   C     0.70304   0.80772   0.21422   0.00000  Uiso   1.00
C732   C     0.67788   0.85777   0.28721   0.00000  Uiso   1.00
C733   C     0.96344   0.85660   0.28851   0.00000  Uiso   1.00
C734   C     0.83311   0.75361   0.25186   0.00000  Uiso   1.00
C735   C     0.86054   0.83309   0.14754   0.00000  Uiso   1.00
C736   C     0.91373   0.77255   0.01532   0.00000  Uiso   1.00
C737   C     0.87868   0.82466   0.08840   0.00000  Uiso   1.00
C738   C     0.74371   0.85313   0.44508   0.00000  Uiso   1.00
C739   C     0.73395   0.86424   0.00039   0.00000  Uiso   1.00
C740   C     0.76777   0.85514   0.02478   0.00000  Uiso   1.00
H741   H     0.93032   0.77677   0.08879   0.00000  Uiso   1.00
H742   H     0.90941   0.70276   0.21039   0.00000  Uiso   1.00
H743   H     0.90193   0.73834   0.42578   0.00000  Uiso   1.00
H744   H     0.83520   0.87203   0.07397   0.00000  Uiso   1.00
N745   N     0.71426   0.83334   0.25001   0.00000  Uiso   1.00
N746   N     0.95239   0.83331   0.25001   0.00000  Uiso   1.00
O747   O     0.79512   0.89442   0.25001   0.00000  Uiso   1.00
O748   O     0.87157   0.89441   0.25001   0.00000  Uiso   1.00
O749   O     0.77613   0.83333   0.32681   0.00000  Uiso   1.00
O750   O     0.85258   0.83332   0.32681   0.00000  Uiso   1.00
O751   O     0.79510   0.77226   0.25000   0.00000  Uiso   1.00
O752   O     0.87154   0.77225   0.25000   0.00000  Uiso   1.00
O753   O     0.81409   0.83335   0.17319   0.00000  Uiso   1.00
O754   O     0.89053   0.83334   0.17319   0.00000  Uiso   1.00
Zn755  Zn    0.78229   0.83334   0.25000   0.00000  Uiso   1.00
Zn756  Zn    0.88438   0.83333   0.25000   0.00000  Uiso   1.00
N757   N     0.74401   0.71177   0.30881   0.00000  Uiso   1.00
H758   H     0.74921   0.73283   0.33712   0.00000  Uiso   1.00
H759   H     0.73052   0.72711   0.28234   0.00000  Uiso   1.00
N760   N     0.74344   0.96174   0.28153   0.00000  Uiso   1.00
H761   H     0.71745   0.97187   0.31853   0.00000  Uiso   1.00
C762   C     0.72609   0.96267   0.23626   0.00000  Uiso   1.00
H763   H     0.71910   0.99522   0.22732   0.00000  Uiso   1.00
H764   H     0.69202   0.94615   0.24701   0.00000  Uiso   1.00
H765   H     0.75288   0.94710   0.19861   0.00000  Uiso   1.00
N766   N     0.98122   0.78556   0.16951   0.00000  Uiso   1.00
H767   H     0.97297   0.80622   0.14380   0.00000  Uiso   1.00
H768   H     0.95273   0.76628   0.18684   0.00000  Uiso   1.00
N769   N     0.73876   0.77801   0.18020   0.00000  Uiso   1.00
H770   H     0.72649   0.74842   0.19193   0.00000  Uiso   1.00
H771   H     0.74178   0.78063   0.13923   0.00000  Uiso   1.00
N772   N     0.68614   0.88258   0.32897   0.00000  Uiso   1.00
H773   H     0.72252   0.88592   0.31938   0.00000  Uiso   1.00
H774   H     0.67124   0.91238   0.33000   0.00000  Uiso   1.00
N775   N     0.92716   0.87957   0.33264   0.00000  Uiso   1.00
H776   H     0.90803   0.85925   0.36257   0.00000  Uiso   1.00
H777   H     0.90485   0.89718   0.31821   0.00000  Uiso   1.00
N778   N     0.94818   0.73919   0.49245   0.00000  Uiso   1.00
H779   H     0.96505   0.73840   0.45017   0.00000  Uiso   1.00
C780   C     0.93289   0.69921   0.01479   0.00000  Uiso   1.00
H781   H     0.96282   0.67568   0.49673   0.00000  Uiso   1.00
H782   H     0.90154   0.68955   0.00463   0.00000  Uiso   1.00
H783   H     0.92296   0.70049   0.06028   0.00000  Uiso   1.00
N784   N     0.70787   0.86095   0.42224   0.00000  Uiso   1.00
H785   H     0.68987   0.88942   0.43423   0.00000  Uiso   1.00
C786   C     0.67530   0.82733   0.42954   0.00000  Uiso   1.00
H787   H     0.98049   0.83530   0.41254   0.00000  Uiso   1.00
H788   H     0.99061   0.82178   0.47408   0.00000  Uiso   1.00
H789   H     0.69526   0.79851   0.40784   0.00000  Uiso   1.00
N790   N     0.75223   0.86511   0.08284   0.00000  Uiso   1.00
H791   H     0.76244   0.84197   0.10392   0.00000  Uiso   1.00
H792   H     0.76359   0.89440   0.08954   0.00000  Uiso   1.00
N793   N     0.68859   0.88480   0.03215   0.00000  Uiso   1.00
H794   H     0.69514   0.91321   0.04779   0.00000  Uiso   1.00
H795   H     0.67038   0.86647   0.06526   0.00000  Uiso   1.00
N796   N     0.84331   0.75131   0.37709   0.00000  Uiso   1.00
H797   H     0.87185   0.75594   0.34037   0.00000  Uiso   1.00
H798   H     0.81032   0.75540   0.37223   0.00000  Uiso   1.00
N799   N     0.92131   0.95533   0.19750   0.00000  Uiso   1.00
H800   H     0.94477   0.96247   0.21778   0.00000  Uiso   1.00
H801   H     0.93615   0.96559   0.15725   0.00000  Uiso   1.00
C802   C     0.16660   0.24664   0.74830   0.00000  Uiso   1.00
C803   C     0.14453   0.16448   0.99403   0.00000  Uiso   1.00
C804   C     0.14927   0.14752   0.94131   0.00000  Uiso   1.00
C805   C     0.18171   0.15399   0.51435   0.00000  Uiso   1.00
C806   C     0.21495   0.12008   0.98986   0.00000  Uiso   1.00
C807   C     0.21308   0.09939   0.94313   0.00000  Uiso   1.00
C808   C     0.18103   0.11235   0.91881   0.00000  Uiso   1.00
C809   C     0.18675   0.17585   0.55879   0.00000  Uiso   1.00
C810   C     0.24356   0.12397   0.56592   0.00000  Uiso   1.00
C811   C     0.12048   0.16485   0.91390   0.00000  Uiso   1.00
C812   C     0.20979   0.31126   0.72523   0.00000  Uiso   1.00
C813   C     0.13938   0.16585   0.85289   0.00000  Uiso   1.00
C814   C     0.20925   0.02058   0.72881   0.00000  Uiso   1.00
C815   C     0.16591   0.04300   0.75436   0.00000  Uiso   1.00
C816   C     0.12204   0.02316   0.77745   0.00000  Uiso   1.00
C817   C     0.12172   0.31405   0.76953   0.00000  Uiso   1.00
C818   C     0.16591   0.29113   0.74664   0.00000  Uiso   1.00
C819   C     0.32248   0.14250   0.71234   0.00000  Uiso   1.00
C820   C     0.03637   0.14105   0.71422   0.00000  Uiso   1.00
C821   C     0.01121   0.19110   0.78721   0.00000  Uiso   1.00
C822   C     0.29678   0.18993   0.78851   0.00000  Uiso   1.00
C823   C     0.16644   0.08694   0.75186   0.00000  Uiso   1.00
C824   C     0.19388   0.16643   0.64754   0.00000  Uiso   1.00
C825   C     0.24707   0.10589   0.51532   0.00000  Uiso   1.00
C826   C     0.21201   0.15799   0.58840   0.00000  Uiso   1.00
C827   C     0.07704   0.18647   0.94508   0.00000  Uiso   1.00
C828   C     0.06728   0.19757   0.50039   0.00000  Uiso   1.00
C829   C     0.10111   0.18847   0.52478   0.00000  Uiso   1.00
H830   H     0.26365   0.11010   0.58879   0.00000  Uiso   1.00
H831   H     0.24275   0.03610   0.71039   0.00000  Uiso   1.00
H832   H     0.23526   0.07167   0.92578   0.00000  Uiso   1.00
H833   H     0.16853   0.20536   0.57397   0.00000  Uiso   1.00
N834   N     0.04760   0.16668   0.75001   0.00000  Uiso   1.00
N835   N     0.28573   0.16665   0.75001   0.00000  Uiso   1.00
O836   O     0.12846   0.22775   0.75001   0.00000  Uiso   1.00
O837   O     0.20490   0.22774   0.75001   0.00000  Uiso   1.00
O838   O     0.10947   0.16666   0.82681   0.00000  Uiso   1.00
O839   O     0.18591   0.16665   0.82681   0.00000  Uiso   1.00
O840   O     0.12843   0.10559   0.75000   0.00000  Uiso   1.00
O841   O     0.20488   0.10558   0.75000   0.00000  Uiso   1.00
O842   O     0.14742   0.16668   0.67319   0.00000  Uiso   1.00
O843   O     0.22387   0.16667   0.67319   0.00000  Uiso   1.00
Zn844  Zn    0.11562   0.16667   0.75000   0.00000  Uiso   1.00
Zn845  Zn    0.21771   0.16666   0.75000   0.00000  Uiso   1.00
N846   N     0.07735   0.04510   0.80881   0.00000  Uiso   1.00
H847   H     0.08254   0.06616   0.83712   0.00000  Uiso   1.00
H848   H     0.06386   0.06044   0.78234   0.00000  Uiso   1.00
N849   N     0.07677   0.29508   0.78153   0.00000  Uiso   1.00
H850   H     0.05078   0.30520   0.81853   0.00000  Uiso   1.00
C851   C     0.05943   0.29601   0.73626   0.00000  Uiso   1.00
H852   H     0.05244   0.32855   0.72732   0.00000  Uiso   1.00
H853   H     0.02536   0.27948   0.74701   0.00000  Uiso   1.00
H854   H     0.08621   0.28043   0.69861   0.00000  Uiso   1.00
N855   N     0.31456   0.11889   0.66951   0.00000  Uiso   1.00
H856   H     0.30631   0.13955   0.64380   0.00000  Uiso   1.00
H857   H     0.28607   0.09961   0.68684   0.00000  Uiso   1.00
N858   N     0.07210   0.11134   0.68020   0.00000  Uiso   1.00
H859   H     0.05982   0.08176   0.69193   0.00000  Uiso   1.00
H860   H     0.07511   0.11396   0.63923   0.00000  Uiso   1.00
N861   N     0.01948   0.21591   0.82897   0.00000  Uiso   1.00
H862   H     0.05585   0.21925   0.81938   0.00000  Uiso   1.00
H863   H     0.00457   0.24571   0.83000   0.00000  Uiso   1.00
N864   N     0.26049   0.21291   0.83264   0.00000  Uiso   1.00
H865   H     0.24137   0.19258   0.86257   0.00000  Uiso   1.00
H866   H     0.23818   0.23052   0.81821   0.00000  Uiso   1.00
N867   N     0.28151   0.07253   0.99245   0.00000  Uiso   1.00
H868   H     0.29838   0.07173   0.95017   0.00000  Uiso   1.00
C869   C     0.26622   0.03254   0.51479   0.00000  Uiso   1.00
H870   H     0.29616   0.00902   0.99673   0.00000  Uiso   1.00
H871   H     0.23488   0.02288   0.50463   0.00000  Uiso   1.00
H872   H     0.25630   0.03382   0.56028   0.00000  Uiso   1.00
N873   N     0.04120   0.19428   0.92224   0.00000  Uiso   1.00
H874   H     0.02320   0.22275   0.93423   0.00000  Uiso   1.00
C875   C     0.00863   0.16066   0.92954   0.00000  Uiso   1.00
H876   H     0.31383   0.16863   0.91254   0.00000  Uiso   1.00
H877   H     0.32394   0.15511   0.97408   0.00000  Uiso   1.00
H878   H     0.02859   0.13185   0.90784   0.00000  Uiso   1.00
N879   N     0.08556   0.19844   0.58284   0.00000  Uiso   1.00
H880   H     0.09577   0.17530   0.60392   0.00000  Uiso   1.00
H881   H     0.09693   0.22773   0.58954   0.00000  Uiso   1.00
N882   N     0.02192   0.21814   0.53215   0.00000  Uiso   1.00
H883   H     0.02847   0.24655   0.54779   0.00000  Uiso   1.00
H884   H     0.00371   0.19980   0.56526   0.00000  Uiso   1.00
N885   N     0.17664   0.08465   0.87709   0.00000  Uiso   1.00
H886   H     0.20519   0.08927   0.84037   0.00000  Uiso   1.00
H887   H     0.14365   0.08873   0.87223   0.00000  Uiso   1.00
N888   N     0.25465   0.28866   0.69750   0.00000  Uiso   1.00
H889   H     0.27810   0.29580   0.71778   0.00000  Uiso   1.00
H890   H     0.26948   0.29892   0.65725   0.00000  Uiso   1.00
C891   C     0.49993   0.24664   0.74830   0.00000  Uiso   1.00
C892   C     0.47787   0.16448   0.99403   0.00000  Uiso   1.00
C893   C     0.48260   0.14752   0.94131   0.00000  Uiso   1.00
C894   C     0.51505   0.15399   0.51435   0.00000  Uiso   1.00
C895   C     0.54828   0.12008   0.98986   0.00000  Uiso   1.00
C896   C     0.54641   0.09939   0.94313   0.00000  Uiso   1.00
C897   C     0.51437   0.11235   0.91881   0.00000  Uiso   1.00
C898   C     0.52008   0.17585   0.55879   0.00000  Uiso   1.00
C899   C     0.57689   0.12397   0.56592   0.00000  Uiso   1.00
C900   C     0.45381   0.16485   0.91390   0.00000  Uiso   1.00
C901   C     0.54312   0.31126   0.72523   0.00000  Uiso   1.00
C902   C     0.47272   0.16585   0.85289   0.00000  Uiso   1.00
C903   C     0.54258   0.02058   0.72881   0.00000  Uiso   1.00
C904   C     0.49925   0.04300   0.75436   0.00000  Uiso   1.00
C905   C     0.45537   0.02316   0.77745   0.00000  Uiso   1.00
C906   C     0.45505   0.31405   0.76953   0.00000  Uiso   1.00
C907   C     0.49925   0.29113   0.74664   0.00000  Uiso   1.00
C908   C     0.65582   0.14250   0.71234   0.00000  Uiso   1.00
C909   C     0.36971   0.14105   0.71422   0.00000  Uiso   1.00
C910   C     0.34454   0.19110   0.78721   0.00000  Uiso   1.00
C911   C     0.63011   0.18993   0.78851   0.00000  Uiso   1.00
C912   C     0.49978   0.08694   0.75186   0.00000  Uiso   1.00
C913   C     0.52721   0.16643   0.64754   0.00000  Uiso   1.00
C914   C     0.58040   0.10589   0.51532   0.00000  Uiso   1.00
C915   C     0.54534   0.15799   0.58840   0.00000  Uiso   1.00
C916   C     0.41038   0.18647   0.94508   0.00000  Uiso   1.00
C917   C     0.40061   0.19757   0.50039   0.00000  Uiso   1.00
C918   C     0.43444   0.18847   0.52478   0.00000  Uiso   1.00
H919   H     0.59699   0.11010   0.58879   0.00000  Uiso   1.00
H920   H     0.57608   0.03610   0.71039   0.00000  Uiso   1.00
H921   H     0.56860   0.07167   0.92578   0.00000  Uiso   1.00
H922   H     0.50186   0.20536   0.57397   0.00000  Uiso   1.00
N923   N     0.38093   0.16668   0.75001   0.00000  Uiso   1.00
N924   N     0.61906   0.16665   0.75001   0.00000  Uiso   1.00
O925   O     0.46179   0.22775   0.75001   0.00000  Uiso   1.00
O926   O     0.53823   0.22774   0.75001   0.00000  Uiso   1.00
O927   O     0.44280   0.16666   0.82681   0.00000  Uiso   1.00
O928   O     0.51924   0.16665   0.82681   0.00000  Uiso   1.00
O929   O     0.46177   0.10559   0.75000   0.00000  Uiso   1.00
O930   O     0.53821   0.10558   0.75000   0.00000  Uiso   1.00
O931   O     0.48076   0.16668   0.67319   0.00000  Uiso   1.00
O932   O     0.55720   0.16667   0.67319   0.00000  Uiso   1.00
Zn933  Zn    0.44896   0.16667   0.75000   0.00000  Uiso   1.00
Zn934  Zn    0.55104   0.16666   0.75000   0.00000  Uiso   1.00
N935   N     0.41068   0.04510   0.80881   0.00000  Uiso   1.00
H936   H     0.41587   0.06616   0.83712   0.00000  Uiso   1.00
H937   H     0.39719   0.06044   0.78234   0.00000  Uiso   1.00
N938   N     0.41011   0.29508   0.78153   0.00000  Uiso   1.00
H939   H     0.38412   0.30520   0.81853   0.00000  Uiso   1.00
C940   C     0.39276   0.29601   0.73626   0.00000  Uiso   1.00
H941   H     0.38577   0.32855   0.72732   0.00000  Uiso   1.00
H942   H     0.35869   0.27948   0.74701   0.00000  Uiso   1.00
H943   H     0.41955   0.28043   0.69861   0.00000  Uiso   1.00
N944   N     0.64789   0.11889   0.66951   0.00000  Uiso   1.00
H945   H     0.63964   0.13955   0.64380   0.00000  Uiso   1.00
H946   H     0.61940   0.09961   0.68684   0.00000  Uiso   1.00
N947   N     0.40543   0.11134   0.68020   0.00000  Uiso   1.00
H948   H     0.39316   0.08176   0.69193   0.00000  Uiso   1.00
H949   H     0.40844   0.11396   0.63923   0.00000  Uiso   1.00
N950   N     0.35281   0.21591   0.82897   0.00000  Uiso   1.00
H951   H     0.38919   0.21925   0.81938   0.00000  Uiso   1.00
H952   H     0.33790   0.24571   0.83000   0.00000  Uiso   1.00
N953   N     0.59382   0.21291   0.83264   0.00000  Uiso   1.00
H954   H     0.57470   0.19258   0.86257   0.00000  Uiso   1.00
H955   H     0.57152   0.23052   0.81821   0.00000  Uiso   1.00
N956   N     0.61485   0.07253   0.99245   0.00000  Uiso   1.00
H957   H     0.63172   0.07173   0.95017   0.00000  Uiso   1.00
C958   C     0.59955   0.03254   0.51479   0.00000  Uiso   1.00
H959   H     0.62949   0.00902   0.99673   0.00000  Uiso   1.00
H960   H     0.56821   0.02288   0.50463   0.00000  Uiso   1.00
H961   H     0.58963   0.03382   0.56028   0.00000  Uiso   1.00
N962   N     0.37453   0.19428   0.92224   0.00000  Uiso   1.00
H963   H     0.35654   0.22275   0.93423   0.00000  Uiso   1.00
C964   C     0.34197   0.16066   0.92954   0.00000  Uiso   1.00
H965   H     0.64716   0.16863   0.91254   0.00000  Uiso   1.00
H966   H     0.65728   0.15511   0.97408   0.00000  Uiso   1.00
H967   H     0.36192   0.13185   0.90784   0.00000  Uiso   1.00
N968   N     0.41890   0.19844   0.58284   0.00000  Uiso   1.00
H969   H     0.42911   0.17530   0.60392   0.00000  Uiso   1.00
H970   H     0.43026   0.22773   0.58954   0.00000  Uiso   1.00
N971   N     0.35525   0.21814   0.53215   0.00000  Uiso   1.00
H972   H     0.36181   0.24655   0.54779   0.00000  Uiso   1.00
H973   H     0.33704   0.19980   0.56526   0.00000  Uiso   1.00
N974   N     0.50998   0.08465   0.87709   0.00000  Uiso   1.00
H975   H     0.53852   0.08927   0.84037   0.00000  Uiso   1.00
H976   H     0.47699   0.08873   0.87223   0.00000  Uiso   1.00
N977   N     0.58798   0.28866   0.69750   0.00000  Uiso   1.00
H978   H     0.61143   0.29580   0.71778   0.00000  Uiso   1.00
H979   H     0.60281   0.29892   0.65725   0.00000  Uiso   1.00
C980   C     0.83327   0.24664   0.74830   0.00000  Uiso   1.00
C981   C     0.81120   0.16448   0.99403   0.00000  Uiso   1.00
C982   C     0.81593   0.14752   0.94131   0.00000  Uiso   1.00
C983   C     0.84838   0.15399   0.51435   0.00000  Uiso   1.00
C984   C     0.88161   0.12008   0.98986   0.00000  Uiso   1.00
C985   C     0.87974   0.09939   0.94313   0.00000  Uiso   1.00
C986   C     0.84770   0.11235   0.91881   0.00000  Uiso   1.00
C987   C     0.85341   0.17585   0.55879   0.00000  Uiso   1.00
C988   C     0.91023   0.12397   0.56592   0.00000  Uiso   1.00
C989   C     0.78714   0.16485   0.91390   0.00000  Uiso   1.00
C990   C     0.87645   0.31126   0.72523   0.00000  Uiso   1.00
C991   C     0.80605   0.16585   0.85289   0.00000  Uiso   1.00
C992   C     0.87591   0.02058   0.72881   0.00000  Uiso   1.00
C993   C     0.83258   0.04300   0.75436   0.00000  Uiso   1.00
C994   C     0.78871   0.02316   0.77745   0.00000  Uiso   1.00
C995   C     0.78839   0.31405   0.76953   0.00000  Uiso   1.00
C996   C     0.83258   0.29113   0.74664   0.00000  Uiso   1.00
C997   C     0.98915   0.14250   0.71234   0.00000  Uiso   1.00
C998   C     0.70304   0.14105   0.71422   0.00000  Uiso   1.00
C999   C     0.67788   0.19110   0.78721   0.00000  Uiso   1.00
C1000  C     0.96344   0.18993   0.78851   0.00000  Uiso   1.00
C1001  C     0.83311   0.08694   0.75186   0.00000  Uiso   1.00
C1002  C     0.86054   0.16643   0.64754   0.00000  Uiso   1.00
C1003  C     0.91373   0.10589   0.51532   0.00000  Uiso   1.00
C1004  C     0.87868   0.15799   0.58840   0.00000  Uiso   1.00
C1005  C     0.74371   0.18647   0.94508   0.00000  Uiso   1.00
C1006  C     0.73395   0.19757   0.50039   0.00000  Uiso   1.00
C1007  C     0.76777   0.18847   0.52478   0.00000  Uiso   1.00
H1008  H     0.93032   0.11010   0.58879   0.00000  Uiso   1.00
H1009  H     0.90941   0.03610   0.71039   0.00000  Uiso   1.00
H1010  H     0.90193   0.07167   0.92578   0.00000  Uiso   1.00
H1011  H     0.83520   0.20536   0.57397   0.00000  Uiso   1.00
N1012  N     0.71426   0.16668   0.75001   0.00000  Uiso   1.00
N1013  N     0.95239   0.16665   0.75001   0.00000  Uiso   1.00
O1014  O     0.79512   0.22775   0.75001   0.00000  Uiso   1.00
O1015  O     0.87157   0.22774   0.75001   0.00000  Uiso   1.00
O1016  O     0.77613   0.16666   0.82681   0.00000  Uiso   1.00
O1017  O     0.85258   0.16665   0.82681   0.00000  Uiso   1.00
O1018  O     0.79510   0.10559   0.75000   0.00000  Uiso   1.00
O1019  O     0.87154   0.10558   0.75000   0.00000  Uiso   1.00
O1020  O     0.81409   0.16668   0.67319   0.00000  Uiso   1.00
O1021  O     0.89053   0.16667   0.67319   0.00000  Uiso   1.00
Zn1022 Zn    0.78229   0.16667   0.75000   0.00000  Uiso   1.00
Zn1023 Zn    0.88438   0.16666   0.75000   0.00000  Uiso   1.00
N1024  N     0.74401   0.04510   0.80881   0.00000  Uiso   1.00
H1025  H     0.74921   0.06616   0.83712   0.00000  Uiso   1.00
H1026  H     0.73052   0.06044   0.78234   0.00000  Uiso   1.00
N1027  N     0.74344   0.29508   0.78153   0.00000  Uiso   1.00
H1028  H     0.71745   0.30520   0.81853   0.00000  Uiso   1.00
C1029  C     0.72609   0.29601   0.73626   0.00000  Uiso   1.00
H1030  H     0.71910   0.32855   0.72732   0.00000  Uiso   1.00
H1031  H     0.69202   0.27948   0.74701   0.00000  Uiso   1.00
H1032  H     0.75288   0.28043   0.69861   0.00000  Uiso   1.00
N1033  N     0.98122   0.11889   0.66951   0.00000  Uiso   1.00
H1034  H     0.97297   0.13955   0.64380   0.00000  Uiso   1.00
H1035  H     0.95273   0.09961   0.68684   0.00000  Uiso   1.00
N1036  N     0.73876   0.11134   0.68020   0.00000  Uiso   1.00
H1037  H     0.72649   0.08176   0.69193   0.00000  Uiso   1.00
H1038  H     0.74178   0.11396   0.63923   0.00000  Uiso   1.00
N1039  N     0.68614   0.21591   0.82897   0.00000  Uiso   1.00
H1040  H     0.72252   0.21925   0.81938   0.00000  Uiso   1.00
H1041  H     0.67124   0.24571   0.83000   0.00000  Uiso   1.00
N1042  N     0.92716   0.21291   0.83264   0.00000  Uiso   1.00
H1043  H     0.90803   0.19258   0.86257   0.00000  Uiso   1.00
H1044  H     0.90485   0.23052   0.81821   0.00000  Uiso   1.00
N1045  N     0.94818   0.07253   0.99245   0.00000  Uiso   1.00
H1046  H     0.96505   0.07173   0.95017   0.00000  Uiso   1.00
C1047  C     0.93289   0.03254   0.51479   0.00000  Uiso   1.00
H1048  H     0.96282   0.00902   0.99673   0.00000  Uiso   1.00
H1049  H     0.90154   0.02288   0.50463   0.00000  Uiso   1.00
H1050  H     0.92296   0.03382   0.56028   0.00000  Uiso   1.00
N1051  N     0.70787   0.19428   0.92224   0.00000  Uiso   1.00
H1052  H     0.68987   0.22275   0.93423   0.00000  Uiso   1.00
C1053  C     0.67530   0.16066   0.92954   0.00000  Uiso   1.00
H1054  H     0.98049   0.16863   0.91254   0.00000  Uiso   1.00
H1055  H     0.99061   0.15511   0.97408   0.00000  Uiso   1.00
H1056  H     0.69526   0.13185   0.90784   0.00000  Uiso   1.00
N1057  N     0.75223   0.19844   0.58284   0.00000  Uiso   1.00
H1058  H     0.76244   0.17530   0.60392   0.00000  Uiso   1.00
H1059  H     0.76359   0.22773   0.58954   0.00000  Uiso   1.00
N1060  N     0.68859   0.21814   0.53215   0.00000  Uiso   1.00
H1061  H     0.69514   0.24655   0.54779   0.00000  Uiso   1.00
H1062  H     0.67038   0.19980   0.56526   0.00000  Uiso   1.00
N1063  N     0.84331   0.08465   0.87709   0.00000  Uiso   1.00
H1064  H     0.87185   0.08927   0.84037   0.00000  Uiso   1.00
H1065  H     0.81032   0.08873   0.87223   0.00000  Uiso   1.00
N1066  N     0.92131   0.28866   0.69750   0.00000  Uiso   1.00
H1067  H     0.94477   0.29580   0.71778   0.00000  Uiso   1.00
H1068  H     0.93615   0.29892   0.65725   0.00000  Uiso   1.00
C1069  C     0.16660   0.57997   0.74830   0.00000  Uiso   1.00
C1070  C     0.14453   0.49781   0.99403   0.00000  Uiso   1.00
C1071  C     0.14927   0.48086   0.94131   0.00000  Uiso   1.00
C1072  C     0.18171   0.48732   0.51435   0.00000  Uiso   1.00
C1073  C     0.21495   0.45341   0.98986   0.00000  Uiso   1.00
C1074  C     0.21308   0.43272   0.94313   0.00000  Uiso   1.00
C1075  C     0.18103   0.44568   0.91881   0.00000  Uiso   1.00
C1076  C     0.18675   0.50918   0.55879   0.00000  Uiso   1.00
C1077  C     0.24356   0.45730   0.56592   0.00000  Uiso   1.00
C1078  C     0.12048   0.49819   0.91390   0.00000  Uiso   1.00
C1079  C     0.20979   0.64459   0.72523   0.00000  Uiso   1.00
C1080  C     0.13938   0.49918   0.85289   0.00000  Uiso   1.00
C1081  C     0.20925   0.35391   0.72881   0.00000  Uiso   1.00
C1082  C     0.16591   0.37633   0.75436   0.00000  Uiso   1.00
C1083  C     0.12204   0.35649   0.77745   0.00000  Uiso   1.00
C1084  C     0.12172   0.64739   0.76953   0.00000  Uiso   1.00
C1085  C     0.16591   0.62446   0.74664   0.00000  Uiso   1.00
C1086  C     0.32248   0.47583   0.71234   0.00000  Uiso   1.00
C1087  C     0.03637   0.47439   0.71422   0.00000  Uiso   1.00
C1088  C     0.01121   0.52443   0.78721   0.00000  Uiso   1.00
C1089  C     0.29678   0.52327   0.78851   0.00000  Uiso   1.00
C1090  C     0.16644   0.42027   0.75186   0.00000  Uiso   1.00
C1091  C     0.19388   0.49976   0.64754   0.00000  Uiso   1.00
C1092  C     0.24707   0.43922   0.51532   0.00000  Uiso   1.00
C1093  C     0.21201   0.49132   0.58840   0.00000  Uiso   1.00
C1094  C     0.07704   0.51980   0.94508   0.00000  Uiso   1.00
C1095  C     0.06728   0.53091   0.50039   0.00000  Uiso   1.00
C1096  C     0.10111   0.52180   0.52478   0.00000  Uiso   1.00
H1097  H     0.26365   0.44343   0.58879   0.00000  Uiso   1.00
H1098  H     0.24275   0.36943   0.71039   0.00000  Uiso   1.00
H1099  H     0.23526   0.40501   0.92578   0.00000  Uiso   1.00
H1100  H     0.16853   0.53870   0.57397   0.00000  Uiso   1.00
N1101  N     0.04760   0.50001   0.75001   0.00000  Uiso   1.00
N1102  N     0.28573   0.49998   0.75001   0.00000  Uiso   1.00
O1103  O     0.12846   0.56108   0.75001   0.00000  Uiso   1.00
O1104  O     0.20490   0.56107   0.75001   0.00000  Uiso   1.00
O1105  O     0.10947   0.50000   0.82681   0.00000  Uiso   1.00
O1106  O     0.18591   0.49999   0.82681   0.00000  Uiso   1.00
O1107  O     0.12843   0.43893   0.75000   0.00000  Uiso   1.00
O1108  O     0.20488   0.43892   0.75000   0.00000  Uiso   1.00
O1109  O     0.14742   0.50001   0.67319   0.00000  Uiso   1.00
O1110  O     0.22387   0.50000   0.67319   0.00000  Uiso   1.00
Zn1111 Zn    0.11562   0.50001   0.75000   0.00000  Uiso   1.00
Zn1112 Zn    0.21771   0.49999   0.75000   0.00000  Uiso   1.00
N1113  N     0.07735   0.37844   0.80881   0.00000  Uiso   1.00
H1114  H     0.08254   0.39949   0.83712   0.00000  Uiso   1.00
H1115  H     0.06386   0.39377   0.78234   0.00000  Uiso   1.00
N1116  N     0.07677   0.62841   0.78153   0.00000  Uiso   1.00
H1117  H     0.05078   0.63853   0.81853   0.00000  Uiso   1.00
C1118  C     0.05943   0.62934   0.73626   0.00000  Uiso   1.00
H1119  H     0.05244   0.66188   0.72732   0.00000  Uiso   1.00
H1120  H     0.02536   0.61282   0.74701   0.00000  Uiso   1.00
H1121  H     0.08621   0.61377   0.69861   0.00000  Uiso   1.00
N1122  N     0.31456   0.45223   0.66951   0.00000  Uiso   1.00
H1123  H     0.30631   0.47289   0.64380   0.00000  Uiso   1.00
H1124  H     0.28607   0.43294   0.68684   0.00000  Uiso   1.00
N1125  N     0.07210   0.44468   0.68020   0.00000  Uiso   1.00
H1126  H     0.05982   0.41509   0.69193   0.00000  Uiso   1.00
H1127  H     0.07511   0.44730   0.63923   0.00000  Uiso   1.00
N1128  N     0.01948   0.54924   0.82897   0.00000  Uiso   1.00
H1129  H     0.05585   0.55258   0.81938   0.00000  Uiso   1.00
H1130  H     0.00457   0.57904   0.83000   0.00000  Uiso   1.00
N1131  N     0.26049   0.54624   0.83264   0.00000  Uiso   1.00
H1132  H     0.24137   0.52592   0.86257   0.00000  Uiso   1.00
H1133  H     0.23818   0.56385   0.81821   0.00000  Uiso   1.00
N1134  N     0.28151   0.40586   0.99245   0.00000  Uiso   1.00
H1135  H     0.29838   0.40507   0.95017   0.00000  Uiso   1.00
C1136  C     0.26622   0.36587   0.51479   0.00000  Uiso   1.00
H1137  H     0.29616   0.34235   0.99673   0.00000  Uiso   1.00
H1138  H     0.23488   0.35622   0.50463   0.00000  Uiso   1.00
H1139  H     0.25630   0.36715   0.56028   0.00000  Uiso   1.00
N1140  N     0.04120   0.52762   0.92224   0.00000  Uiso   1.00
H1141  H     0.02320   0.55608   0.93423   0.00000  Uiso   1.00
C1142  C     0.00863   0.49400   0.92954   0.00000  Uiso   1.00
H1143  H     0.31383   0.50197   0.91254   0.00000  Uiso   1.00
H1144  H     0.32394   0.48844   0.97408   0.00000  Uiso   1.00
H1145  H     0.02859   0.46518   0.90784   0.00000  Uiso   1.00
N1146  N     0.08556   0.53177   0.58284   0.00000  Uiso   1.00
H1147  H     0.09577   0.50864   0.60392   0.00000  Uiso   1.00
H1148  H     0.09693   0.56106   0.58954   0.00000  Uiso   1.00
N1149  N     0.02192   0.55147   0.53215   0.00000  Uiso   1.00
H1150  H     0.02847   0.57988   0.54779   0.00000  Uiso   1.00
H1151  H     0.00371   0.53314   0.56526   0.00000  Uiso   1.00
N1152  N     0.17664   0.41798   0.87709   0.00000  Uiso   1.00
H1153  H     0.20519   0.42261   0.84037   0.00000  Uiso   1.00
H1154  H     0.14365   0.42206   0.87223   0.00000  Uiso   1.00
N1155  N     0.25465   0.62200   0.69750   0.00000  Uiso   1.00
H1156  H     0.27810   0.62914   0.71778   0.00000  Uiso   1.00
H1157  H     0.26948   0.63225   0.65725   0.00000  Uiso   1.00
C1158  C     0.49993   0.57997   0.74830   0.00000  Uiso   1.00
C1159  C     0.47787   0.49781   0.99403   0.00000  Uiso   1.00
C1160  C     0.48260   0.48086   0.94131   0.00000  Uiso   1.00
C1161  C     0.51505   0.48732   0.51435   0.00000  Uiso   1.00
C1162  C     0.54828   0.45341   0.98986   0.00000  Uiso   1.00
C1163  C     0.54641   0.43272   0.94313   0.00000  Uiso   1.00
C1164  C     0.51437   0.44568   0.91881   0.00000  Uiso   1.00
C1165  C     0.52008   0.50918   0.55879   0.00000  Uiso   1.00
C1166  C     0.57689   0.45730   0.56592   0.00000  Uiso   1.00
C1167  C     0.45381   0.49819   0.91390   0.00000  Uiso   1.00
C1168  C     0.54312   0.64459   0.72523   0.00000  Uiso   1.00
C1169  C     0.47272   0.49918   0.85289   0.00000  Uiso   1.00
C1170  C     0.54258   0.35391   0.72881   0.00000  Uiso   1.00
C1171  C     0.49925   0.37633   0.75436   0.00000  Uiso   1.00
C1172  C     0.45537   0.35649   0.77745   0.00000  Uiso   1.00
C1173  C     0.45505   0.64739   0.76953   0.00000  Uiso   1.00
C1174  C     0.49925   0.62446   0.74664   0.00000  Uiso   1.00
C1175  C     0.65582   0.47583   0.71234   0.00000  Uiso   1.00
C1176  C     0.36971   0.47439   0.71422   0.00000  Uiso   1.00
C1177  C     0.34454   0.52443   0.78721   0.00000  Uiso   1.00
C1178  C     0.63011   0.52327   0.78851   0.00000  Uiso   1.00
C1179  C     0.49978   0.42027   0.75186   0.00000  Uiso   1.00
C1180  C     0.52721   0.49976   0.64754   0.00000  Uiso   1.00
C1181  C     0.58040   0.43922   0.51532   0.00000  Uiso   1.00
C1182  C     0.54534   0.49132   0.58840   0.00000  Uiso   1.00
C1183  C     0.41038   0.51980   0.94508   0.00000  Uiso   1.00
C1184  C     0.40061   0.53091   0.50039   0.00000  Uiso   1.00
C1185  C     0.43444   0.52180   0.52478   0.00000  Uiso   1.00
H1186  H     0.59699   0.44343   0.58879   0.00000  Uiso   1.00
H1187  H     0.57608   0.36943   0.71039   0.00000  Uiso   1.00
H1188  H     0.56860   0.40501   0.92578   0.00000  Uiso   1.00
H1189  H     0.50186   0.53870   0.57397   0.00000  Uiso   1.00
N1190  N     0.38093   0.50001   0.75001   0.00000  Uiso   1.00
N1191  N     0.61906   0.49998   0.75001   0.00000  Uiso   1.00
O1192  O     0.46179   0.56108   0.75001   0.00000  Uiso   1.00
O1193  O     0.53823   0.56107   0.75001   0.00000  Uiso   1.00
O1194  O     0.44280   0.50000   0.82681   0.00000  Uiso   1.00
O1195  O     0.51924   0.49999   0.82681   0.00000  Uiso   1.00
O1196  O     0.46177   0.43893   0.75000   0.00000  Uiso   1.00
O1197  O     0.53821   0.43892   0.75000   0.00000  Uiso   1.00
O1198  O     0.48076   0.50001   0.67319   0.00000  Uiso   1.00
O1199  O     0.55720   0.50000   0.67319   0.00000  Uiso   1.00
Zn1200 Zn    0.44896   0.50001   0.75000   0.00000  Uiso   1.00
Zn1201 Zn    0.55104   0.49999   0.75000   0.00000  Uiso   1.00
N1202  N     0.41068   0.37844   0.80881   0.00000  Uiso   1.00
H1203  H     0.41587   0.39949   0.83712   0.00000  Uiso   1.00
H1204  H     0.39719   0.39377   0.78234   0.00000  Uiso   1.00
N1205  N     0.41011   0.62841   0.78153   0.00000  Uiso   1.00
H1206  H     0.38412   0.63853   0.81853   0.00000  Uiso   1.00
C1207  C     0.39276   0.62934   0.73626   0.00000  Uiso   1.00
H1208  H     0.38577   0.66188   0.72732   0.00000  Uiso   1.00
H1209  H     0.35869   0.61282   0.74701   0.00000  Uiso   1.00
H1210  H     0.41955   0.61377   0.69861   0.00000  Uiso   1.00
N1211  N     0.64789   0.45223   0.66951   0.00000  Uiso   1.00
H1212  H     0.63964   0.47289   0.64380   0.00000  Uiso   1.00
H1213  H     0.61940   0.43294   0.68684   0.00000  Uiso   1.00
N1214  N     0.40543   0.44468   0.68020   0.00000  Uiso   1.00
H1215  H     0.39316   0.41509   0.69193   0.00000  Uiso   1.00
H1216  H     0.40844   0.44730   0.63923   0.00000  Uiso   1.00
N1217  N     0.35281   0.54924   0.82897   0.00000  Uiso   1.00
H1218  H     0.38919   0.55258   0.81938   0.00000  Uiso   1.00
H1219  H     0.33790   0.57904   0.83000   0.00000  Uiso   1.00
N1220  N     0.59382   0.54624   0.83264   0.00000  Uiso   1.00
H1221  H     0.57470   0.52592   0.86257   0.00000  Uiso   1.00
H1222  H     0.57152   0.56385   0.81821   0.00000  Uiso   1.00
N1223  N     0.61485   0.40586   0.99245   0.00000  Uiso   1.00
H1224  H     0.63172   0.40507   0.95017   0.00000  Uiso   1.00
C1225  C     0.59955   0.36587   0.51479   0.00000  Uiso   1.00
H1226  H     0.62949   0.34235   0.99673   0.00000  Uiso   1.00
H1227  H     0.56821   0.35622   0.50463   0.00000  Uiso   1.00
H1228  H     0.58963   0.36715   0.56028   0.00000  Uiso   1.00
N1229  N     0.37453   0.52762   0.92224   0.00000  Uiso   1.00
H1230  H     0.35654   0.55608   0.93423   0.00000  Uiso   1.00
C1231  C     0.34197   0.49400   0.92954   0.00000  Uiso   1.00
H1232  H     0.64716   0.50197   0.91254   0.00000  Uiso   1.00
H1233  H     0.65728   0.48844   0.97408   0.00000  Uiso   1.00
H1234  H     0.36192   0.46518   0.90784   0.00000  Uiso   1.00
N1235  N     0.41890   0.53177   0.58284   0.00000  Uiso   1.00
H1236  H     0.42911   0.50864   0.60392   0.00000  Uiso   1.00
H1237  H     0.43026   0.56106   0.58954   0.00000  Uiso   1.00
N1238  N     0.35525   0.55147   0.53215   0.00000  Uiso   1.00
H1239  H     0.36181   0.57988   0.54779   0.00000  Uiso   1.00
H1240  H     0.33704   0.53314   0.56526   0.00000  Uiso   1.00
N1241  N     0.50998   0.41798   0.87709   0.00000  Uiso   1.00
H1242  H     0.53852   0.42261   0.84037   0.00000  Uiso   1.00
H1243  H     0.47699   0.42206   0.87223   0.00000  Uiso   1.00
N1244  N     0.58798   0.62200   0.69750   0.00000  Uiso   1.00
H1245  H     0.61143   0.62914   0.71778   0.00000  Uiso   1.00
H1246  H     0.60281   0.63225   0.65725   0.00000  Uiso   1.00
C1247  C     0.83327   0.57997   0.74830   0.00000  Uiso   1.00
C1248  C     0.81120   0.49781   0.99403   0.00000  Uiso   1.00
C1249  C     0.81593   0.48086   0.94131   0.00000  Uiso   1.00
C1250  C     0.84838   0.48732   0.51435   0.00000  Uiso   1.00
C1251  C     0.88161   0.45341   0.98986   0.00000  Uiso   1.00
C1252  C     0.87974   0.43272   0.94313   0.00000  Uiso   1.00
C1253  C     0.84770   0.44568   0.91881   0.00000  Uiso   1.00
C1254  C     0.85341   0.50918   0.55879   0.00000  Uiso   1.00
C1255  C     0.91023   0.45730   0.56592   0.00000  Uiso   1.00
C1256  C     0.78714   0.49819   0.91390   0.00000  Uiso   1.00
C1257  C     0.87645   0.64459   0.72523   0.00000  Uiso   1.00
C1258  C     0.80605   0.49918   0.85289   0.00000  Uiso   1.00
C1259  C     0.87591   0.35391   0.72881   0.00000  Uiso   1.00
C1260  C     0.83258   0.37633   0.75436   0.00000  Uiso   1.00
C1261  C     0.78871   0.35649   0.77745   0.00000  Uiso   1.00
C1262  C     0.78839   0.64739   0.76953   0.00000  Uiso   1.00
C1263  C     0.83258   0.62446   0.74664   0.00000  Uiso   1.00
C1264  C     0.98915   0.47583   0.71234   0.00000  Uiso   1.00
C1265  C     0.70304   0.47439   0.71422   0.00000  Uiso   1.00
C1266  C     0.67788   0.52443   0.78721   0.00000  Uiso   1.00
C1267  C     0.96344   0.52327   0.78851   0.00000  Uiso   1.00
C1268  C     0.83311   0.42027   0.75186   0.00000  Uiso   1.00
C1269  C     0.86054   0.49976   0.64754   0.00000  Uiso   1.00
C1270  C     0.91373   0.43922   0.51532   0.00000  Uiso   1.00
C1271  C     0.87868   0.49132   0.58840   0.00000  Uiso   1.00
C1272  C     0.74371   0.51980   0.94508   0.00000  Uiso   1.00
C1273  C     0.73395   0.53091   0.50039   0.00000  Uiso   1.00
C1274  C     0.76777   0.52180   0.52478   0.00000  Uiso   1.00
H1275  H     0.93032   0.44343   0.58879   0.00000  Uiso   1.00
H1276  H     0.90941   0.36943   0.71039   0.00000  Uiso   1.00
H1277  H     0.90193   0.40501   0.92578   0.00000  Uiso   1.00
H1278  H     0.83520   0.53870   0.57397   0.00000  Uiso   1.00
N1279  N     0.71426   0.50001   0.75001   0.00000  Uiso   1.00
N1280  N     0.95239   0.49998   0.75001   0.00000  Uiso   1.00
O1281  O     0.79512   0.56108   0.75001   0.00000  Uiso   1.00
O1282  O     0.87157   0.56107   0.75001   0.00000  Uiso   1.00
O1283  O     0.77613   0.50000   0.82681   0.00000  Uiso   1.00
O1284  O     0.85258   0.49999   0.82681   0.00000  Uiso   1.00
O1285  O     0.79510   0.43893   0.75000   0.00000  Uiso   1.00
O1286  O     0.87154   0.43892   0.75000   0.00000  Uiso   1.00
O1287  O     0.81409   0.50001   0.67319   0.00000  Uiso   1.00
O1288  O     0.89053   0.50000   0.67319   0.00000  Uiso   1.00
Zn1289 Zn    0.78229   0.50001   0.75000   0.00000  Uiso   1.00
Zn1290 Zn    0.88438   0.49999   0.75000   0.00000  Uiso   1.00
N1291  N     0.74401   0.37844   0.80881   0.00000  Uiso   1.00
H1292  H     0.74921   0.39949   0.83712   0.00000  Uiso   1.00
H1293  H     0.73052   0.39377   0.78234   0.00000  Uiso   1.00
N1294  N     0.74344   0.62841   0.78153   0.00000  Uiso   1.00
H1295  H     0.71745   0.63853   0.81853   0.00000  Uiso   1.00
C1296  C     0.72609   0.62934   0.73626   0.00000  Uiso   1.00
H1297  H     0.71910   0.66188   0.72732   0.00000  Uiso   1.00
H1298  H     0.69202   0.61282   0.74701   0.00000  Uiso   1.00
H1299  H     0.75288   0.61377   0.69861   0.00000  Uiso   1.00
N1300  N     0.98122   0.45223   0.66951   0.00000  Uiso   1.00
H1301  H     0.97297   0.47289   0.64380   0.00000  Uiso   1.00
H1302  H     0.95273   0.43294   0.68684   0.00000  Uiso   1.00
N1303  N     0.73876   0.44468   0.68020   0.00000  Uiso   1.00
H1304  H     0.72649   0.41509   0.69193   0.00000  Uiso   1.00
H1305  H     0.74178   0.44730   0.63923   0.00000  Uiso   1.00
N1306  N     0.68614   0.54924   0.82897   0.00000  Uiso   1.00
H1307  H     0.72252   0.55258   0.81938   0.00000  Uiso   1.00
H1308  H     0.67124   0.57904   0.83000   0.00000  Uiso   1.00
N1309  N     0.92716   0.54624   0.83264   0.00000  Uiso   1.00
H1310  H     0.90803   0.52592   0.86257   0.00000  Uiso   1.00
H1311  H     0.90485   0.56385   0.81821   0.00000  Uiso   1.00
N1312  N     0.94818   0.40586   0.99245   0.00000  Uiso   1.00
H1313  H     0.96505   0.40507   0.95017   0.00000  Uiso   1.00
C1314  C     0.93289   0.36587   0.51479   0.00000  Uiso   1.00
H1315  H     0.96282   0.34235   0.99673   0.00000  Uiso   1.00
H1316  H     0.90154   0.35622   0.50463   0.00000  Uiso   1.00
H1317  H     0.92296   0.36715   0.56028   0.00000  Uiso   1.00
N1318  N     0.70787   0.52762   0.92224   0.00000  Uiso   1.00
H1319  H     0.68987   0.55608   0.93423   0.00000  Uiso   1.00
C1320  C     0.67530   0.49400   0.92954   0.00000  Uiso   1.00
H1321  H     0.98049   0.50197   0.91254   0.00000  Uiso   1.00
H1322  H     0.99061   0.48844   0.97408   0.00000  Uiso   1.00
H1323  H     0.69526   0.46518   0.90784   0.00000  Uiso   1.00
N1324  N     0.75223   0.53177   0.58284   0.00000  Uiso   1.00
H1325  H     0.76244   0.50864   0.60392   0.00000  Uiso   1.00
H1326  H     0.76359   0.56106   0.58954   0.00000  Uiso   1.00
N1327  N     0.68859   0.55147   0.53215   0.00000  Uiso   1.00
H1328  H     0.69514   0.57988   0.54779   0.00000  Uiso   1.00
H1329  H     0.67038   0.53314   0.56526   0.00000  Uiso   1.00
N1330  N     0.84331   0.41798   0.87709   0.00000  Uiso   1.00
H1331  H     0.87185   0.42261   0.84037   0.00000  Uiso   1.00
H1332  H     0.81032   0.42206   0.87223   0.00000  Uiso   1.00
N1333  N     0.92131   0.62200   0.69750   0.00000  Uiso   1.00
H1334  H     0.94477   0.62914   0.71778   0.00000  Uiso   1.00
H1335  H     0.93615   0.63225   0.65725   0.00000  Uiso   1.00
C1336  C     0.16660   0.91331   0.74830   0.00000  Uiso   1.00
C1337  C     0.14453   0.83115   0.99403   0.00000  Uiso   1.00
C1338  C     0.14927   0.81419   0.94131   0.00000  Uiso   1.00
C1339  C     0.18171   0.82066   0.51435   0.00000  Uiso   1.00
C1340  C     0.21495   0.78675   0.98986   0.00000  Uiso   1.00
C1341  C     0.21308   0.76606   0.94313   0.00000  Uiso   1.00
C1342  C     0.18103   0.77902   0.91881   0.00000  Uiso   1.00
C1343  C     0.18675   0.84251   0.55879   0.00000  Uiso   1.00
C1344  C     0.24356   0.79064   0.56592   0.00000  Uiso   1.00
C1345  C     0.12048   0.83152   0.91390   0.00000  Uiso   1.00
C1346  C     0.20979   0.97793   0.72523   0.00000  Uiso   1.00
C1347  C     0.13938   0.83252   0.85289   0.00000  Uiso   1.00
C1348  C     0.20925   0.68725   0.72881   0.00000  Uiso   1.00
C1349  C     0.16591   0.70967   0.75436   0.00000  Uiso   1.00
C1350  C     0.12204   0.68983   0.77745   0.00000  Uiso   1.00
C1351  C     0.12172   0.98072   0.76953   0.00000  Uiso   1.00
C1352  C     0.16591   0.95779   0.74664   0.00000  Uiso   1.00
C1353  C     0.32248   0.80917   0.71234   0.00000  Uiso   1.00
C1354  C     0.03637   0.80772   0.71422   0.00000  Uiso   1.00
C1355  C     0.01121   0.85777   0.78721   0.00000  Uiso   1.00
C1356  C     0.29678   0.85660   0.78851   0.00000  Uiso   1.00
C1357  C     0.16644   0.75361   0.75186   0.00000  Uiso   1.00
C1358  C     0.19388   0.83309   0.64754   0.00000  Uiso   1.00
C1359  C     0.24707   0.77255   0.51532   0.00000  Uiso   1.00
C1360  C     0.21201   0.82466   0.58840   0.00000  Uiso   1.00
C1361  C     0.07704   0.85313   0.94508   0.00000  Uiso   1.00
C1362  C     0.06728   0.86424   0.50039   0.00000  Uiso   1.00
C1363  C     0.10111   0.85514   0.52478   0.00000  Uiso   1.00
H1364  H     0.26365   0.77677   0.58879   0.00000  Uiso   1.00
H1365  H     0.24275   0.70276   0.71039   0.00000  Uiso   1.00
H1366  H     0.23526   0.73834   0.92578   0.00000  Uiso   1.00
H1367  H     0.16853   0.87203   0.57397   0.00000  Uiso   1.00
N1368  N     0.04760   0.83334   0.75001   0.00000  Uiso   1.00
N1369  N     0.28573   0.83331   0.75001   0.00000  Uiso   1.00
O1370  O     0.12846   0.89442   0.75001   0.00000  Uiso   1.00
O1371  O     0.20490   0.89441   0.75001   0.00000  Uiso   1.00
O1372  O     0.10947   0.83333   0.82681   0.00000  Uiso   1.00
O1373  O     0.18591   0.83332   0.82681   0.00000  Uiso   1.00
O1374  O     0.12843   0.77226   0.75000   0.00000  Uiso   1.00
O1375  O     0.20488   0.77225   0.75000   0.00000  Uiso   1.00
O1376  O     0.14742   0.83335   0.67319   0.00000  Uiso   1.00
O1377  O     0.22387   0.83334   0.67319   0.00000  Uiso   1.00
Zn1378 Zn    0.11562   0.83334   0.75000   0.00000  Uiso   1.00
Zn1379 Zn    0.21771   0.83333   0.75000   0.00000  Uiso   1.00
N1380  N     0.07735   0.71177   0.80881   0.00000  Uiso   1.00
H1381  H     0.08254   0.73283   0.83712   0.00000  Uiso   1.00
H1382  H     0.06386   0.72711   0.78234   0.00000  Uiso   1.00
N1383  N     0.07677   0.96174   0.78153   0.00000  Uiso   1.00
H1384  H     0.05078   0.97187   0.81853   0.00000  Uiso   1.00
C1385  C     0.05943   0.96267   0.73626   0.00000  Uiso   1.00
H1386  H     0.05244   0.99522   0.72732   0.00000  Uiso   1.00
H1387  H     0.02536   0.94615   0.74701   0.00000  Uiso   1.00
H1388  H     0.08621   0.94710   0.69861   0.00000  Uiso   1.00
N1389  N     0.31456   0.78556   0.66951   0.00000  Uiso   1.00
H1390  H     0.30631   0.80622   0.64380   0.00000  Uiso   1.00
H1391  H     0.28607   0.76628   0.68684   0.00000  Uiso   1.00
N1392  N     0.07210   0.77801   0.68020   0.00000  Uiso   1.00
H1393  H     0.05982   0.74842   0.69193   0.00000  Uiso   1.00
H1394  H     0.07511   0.78063   0.63923   0.00000  Uiso   1.00
N1395  N     0.01948   0.88258   0.82897   0.00000  Uiso   1.00
H1396  H     0.05585   0.88592   0.81938   0.00000  Uiso   1.00
H1397  H     0.00457   0.91238   0.83000   0.00000  Uiso   1.00
N1398  N     0.26049   0.87957   0.83264   0.00000  Uiso   1.00
H1399  H     0.24137   0.85925   0.86257   0.00000  Uiso   1.00
H1400  H     0.23818   0.89718   0.81821   0.00000  Uiso   1.00
N1401  N     0.28151   0.73919   0.99245   0.00000  Uiso   1.00
H1402  H     0.29838   0.73840   0.95017   0.00000  Uiso   1.00
C1403  C     0.26622   0.69921   0.51479   0.00000  Uiso   1.00
H1404  H     0.29616   0.67568   0.99673   0.00000  Uiso   1.00
H1405  H     0.23488   0.68955   0.50463   0.00000  Uiso   1.00
H1406  H     0.25630   0.70049   0.56028   0.00000  Uiso   1.00
N1407  N     0.04120   0.86095   0.92224   0.00000  Uiso   1.00
H1408  H     0.02320   0.88942   0.93423   0.00000  Uiso   1.00
C1409  C     0.00863   0.82733   0.92954   0.00000  Uiso   1.00
H1410  H     0.31383   0.83530   0.91254   0.00000  Uiso   1.00
H1411  H     0.32394   0.82178   0.97408   0.00000  Uiso   1.00
H1412  H     0.02859   0.79851   0.90784   0.00000  Uiso   1.00
N1413  N     0.08556   0.86511   0.58284   0.00000  Uiso   1.00
H1414  H     0.09577   0.84197   0.60392   0.00000  Uiso   1.00
H1415  H     0.09693   0.89440   0.58954   0.00000  Uiso   1.00
N1416  N     0.02192   0.88480   0.53215   0.00000  Uiso   1.00
H1417  H     0.02847   0.91321   0.54779   0.00000  Uiso   1.00
H1418  H     0.00371   0.86647   0.56526   0.00000  Uiso   1.00
N1419  N     0.17664   0.75131   0.87709   0.00000  Uiso   1.00
H1420  H     0.20519   0.75594   0.84037   0.00000  Uiso   1.00
H1421  H     0.14365   0.75540   0.87223   0.00000  Uiso   1.00
N1422  N     0.25465   0.95533   0.69750   0.00000  Uiso   1.00
H1423  H     0.27810   0.96247   0.71778   0.00000  Uiso   1.00
H1424  H     0.26948   0.96559   0.65725   0.00000  Uiso   1.00
C1425  C     0.49993   0.91331   0.74830   0.00000  Uiso   1.00
C1426  C     0.47787   0.83115   0.99403   0.00000  Uiso   1.00
C1427  C     0.48260   0.81419   0.94131   0.00000  Uiso   1.00
C1428  C     0.51505   0.82066   0.51435   0.00000  Uiso   1.00
C1429  C     0.54828   0.78675   0.98986   0.00000  Uiso   1.00
C1430  C     0.54641   0.76606   0.94313   0.00000  Uiso   1.00
C1431  C     0.51437   0.77902   0.91881   0.00000  Uiso   1.00
C1432  C     0.52008   0.84251   0.55879   0.00000  Uiso   1.00
C1433  C     0.57689   0.79064   0.56592   0.00000  Uiso   1.00
C1434  C     0.45381   0.83152   0.91390   0.00000  Uiso   1.00
C1435  C     0.54312   0.97793   0.72523   0.00000  Uiso   1.00
C1436  C     0.47272   0.83252   0.85289   0.00000  Uiso   1.00
C1437  C     0.54258   0.68725   0.72881   0.00000  Uiso   1.00
C1438  C     0.49925   0.70967   0.75436   0.00000  Uiso   1.00
C1439  C     0.45537   0.68983   0.77745   0.00000  Uiso   1.00
C1440  C     0.45505   0.98072   0.76953   0.00000  Uiso   1.00
C1441  C     0.49925   0.95779   0.74664   0.00000  Uiso   1.00
C1442  C     0.65582   0.80917   0.71234   0.00000  Uiso   1.00
C1443  C     0.36971   0.80772   0.71422   0.00000  Uiso   1.00
C1444  C     0.34454   0.85777   0.78721   0.00000  Uiso   1.00
C1445  C     0.63011   0.85660   0.78851   0.00000  Uiso   1.00
C1446  C     0.49978   0.75361   0.75186   0.00000  Uiso   1.00
C1447  C     0.52721   0.83309   0.64754   0.00000  Uiso   1.00
C1448  C     0.58040   0.77255   0.51532   0.00000  Uiso   1.00
C1449  C     0.54534   0.82466   0.58840   0.00000  Uiso   1.00
C1450  C     0.41038   0.85313   0.94508   0.00000  Uiso   1.00
C1451  C     0.40061   0.86424   0.50039   0.00000  Uiso   1.00
C1452  C     0.43444   0.85514   0.52478   0.00000  Uiso   1.00
H1453  H     0.59699   0.77677   0.58879   0.00000  Uiso   1.00
H1454  H     0.57608   0.70276   0.71039   0.00000  Uiso   1.00
H1455  H     0.56860   0.73834   0.92578   0.00000  Uiso   1.00
H1456  H     0.50186   0.87203   0.57397   0.00000  Uiso   1.00
N1457  N     0.38093   0.83334   0.75001   0.00000  Uiso   1.00
N1458  N     0.61906   0.83331   0.75001   0.00000  Uiso   1.00
O1459  O     0.46179   0.89442   0.75001   0.00000  Uiso   1.00
O1460  O     0.53823   0.89441   0.75001   0.00000  Uiso   1.00
O1461  O     0.44280   0.83333   0.82681   0.00000  Uiso   1.00
O1462  O     0.51924   0.83332   0.82681   0.00000  Uiso   1.00
O1463  O     0.46177   0.77226   0.75000   0.00000  Uiso   1.00
O1464  O     0.53821   0.77225   0.75000   0.00000  Uiso   1.00
O1465  O     0.48076   0.83335   0.67319   0.00000  Uiso   1.00
O1466  O     0.55720   0.83334   0.67319   0.00000  Uiso   1.00
Zn1467 Zn    0.44896   0.83334   0.75000   0.00000  Uiso   1.00
Zn1468 Zn    0.55104   0.83333   0.75000   0.00000  Uiso   1.00
N1469  N     0.41068   0.71177   0.80881   0.00000  Uiso   1.00
H1470  H     0.41587   0.73283   0.83712   0.00000  Uiso   1.00
H1471  H     0.39719   0.72711   0.78234   0.00000  Uiso   1.00
N1472  N     0.41011   0.96174   0.78153   0.00000  Uiso   1.00
H1473  H     0.38412   0.97187   0.81853   0.00000  Uiso   1.00
C1474  C     0.39276   0.96267   0.73626   0.00000  Uiso   1.00
H1475  H     0.38577   0.99522   0.72732   0.00000  Uiso   1.00
H1476  H     0.35869   0.94615   0.74701   0.00000  Uiso   1.00
H1477  H     0.41955   0.94710   0.69861   0.00000  Uiso   1.00
N1478  N     0.64789   0.78556   0.66951   0.00000  Uiso   1.00
H1479  H     0.63964   0.80622   0.64380   0.00000  Uiso   1.00
H1480  H     0.61940   0.76628   0.68684   0.00000  Uiso   1.00
N1481  N     0.40543   0.77801   0.68020   0.00000  Uiso   1.00
H1482  H     0.39316   0.74842   0.69193   0.00000  Uiso   1.00
H1483  H     0.40844   0.78063   0.63923   0.00000  Uiso   1.00
N1484  N     0.35281   0.88258   0.82897   0.00000  Uiso   1.00
H1485  H     0.38919   0.88592   0.81938   0.00000  Uiso   1.00
H1486  H     0.33790   0.91238   0.83000   0.00000  Uiso   1.00
N1487  N     0.59382   0.87957   0.83264   0.00000  Uiso   1.00
H1488  H     0.57470   0.85925   0.86257   0.00000  Uiso   1.00
H1489  H     0.57152   0.89718   0.81821   0.00000  Uiso   1.00
N1490  N     0.61485   0.73919   0.99245   0.00000  Uiso   1.00
H1491  H     0.63172   0.73840   0.95017   0.00000  Uiso   1.00
C1492  C     0.59955   0.69921   0.51479   0.00000  Uiso   1.00
H1493  H     0.62949   0.67568   0.99673   0.00000  Uiso   1.00
H1494  H     0.56821   0.68955   0.50463   0.00000  Uiso   1.00
H1495  H     0.58963   0.70049   0.56028   0.00000  Uiso   1.00
N1496  N     0.37453   0.86095   0.92224   0.00000  Uiso   1.00
H1497  H     0.35654   0.88942   0.93423   0.00000  Uiso   1.00
C1498  C     0.34197   0.82733   0.92954   0.00000  Uiso   1.00
H1499  H     0.64716   0.83530   0.91254   0.00000  Uiso   1.00
H1500  H     0.65728   0.82178   0.97408   0.00000  Uiso   1.00
H1501  H     0.36192   0.79851   0.90784   0.00000  Uiso   1.00
N1502  N     0.41890   0.86511   0.58284   0.00000  Uiso   1.00
H1503  H     0.42911   0.84197   0.60392   0.00000  Uiso   1.00
H1504  H     0.43026   0.89440   0.58954   0.00000  Uiso   1.00
N1505  N     0.35525   0.88480   0.53215   0.00000  Uiso   1.00
H1506  H     0.36181   0.91321   0.54779   0.00000  Uiso   1.00
H1507  H     0.33704   0.86647   0.56526   0.00000  Uiso   1.00
N1508  N     0.50998   0.75131   0.87709   0.00000  Uiso   1.00
H1509  H     0.53852   0.75594   0.84037   0.00000  Uiso   1.00
H1510  H     0.47699   0.75540   0.87223   0.00000  Uiso   1.00
N1511  N     0.58798   0.95533   0.69750   0.00000  Uiso   1.00
H1512  H     0.61143   0.96247   0.71778   0.00000  Uiso   1.00
H1513  H     0.60281   0.96559   0.65725   0.00000  Uiso   1.00
C1514  C     0.83327   0.91331   0.74830   0.00000  Uiso   1.00
C1515  C     0.81120   0.83115   0.99403   0.00000  Uiso   1.00
C1516  C     0.81593   0.81419   0.94131   0.00000  Uiso   1.00
C1517  C     0.84838   0.82066   0.51435   0.00000  Uiso   1.00
C1518  C     0.88161   0.78675   0.98986   0.00000  Uiso   1.00
C1519  C     0.87974   0.76606   0.94313   0.00000  Uiso   1.00
C1520  C     0.84770   0.77902   0.91881   0.00000  Uiso   1.00
C1521  C     0.85341   0.84251   0.55879   0.00000  Uiso   1.00
C1522  C     0.91023   0.79064   0.56592   0.00000  Uiso   1.00
C1523  C     0.78714   0.83152   0.91390   0.00000  Uiso   1.00
C1524  C     0.87645   0.97793   0.72523   0.00000  Uiso   1.00
C1525  C     0.80605   0.83252   0.85289   0.00000  Uiso   1.00
C1526  C     0.87591   0.68725   0.72881   0.00000  Uiso   1.00
C1527  C     0.83258   0.70967   0.75436   0.00000  Uiso   1.00
C1528  C     0.78871   0.68983   0.77745   0.00000  Uiso   1.00
C1529  C     0.78839   0.98072   0.76953   0.00000  Uiso   1.00
C1530  C     0.83258   0.95779   0.74664   0.00000  Uiso   1.00
C1531  C     0.98915   0.80917   0.71234   0.00000  Uiso   1.00
C1532  C     0.70304   0.80772   0.71422   0.00000  Uiso   1.00
C1533  C     0.67788   0.85777   0.78721   0.00000  Uiso   1.00
C1534  C     0.96344   0.85660   0.78851   0.00000  Uiso   1.00
C1535  C     0.83311   0.75361   0.75186   0.00000  Uiso   1.00
C1536  C     0.86054   0.83309   0.64754   0.00000  Uiso   1.00
C1537  C     0.91373   0.77255   0.51532   0.00000  Uiso   1.00
C1538  C     0.87868   0.82466   0.58840   0.00000  Uiso   1.00
C1539  C     0.74371   0.85313   0.94508   0.00000  Uiso   1.00
C1540  C     0.73395   0.86424   0.50039   0.00000  Uiso   1.00
C1541  C     0.76777   0.85514   0.52478   0.00000  Uiso   1.00
H1542  H     0.93032   0.77677   0.58879   0.00000  Uiso   1.00
H1543  H     0.90941   0.70276   0.71039   0.00000  Uiso   1.00
H1544  H     0.90193   0.73834   0.92578   0.00000  Uiso   1.00
H1545  H     0.83520   0.87203   0.57397   0.00000  Uiso   1.00
N1546  N     0.71426   0.83334   0.75001   0.00000  Uiso   1.00
N1547  N     0.95239   0.83331   0.75001   0.00000  Uiso   1.00
O1548  O     0.79512   0.89442   0.75001   0.00000  Uiso   1.00
O1549  O     0.87157   0.89441   0.75001   0.00000  Uiso   1.00
O1550  O     0.77613   0.83333   0.82681   0.00000  Uiso   1.00
O1551  O     0.85258   0.83332   0.82681   0.00000  Uiso   1.00
O1552  O     0.79510   0.77226   0.75000   0.00000  Uiso   1.00
O1553  O     0.87154   0.77225   0.75000   0.00000  Uiso   1.00
O1554  O     0.81409   0.83335   0.67319   0.00000  Uiso   1.00
O1555  O     0.89053   0.83334   0.67319   0.00000  Uiso   1.00
Zn1556 Zn    0.78229   0.83334   0.75000   0.00000  Uiso   1.00
Zn1557 Zn    0.88438   0.83333   0.75000   0.00000  Uiso   1.00
N1558  N     0.74401   0.71177   0.80881   0.00000  Uiso   1.00
H1559  H     0.74921   0.73283   0.83712   0.00000  Uiso   1.00
H1560  H     0.73052   0.72711   0.78234   0.00000  Uiso   1.00
N1561  N     0.74344   0.96174   0.78153   0.00000  Uiso   1.00
H1562  H     0.71745   0.97187   0.81853   0.00000  Uiso   1.00
C1563  C     0.72609   0.96267   0.73626   0.00000  Uiso   1.00
H1564  H     0.71910   0.99522   0.72732   0.00000  Uiso   1.00
H1565  H     0.69202   0.94615   0.74701   0.00000  Uiso   1.00
H1566  H     0.75288   0.94710   0.69861   0.00000  Uiso   1.00
N1567  N     0.98122   0.78556   0.66951   0.00000  Uiso   1.00
H1568  H     0.97297   0.80622   0.64380   0.00000  Uiso   1.00
H1569  H     0.95273   0.76628   0.68684   0.00000  Uiso   1.00
N1570  N     0.73876   0.77801   0.68020   0.00000  Uiso   1.00
H1571  H     0.72649   0.74842   0.69193   0.00000  Uiso   1.00
H1572  H     0.74178   0.78063   0.63923   0.00000  Uiso   1.00
N1573  N     0.68614   0.88258   0.82897   0.00000  Uiso   1.00
H1574  H     0.72252   0.88592   0.81938   0.00000  Uiso   1.00
H1575  H     0.67124   0.91238   0.83000   0.00000  Uiso   1.00
N1576  N     0.92716   0.87957   0.83264   0.00000  Uiso   1.00
H1577  H     0.90803   0.85925   0.86257   0.00000  Uiso   1.00
H1578  H     0.90485   0.89718   0.81821   0.00000  Uiso   1.00
N1579  N     0.94818   0.73919   0.99245   0.00000  Uiso   1.00
H1580  H     0.96505   0.73840   0.95017   0.00000  Uiso   1.00
C1581  C     0.93289   0.69921   0.51479   0.00000  Uiso   1.00
H1582  H     0.96282   0.67568   0.99673   0.00000  Uiso   1.00
H1583  H     0.90154   0.68955   0.50463   0.00000  Uiso   1.00
H1584  H     0.92296   0.70049   0.56028   0.00000  Uiso   1.00
N1585  N     0.70787   0.86095   0.92224   0.00000  Uiso   1.00
H1586  H     0.68987   0.88942   0.93423   0.00000  Uiso   1.00
C1587  C     0.67530   0.82733   0.92954   0.00000  Uiso   1.00
H1588  H     0.98049   0.83530   0.91254   0.00000  Uiso   1.00
H1589  H     0.99061   0.82178   0.97408   0.00000  Uiso   1.00
H1590  H     0.69526   0.79851   0.90784   0.00000  Uiso   1.00
N1591  N     0.75223   0.86511   0.58284   0.00000  Uiso   1.00
H1592  H     0.76244   0.84197   0.60392   0.00000  Uiso   1.00
H1593  H     0.76359   0.89440   0.58954   0.00000  Uiso   1.00
N1594  N     0.68859   0.88480   0.53215   0.00000  Uiso   1.00
H1595  H     0.69514   0.91321   0.54779   0.00000  Uiso   1.00
H1596  H     0.67038   0.86647   0.56526   0.00000  Uiso   1.00
N1597  N     0.84331   0.75131   0.87709   0.00000  Uiso   1.00
H1598  H     0.87185   0.75594   0.84037   0.00000  Uiso   1.00
H1599  H     0.81032   0.75540   0.87223   0.00000  Uiso   1.00
N1600  N     0.92131   0.95533   0.69750   0.00000  Uiso   1.00
H1601  H     0.94477   0.96247   0.71778   0.00000  Uiso   1.00
H1602  H     0.93615   0.96559   0.65725   0.00000  Uiso   1.00
loop_
_geom_bond_atom_site_label_1
_geom_bond_atom_site_label_2
_geom_bond_distance
_geom_bond_site_symmetry_2
_ccdc_geom_bond_type
C1     O35     1.294   .     A
C1     C17     1.437   .     S
C1     O36     1.296   .     A
C2     C3      1.421   .     A
C2     C805    1.428   .     S
C2     C829    1.441   .     S
C3     C7      1.425   .     A
C3     C10     1.414   .     A
C4     C8      1.396   .     A
C4     C803    1.428   1_554 S
C4     C806    1.425   1_554 S
C5     C6      1.393   .     A
C5     C805    1.425   .     S
C5     C825    1.421   .     S
C6     H31     1.082   .     S
C6     C7      1.386   .     A
C7     N84     1.434   .     S
C8     C25     1.384   .     A
C8     H32     1.074   .     S
C9     C25     1.393   .     A
C9     H29     1.083   .     S
C9     C24     1.395   .     A
C10    C26     1.407   .     A
C10    C12     1.482   .     S
C11    N87     1.435   .     S
C11    C17     1.409   .     A
C11    C280    1.376   .     S
C12    O37     1.304   .     A
C12    O38     1.307   .     A
C13    C14     1.391   .     A
C13    H30     1.083   .     S
C13    C545    1.376   1_545 S
C14    C22     1.421   .     S
C14    C15     1.408   .     A
C15    N45     1.440   .     S
C15    C550    1.380   1_545 S
C16    N48     1.423   .     S
C16    C17     1.412   .     A
C16    C282    1.380   .     S
C18    N34     1.379   .     A
C18    N54     1.428   .     S
C18    C108    1.428   .     S
C19    N57     1.432   .     S
C19    N33     1.367   .     A
C19    C196    1.428   1_455 S
C20    N60     1.430   .     S
C20    N33     1.373   .     A
C20    C199    1.416   1_455 S
C21    N34     1.376   .     A
C21    N63     1.432   .     S
C21    C109    1.416   .     S
C22    O40     1.297   .     A
C22    O39     1.286   .     A
C23    O42     1.297   .     A
C23    O41     1.302   .     A
C23    C25     1.450   .     S
C24    C806    1.421   1_554 S
C24    N867    1.424   1_554 S
C26    N72     1.420   .     S
C26    C828    1.397   .     S
C27    N81     1.437   .     S
C27    C28     1.403   .     A
C27    C827    1.397   1_554 S
C28    N78     1.436   .     S
C28    C803    1.441   1_554 S
N33    Zn43    2.031   .     S
N34    Zn44    2.030   .     S
O35    Zn43    2.018   .     S
O36    Zn44    1.996   .     S
O37    Zn43    1.941   .     S
O38    Zn44    1.877   .     S
O39    Zn43    1.996   .     S
O40    Zn44    2.018   .     S
O41    Zn43    1.877   .     S
O42    Zn44    1.941   .     S
N45    H46     1.045   .     S
N45    H47     1.044   .     S
N48    C50     1.450   .     S
N48    H49     1.031   .     S
C50    H52     1.109   .     S
C50    H53     1.111   .     S
C50    H51     1.111   .     S
N54    H56     1.039   .     S
N54    H55     1.042   .     S
N57    H59     1.044   .     S
N57    H58     1.045   .     S
N60    H62     1.043   .     S
N60    H61     1.032   .     S
N63    H65     1.038   .     S
N63    H64     1.043   .     S
N66    H67     1.030   .     S
N66    C825    1.424   .     S
N66    C869    1.446   .     S
C68    H71     1.111   .     S
C68    H70     1.111   .     S
C68    N867    1.446   1_554 S
C68    H870    1.110   1_554 S
H69    C869    1.110   .     S
N72    C74     1.447   .     S
N72    H73     1.032   .     S
C74    H77     1.111   .     S
C74    H253    1.110   1_455 S
C74    H254    1.109   1_455 S
H75    C163    1.110   .     S
H76    C163    1.109   .     S
N78    H80     1.045   .     S
N78    H79     1.040   .     S
N81    H82     1.046   .     S
N81    H83     1.046   .     S
N84    H86     1.043   .     S
N84    H85     1.042   .     S
N87    H88     1.046   .     S
N87    H89     1.046   .     S
C90    O124    1.294   .     A
C90    C106    1.437   .     S
C90    O125    1.296   .     A
C91    C92     1.421   .     A
C91    C894    1.428   .     S
C91    C918    1.441   .     S
C92    C96     1.425   .     A
C92    C99     1.414   .     A
C93    C97     1.396   .     A
C93    C892    1.428   1_554 S
C93    C895    1.425   1_554 S
C94    C95     1.393   .     A
C94    C894    1.425   .     S
C94    C914    1.421   .     S
C95    H120    1.082   .     S
C95    C96     1.386   .     A
C96    N173    1.434   .     S
C97    C114    1.384   .     A
C97    H121    1.074   .     S
C98    C114    1.393   .     A
C98    H118    1.083   .     S
C98    C113    1.395   .     A
C99    C115    1.407   .     A
C99    C101    1.482   .     S
C100   N176    1.435   .     S
C100   C106    1.409   .     A
C100   C369    1.376   .     S
C101   O126    1.304   .     A
C101   O127    1.307   .     A
C102   C103    1.391   .     A
C102   H119    1.083   .     S
C102   C634    1.376   1_545 S
C103   C111    1.421   .     S
C103   C104    1.408   .     A
C104   N134    1.440   .     S
C104   C639    1.380   1_545 S
C105   N137    1.423   .     S
C105   C106    1.412   .     A
C105   C371    1.380   .     S
C107   N123    1.379   .     A
C107   N143    1.428   .     S
C107   C197    1.428   .     S
C108   N146    1.432   .     S
C108   N122    1.367   .     A
C109   N149    1.430   .     S
C109   N122    1.373   .     A
C110   N123    1.376   .     A
C110   N152    1.432   .     S
C110   C198    1.416   .     S
C111   O129    1.297   .     A
C111   O128    1.286   .     A
C112   O131    1.297   .     A
C112   O130    1.302   .     A
C112   C114    1.450   .     S
C113   C895    1.421   1_554 S
C113   N956    1.424   1_554 S
C115   N161    1.420   .     S
C115   C917    1.397   .     S
C116   N170    1.437   .     S
C116   C117    1.403   .     A
C116   C916    1.397   1_554 S
C117   N167    1.436   .     S
C117   C892    1.441   1_554 S
N122   Zn132   2.031   .     S
N123   Zn133   2.030   .     S
O124   Zn132   2.018   .     S
O125   Zn133   1.996   .     S
O126   Zn132   1.941   .     S
O127   Zn133   1.877   .     S
O128   Zn132   1.996   .     S
O129   Zn133   2.018   .     S
O130   Zn132   1.877   .     S
O131   Zn133   1.941   .     S
N134   H135    1.045   .     S
N134   H136    1.044   .     S
N137   C139    1.450   .     S
N137   H138    1.031   .     S
C139   H141    1.109   .     S
C139   H142    1.111   .     S
C139   H140    1.111   .     S
N143   H145    1.039   .     S
N143   H144    1.042   .     S
N146   H148    1.044   .     S
N146   H147    1.045   .     S
N149   H151    1.043   .     S
N149   H150    1.032   .     S
N152   H154    1.038   .     S
N152   H153    1.043   .     S
N155   H156    1.030   .     S
N155   C914    1.424   .     S
N155   C958    1.446   .     S
C157   H160    1.111   .     S
C157   H159    1.111   .     S
C157   N956    1.446   1_554 S
C157   H959    1.110   1_554 S
H158   C958    1.110   .     S
N161   C163    1.447   .     S
N161   H162    1.032   .     S
C163   H166    1.111   .     S
H164   C252    1.110   .     S
H165   C252    1.109   .     S
N167   H169    1.045   .     S
N167   H168    1.040   .     S
N170   H171    1.046   .     S
N170   H172    1.046   .     S
N173   H175    1.043   .     S
N173   H174    1.042   .     S
N176   H177    1.046   .     S
N176   H178    1.046   .     S
C179   O213    1.294   .     A
C179   C195    1.437   .     S
C179   O214    1.296   .     A
C180   C181    1.421   .     A
C180   C983    1.428   .     S
C180   C1007   1.441   .     S
C181   C185    1.425   .     A
C181   C188    1.414   .     A
C182   C186    1.396   .     A
C182   C981    1.428   1_554 S
C182   C984    1.425   1_554 S
C183   C184    1.393   .     A
C183   C983    1.425   .     S
C183   C1003   1.421   .     S
C184   H209    1.082   .     S
C184   C185    1.386   .     A
C185   N262    1.434   .     S
C186   C203    1.384   .     A
C186   H210    1.074   .     S
C187   C203    1.393   .     A
C187   H207    1.083   .     S
C187   C202    1.395   .     A
C188   C204    1.407   .     A
C188   C190    1.482   .     S
C189   N265    1.435   .     S
C189   C195    1.409   .     A
C189   C458    1.376   .     S
C190   O215    1.304   .     A
C190   O216    1.307   .     A
C191   C192    1.391   .     A
C191   H208    1.083   .     S
C191   C723    1.376   1_545 S
C192   C200    1.421   .     S
C192   C193    1.408   .     A
C193   N223    1.440   .     S
C193   C728    1.380   1_545 S
C194   N226    1.423   .     S
C194   C195    1.412   .     A
C194   C460    1.380   .     S
C196   N212    1.379   .     A
C196   N232    1.428   .     S
C196   C19     1.428   1_655 S
C197   N235    1.432   .     S
C197   N211    1.367   .     A
C198   N238    1.430   .     S
C198   N211    1.373   .     A
C199   N212    1.376   .     A
C199   N241    1.432   .     S
C199   C20     1.416   1_655 S
C200   O218    1.297   .     A
C200   O217    1.286   .     A
C201   O220    1.297   .     A
C201   O219    1.302   .     A
C201   C203    1.450   .     S
C202   C984    1.421   1_554 S
C202   N1045   1.424   1_554 S
C204   N250    1.420   .     S
C204   C1006   1.397   .     S
C205   N259    1.437   .     S
C205   C206    1.403   .     A
C205   C1005   1.397   1_554 S
C206   N256    1.436   .     S
C206   C981    1.441   1_554 S
N211   Zn221   2.031   .     S
N212   Zn222   2.030   .     S
O213   Zn221   2.018   .     S
O214   Zn222   1.996   .     S
O215   Zn221   1.941   .     S
O216   Zn222   1.877   .     S
O217   Zn221   1.996   .     S
O218   Zn222   2.018   .     S
O219   Zn221   1.877   .     S
O220   Zn222   1.941   .     S
N223   H224    1.045   .     S
N223   H225    1.044   .     S
N226   C228    1.450   .     S
N226   H227    1.031   .     S
C228   H230    1.109   .     S
C228   H231    1.111   .     S
C228   H229    1.111   .     S
N232   H234    1.039   .     S
N232   H233    1.042   .     S
N235   H237    1.044   .     S
N235   H236    1.045   .     S
N238   H240    1.043   .     S
N238   H239    1.032   .     S
N241   H243    1.038   .     S
N241   H242    1.043   .     S
N244   H245    1.030   .     S
N244   C1003   1.424   .     S
N244   C1047   1.446   .     S
C246   H249    1.111   .     S
C246   H248    1.111   .     S
C246   N1045   1.446   1_554 S
C246   H1048   1.110   1_554 S
H247   C1047   1.110   .     S
N250   C252    1.447   .     S
N250   H251    1.032   .     S
C252   H255    1.111   .     S
H253   C74     1.110   1_655 S
H254   C74     1.109   1_655 S
N256   H258    1.045   .     S
N256   H257    1.040   .     S
N259   H260    1.046   .     S
N259   H261    1.046   .     S
N262   H264    1.043   .     S
N262   H263    1.042   .     S
N265   H266    1.046   .     S
N265   H267    1.046   .     S
C268   O302    1.294   .     A
C268   C284    1.437   .     S
C268   O303    1.296   .     A
C269   C270    1.421   .     A
C269   C1072   1.428   .     S
C269   C1096   1.441   .     S
C270   C274    1.425   .     A
C270   C277    1.414   .     A
C271   C275    1.396   .     A
C271   C1070   1.428   1_554 S
C271   C1073   1.425   1_554 S
C272   C273    1.393   .     A
C272   C1072   1.425   .     S
C272   C1092   1.421   .     S
C273   H298    1.082   .     S
C273   C274    1.386   .     A
C274   N351    1.434   .     S
C275   C292    1.384   .     A
C275   H299    1.074   .     S
C276   C292    1.393   .     A
C276   H296    1.083   .     S
C276   C291    1.395   .     A
C277   C293    1.407   .     A
C277   C279    1.482   .     S
C278   N354    1.435   .     S
C278   C284    1.409   .     A
C278   C547    1.376   .     S
C279   O304    1.304   .     A
C279   O305    1.307   .     A
C280   C281    1.391   .     A
C280   H297    1.083   .     S
C281   C289    1.421   .     S
C281   C282    1.408   .     A
C282   N312    1.440   .     S
C283   N315    1.423   .     S
C283   C284    1.412   .     A
C283   C549    1.380   .     S
C285   N301    1.379   .     A
C285   N321    1.428   .     S
C285   C375    1.428   .     S
C286   N324    1.432   .     S
C286   N300    1.367   .     A
C286   C463    1.428   1_455 S
C287   N327    1.430   .     S
C287   N300    1.373   .     A
C287   C466    1.416   1_455 S
C288   N301    1.376   .     A
C288   N330    1.432   .     S
C288   C376    1.416   .     S
C289   O307    1.297   .     A
C289   O306    1.286   .     A
C290   O309    1.297   .     A
C290   O308    1.302   .     A
C290   C292    1.450   .     S
C291   C1073   1.421   1_554 S
C291   N1134   1.424   1_554 S
C293   N339    1.420   .     S
C293   C1095   1.397   .     S
C294   N348    1.437   .     S
C294   C295    1.403   .     A
C294   C1094   1.397   1_554 S
C295   N345    1.436   .     S
C295   C1070   1.441   1_554 S
N300   Zn310   2.031   .     S
N301   Zn311   2.030   .     S
O302   Zn310   2.018   .     S
O303   Zn311   1.996   .     S
O304   Zn310   1.941   .     S
O305   Zn311   1.877   .     S
O306   Zn310   1.996   .     S
O307   Zn311   2.018   .     S
O308   Zn310   1.877   .     S
O309   Zn311   1.941   .     S
N312   H313    1.045   .     S
N312   H314    1.044   .     S
N315   C317    1.450   .     S
N315   H316    1.031   .     S
C317   H319    1.109   .     S
C317   H320    1.111   .     S
C317   H318    1.111   .     S
N321   H323    1.039   .     S
N321   H322    1.042   .     S
N324   H326    1.044   .     S
N324   H325    1.045   .     S
N327   H329    1.043   .     S
N327   H328    1.032   .     S
N330   H332    1.038   .     S
N330   H331    1.043   .     S
N333   H334    1.030   .     S
N333   C1092   1.424   .     S
N333   C1136   1.446   .     S
C335   H338    1.111   .     S
C335   H337    1.111   .     S
C335   N1134   1.446   1_554 S
C335   H1137   1.110   1_554 S
H336   C1136   1.110   .     S
N339   C341    1.447   .     S
N339   H340    1.032   .     S
C341   H344    1.111   .     S
C341   H520    1.110   1_455 S
C341   H521    1.109   1_455 S
H342   C430    1.110   .     S
H343   C430    1.109   .     S
N345   H347    1.045   .     S
N345   H346    1.040   .     S
N348   H349    1.046   .     S
N348   H350    1.046   .     S
N351   H353    1.043   .     S
N351   H352    1.042   .     S
N354   H355    1.046   .     S
N354   H356    1.046   .     S
C357   O391    1.294   .     A
C357   C373    1.437   .     S
C357   O392    1.296   .     A
C358   C359    1.421   .     A
C358   C1161   1.428   .     S
C358   C1185   1.441   .     S
C359   C363    1.425   .     A
C359   C366    1.414   .     A
C360   C364    1.396   .     A
C360   C1159   1.428   1_554 S
C360   C1162   1.425   1_554 S
C361   C362    1.393   .     A
C361   C1161   1.425   .     S
C361   C1181   1.421   .     S
C362   H387    1.082   .     S
C362   C363    1.386   .     A
C363   N440    1.434   .     S
C364   C381    1.384   .     A
C364   H388    1.074   .     S
C365   C381    1.393   .     A
C365   H385    1.083   .     S
C365   C380    1.395   .     A
C366   C382    1.407   .     A
C366   C368    1.482   .     S
C367   N443    1.435   .     S
C367   C373    1.409   .     A
C367   C636    1.376   .     S
C368   O393    1.304   .     A
C368   O394    1.307   .     A
C369   C370    1.391   .     A
C369   H386    1.083   .     S
C370   C378    1.421   .     S
C370   C371    1.408   .     A
C371   N401    1.440   .     S
C372   N404    1.423   .     S
C372   C373    1.412   .     A
C372   C638    1.380   .     S
C374   N390    1.379   .     A
C374   N410    1.428   .     S
C374   C464    1.428   .     S
C375   N413    1.432   .     S
C375   N389    1.367   .     A
C376   N416    1.430   .     S
C376   N389    1.373   .     A
C377   N390    1.376   .     A
C377   N419    1.432   .     S
C377   C465    1.416   .     S
C378   O396    1.297   .     A
C378   O395    1.286   .     A
C379   O398    1.297   .     A
C379   O397    1.302   .     A
C379   C381    1.450   .     S
C380   C1162   1.421   1_554 S
C380   N1223   1.424   1_554 S
C382   N428    1.420   .     S
C382   C1184   1.397   .     S
C383   N437    1.437   .     S
C383   C384    1.403   .     A
C383   C1183   1.397   1_554 S
C384   N434    1.436   .     S
C384   C1159   1.441   1_554 S
N389   Zn399   2.031   .     S
N390   Zn400   2.030   .     S
O391   Zn399   2.018   .     S
O392   Zn400   1.996   .     S
O393   Zn399   1.941   .     S
O394   Zn400   1.877   .     S
O395   Zn399   1.996   .     S
O396   Zn400   2.018   .     S
O397   Zn399   1.877   .     S
O398   Zn400   1.941   .     S
N401   H402    1.045   .     S
N401   H403    1.044   .     S
N404   C406    1.450   .     S
N404   H405    1.031   .     S
C406   H408    1.109   .     S
C406   H409    1.111   .     S
C406   H407    1.111   .     S
N410   H412    1.039   .     S
N410   H411    1.042   .     S
N413   H415    1.044   .     S
N413   H414    1.045   .     S
N416   H418    1.043   .     S
N416   H417    1.032   .     S
N419   H421    1.038   .     S
N419   H420    1.043   .     S
N422   H423    1.030   .     S
N422   C1181   1.424   .     S
N422   C1225   1.446   .     S
C424   H427    1.111   .     S
C424   H426    1.111   .     S
C424   N1223   1.446   1_554 S
C424   H1226   1.110   1_554 S
H425   C1225   1.110   .     S
N428   C430    1.447   .     S
N428   H429    1.032   .     S
C430   H433    1.111   .     S
H431   C519    1.110   .     S
H432   C519    1.109   .     S
N434   H436    1.045   .     S
N434   H435    1.040   .     S
N437   H438    1.046   .     S
N437   H439    1.046   .     S
N440   H442    1.043   .     S
N440   H441    1.042   .     S
N443   H444    1.046   .     S
N443   H445    1.046   .     S
C446   O480    1.294   .     A
C446   C462    1.437   .     S
C446   O481    1.296   .     A
C447   C448    1.421   .     A
C447   C1250   1.428   .     S
C447   C1274   1.441   .     S
C448   C452    1.425   .     A
C448   C455    1.414   .     A
C449   C453    1.396   .     A
C449   C1248   1.428   1_554 S
C449   C1251   1.425   1_554 S
C450   C451    1.393   .     A
C450   C1250   1.425   .     S
C450   C1270   1.421   .     S
C451   H476    1.082   .     S
C451   C452    1.386   .     A
C452   N529    1.434   .     S
C453   C470    1.384   .     A
C453   H477    1.074   .     S
C454   C470    1.393   .     A
C454   H474    1.083   .     S
C454   C469    1.395   .     A
C455   C471    1.407   .     A
C455   C457    1.482   .     S
C456   N532    1.435   .     S
C456   C462    1.409   .     A
C456   C725    1.376   .     S
C457   O482    1.304   .     A
C457   O483    1.307   .     A
C458   C459    1.391   .     A
C458   H475    1.083   .     S
C459   C467    1.421   .     S
C459   C460    1.408   .     A
C460   N490    1.440   .     S
C461   N493    1.423   .     S
C461   C462    1.412   .     A
C461   C727    1.380   .     S
C463   N479    1.379   .     A
C463   N499    1.428   .     S
C463   C286    1.428   1_655 S
C464   N502    1.432   .     S
C464   N478    1.367   .     A
C465   N505    1.430   .     S
C465   N478    1.373   .     A
C466   N479    1.376   .     A
C466   N508    1.432   .     S
C466   C287    1.416   1_655 S
C467   O485    1.297   .     A
C467   O484    1.286   .     A
C468   O487    1.297   .     A
C468   O486    1.302   .     A
C468   C470    1.450   .     S
C469   C1251   1.421   1_554 S
C469   N1312   1.424   1_554 S
C471   N517    1.420   .     S
C471   C1273   1.397   .     S
C472   N526    1.437   .     S
C472   C473    1.403   .     A
C472   C1272   1.397   1_554 S
C473   N523    1.436   .     S
C473   C1248   1.441   1_554 S
N478   Zn488   2.031   .     S
N479   Zn489   2.030   .     S
O480   Zn488   2.018   .     S
O481   Zn489   1.996   .     S
O482   Zn488   1.941   .     S
O483   Zn489   1.877   .     S
O484   Zn488   1.996   .     S
O485   Zn489   2.018   .     S
O486   Zn488   1.877   .     S
O487   Zn489   1.941   .     S
N490   H491    1.045   .     S
N490   H492    1.044   .     S
N493   C495    1.450   .     S
N493   H494    1.031   .     S
C495   H497    1.109   .     S
C495   H498    1.111   .     S
C495   H496    1.111   .     S
N499   H501    1.039   .     S
N499   H500    1.042   .     S
N502   H504    1.044   .     S
N502   H503    1.045   .     S
N505   H507    1.043   .     S
N505   H506    1.032   .     S
N508   H510    1.038   .     S
N508   H509    1.043   .     S
N511   H512    1.030   .     S
N511   C1270   1.424   .     S
N511   C1314   1.446   .     S
C513   H516    1.111   .     S
C513   H515    1.111   .     S
C513   N1312   1.446   1_554 S
C513   H1315   1.110   1_554 S
H514   C1314   1.110   .     S
N517   C519    1.447   .     S
N517   H518    1.032   .     S
C519   H522    1.111   .     S
H520   C341    1.110   1_655 S
H521   C341    1.109   1_655 S
N523   H525    1.045   .     S
N523   H524    1.040   .     S
N526   H527    1.046   .     S
N526   H528    1.046   .     S
N529   H531    1.043   .     S
N529   H530    1.042   .     S
N532   H533    1.046   .     S
N532   H534    1.046   .     S
C535   O569    1.294   .     A
C535   C551    1.437   .     S
C535   O570    1.296   .     A
C536   C537    1.421   .     A
C536   C1339   1.428   .     S
C536   C1363   1.441   .     S
C537   C541    1.425   .     A
C537   C544    1.414   .     A
C538   C542    1.396   .     A
C538   C1337   1.428   1_554 S
C538   C1340   1.425   1_554 S
C539   C540    1.393   .     A
C539   C1339   1.425   .     S
C539   C1359   1.421   .     S
C540   H565    1.082   .     S
C540   C541    1.386   .     A
C541   N618    1.434   .     S
C542   C559    1.384   .     A
C542   H566    1.074   .     S
C543   C559    1.393   .     A
C543   H563    1.083   .     S
C543   C558    1.395   .     A
C544   C560    1.407   .     A
C544   C546    1.482   .     S
C545   N621    1.435   .     S
C545   C551    1.409   .     A
C545   C13     1.376   1_565 S
C546   O571    1.304   .     A
C546   O572    1.307   .     A
C547   C548    1.391   .     A
C547   H564    1.083   .     S
C548   C556    1.421   .     S
C548   C549    1.408   .     A
C549   N579    1.440   .     S
C550   N582    1.423   .     S
C550   C551    1.412   .     A
C550   C15     1.380   1_565 S
C552   N568    1.379   .     A
C552   N588    1.428   .     S
C552   C642    1.428   .     S
C553   N591    1.432   .     S
C553   N567    1.367   .     A
C553   C730    1.428   1_455 S
C554   N594    1.430   .     S
C554   N567    1.373   .     A
C554   C733    1.416   1_455 S
C555   N568    1.376   .     A
C555   N597    1.432   .     S
C555   C643    1.416   .     S
C556   O574    1.297   .     A
C556   O573    1.286   .     A
C557   O576    1.297   .     A
C557   O575    1.302   .     A
C557   C559    1.450   .     S
C558   C1340   1.421   1_554 S
C558   N1401   1.424   1_554 S
C560   N606    1.420   .     S
C560   C1362   1.397   .     S
C561   N615    1.437   .     S
C561   C562    1.403   .     A
C561   C1361   1.397   1_554 S
C562   N612    1.436   .     S
C562   C1337   1.441   1_554 S
N567   Zn577   2.031   .     S
N568   Zn578   2.030   .     S
O569   Zn577   2.018   .     S
O570   Zn578   1.996   .     S
O571   Zn577   1.941   .     S
O572   Zn578   1.877   .     S
O573   Zn577   1.996   .     S
O574   Zn578   2.018   .     S
O575   Zn577   1.877   .     S
O576   Zn578   1.941   .     S
N579   H580    1.045   .     S
N579   H581    1.044   .     S
N582   C584    1.450   .     S
N582   H583    1.031   .     S
C584   H586    1.109   .     S
C584   H587    1.111   .     S
C584   H585    1.111   .     S
N588   H590    1.039   .     S
N588   H589    1.042   .     S
N591   H593    1.044   .     S
N591   H592    1.045   .     S
N594   H596    1.043   .     S
N594   H595    1.032   .     S
N597   H599    1.038   .     S
N597   H598    1.043   .     S
N600   H601    1.030   .     S
N600   C1359   1.424   .     S
N600   C1403   1.446   .     S
C602   H605    1.111   .     S
C602   H604    1.111   .     S
C602   N1401   1.446   1_554 S
C602   H1404   1.110   1_554 S
H603   C1403   1.110   .     S
N606   C608    1.447   .     S
N606   H607    1.032   .     S
C608   H611    1.111   .     S
C608   H787    1.110   1_455 S
C608   H788    1.109   1_455 S
H609   C697    1.110   .     S
H610   C697    1.109   .     S
N612   H614    1.045   .     S
N612   H613    1.040   .     S
N615   H616    1.046   .     S
N615   H617    1.046   .     S
N618   H620    1.043   .     S
N618   H619    1.042   .     S
N621   H622    1.046   .     S
N621   H623    1.046   .     S
C624   O658    1.294   .     A
C624   C640    1.437   .     S
C624   O659    1.296   .     A
C625   C626    1.421   .     A
C625   C1428   1.428   .     S
C625   C1452   1.441   .     S
C626   C630    1.425   .     A
C626   C633    1.414   .     A
C627   C631    1.396   .     A
C627   C1426   1.428   1_554 S
C627   C1429   1.425   1_554 S
C628   C629    1.393   .     A
C628   C1428   1.425   .     S
C628   C1448   1.421   .     S
C629   H654    1.082   .     S
C629   C630    1.386   .     A
C630   N707    1.434   .     S
C631   C648    1.384   .     A
C631   H655    1.074   .     S
C632   C648    1.393   .     A
C632   H652    1.083   .     S
C632   C647    1.395   .     A
C633   C649    1.407   .     A
C633   C635    1.482   .     S
C634   N710    1.435   .     S
C634   C640    1.409   .     A
C634   C102    1.376   1_565 S
C635   O660    1.304   .     A
C635   O661    1.307   .     A
C636   C637    1.391   .     A
C636   H653    1.083   .     S
C637   C645    1.421   .     S
C637   C638    1.408   .     A
C638   N668    1.440   .     S
C639   N671    1.423   .     S
C639   C640    1.412   .     A
C639   C104    1.380   1_565 S
C641   N657    1.379   .     A
C641   N677    1.428   .     S
C641   C731    1.428   .     S
C642   N680    1.432   .     S
C642   N656    1.367   .     A
C643   N683    1.430   .     S
C643   N656    1.373   .     A
C644   N657    1.376   .     A
C644   N686    1.432   .     S
C644   C732    1.416   .     S
C645   O663    1.297   .     A
C645   O662    1.286   .     A
C646   O665    1.297   .     A
C646   O664    1.302   .     A
C646   C648    1.450   .     S
C647   C1429   1.421   1_554 S
C647   N1490   1.424   1_554 S
C649   N695    1.420   .     S
C649   C1451   1.397   .     S
C650   N704    1.437   .     S
C650   C651    1.403   .     A
C650   C1450   1.397   1_554 S
C651   N701    1.436   .     S
C651   C1426   1.441   1_554 S
N656   Zn666   2.031   .     S
N657   Zn667   2.030   .     S
O658   Zn666   2.018   .     S
O659   Zn667   1.996   .     S
O660   Zn666   1.941   .     S
O661   Zn667   1.877   .     S
O662   Zn666   1.996   .     S
O663   Zn667   2.018   .     S
O664   Zn666   1.877   .     S
O665   Zn667   1.941   .     S
N668   H669    1.045   .     S
N668   H670    1.044   .     S
N671   C673    1.450   .     S
N671   H672    1.031   .     S
C673   H675    1.109   .     S
C673   H676    1.111   .     S
C673   H674    1.111   .     S
N677   H679    1.039   .     S
N677   H678    1.042   .     S
N680   H682    1.044   .     S
N680   H681    1.045   .     S
N683   H685    1.043   .     S
N683   H684    1.032   .     S
N686   H688    1.038   .     S
N686   H687    1.043   .     S
N689   H690    1.030   .     S
N689   C1448   1.424   .     S
N689   C1492   1.446   .     S
C691   H694    1.111   .     S
C691   H693    1.111   .     S
C691   N1490   1.446   1_554 S
C691   H1493   1.110   1_554 S
H692   C1492   1.110   .     S
N695   C697    1.447   .     S
N695   H696    1.032   .     S
C697   H700    1.111   .     S
H698   C786    1.110   .     S
H699   C786    1.109   .     S
N701   H703    1.045   .     S
N701   H702    1.040   .     S
N704   H705    1.046   .     S
N704   H706    1.046   .     S
N707   H709    1.043   .     S
N707   H708    1.042   .     S
N710   H711    1.046   .     S
N710   H712    1.046   .     S
C713   O747    1.294   .     A
C713   C729    1.437   .     S
C713   O748    1.296   .     A
C714   C715    1.421   .     A
C714   C1517   1.428   .     S
C714   C1541   1.441   .     S
C715   C719    1.425   .     A
C715   C722    1.414   .     A
C716   C720    1.396   .     A
C716   C1515   1.428   1_554 S
C716   C1518   1.425   1_554 S
C717   C718    1.393   .     A
C717   C1517   1.425   .     S
C717   C1537   1.421   .     S
C718   H743    1.082   .     S
C718   C719    1.386   .     A
C719   N796    1.434   .     S
C720   C737    1.384   .     A
C720   H744    1.074   .     S
C721   C737    1.393   .     A
C721   H741    1.083   .     S
C721   C736    1.395   .     A
C722   C738    1.407   .     A
C722   C724    1.482   .     S
C723   N799    1.435   .     S
C723   C729    1.409   .     A
C723   C191    1.376   1_565 S
C724   O749    1.304   .     A
C724   O750    1.307   .     A
C725   C726    1.391   .     A
C725   H742    1.083   .     S
C726   C734    1.421   .     S
C726   C727    1.408   .     A
C727   N757    1.440   .     S
C728   N760    1.423   .     S
C728   C729    1.412   .     A
C728   C193    1.380   1_565 S
C730   N746    1.379   .     A
C730   N766    1.428   .     S
C730   C553    1.428   1_655 S
C731   N769    1.432   .     S
C731   N745    1.367   .     A
C732   N772    1.430   .     S
C732   N745    1.373   .     A
C733   N746    1.376   .     A
C733   N775    1.432   .     S
C733   C554    1.416   1_655 S
C734   O752    1.297   .     A
C734   O751    1.286   .     A
C735   O754    1.297   .     A
C735   O753    1.302   .     A
C735   C737    1.450   .     S
C736   C1518   1.421   1_554 S
C736   N1579   1.424   1_554 S
C738   N784    1.420   .     S
C738   C1540   1.397   .     S
C739   N793    1.437   .     S
C739   C740    1.403   .     A
C739   C1539   1.397   1_554 S
C740   N790    1.436   .     S
C740   C1515   1.441   1_554 S
N745   Zn755   2.031   .     S
N746   Zn756   2.030   .     S
O747   Zn755   2.018   .     S
O748   Zn756   1.996   .     S
O749   Zn755   1.941   .     S
O750   Zn756   1.877   .     S
O751   Zn755   1.996   .     S
O752   Zn756   2.018   .     S
O753   Zn755   1.877   .     S
O754   Zn756   1.941   .     S
N757   H758    1.045   .     S
N757   H759    1.044   .     S
N760   C762    1.450   .     S
N760   H761    1.031   .     S
C762   H764    1.109   .     S
C762   H765    1.111   .     S
C762   H763    1.111   .     S
N766   H768    1.039   .     S
N766   H767    1.042   .     S
N769   H771    1.044   .     S
N769   H770    1.045   .     S
N772   H774    1.043   .     S
N772   H773    1.032   .     S
N775   H777    1.038   .     S
N775   H776    1.043   .     S
N778   H779    1.030   .     S
N778   C1537   1.424   .     S
N778   C1581   1.446   .     S
C780   H783    1.111   .     S
C780   H782    1.111   .     S
C780   N1579   1.446   1_554 S
C780   H1582   1.110   1_554 S
H781   C1581   1.110   .     S
N784   C786    1.447   .     S
N784   H785    1.032   .     S
C786   H789    1.111   .     S
H787   C608    1.110   1_655 S
H788   C608    1.109   1_655 S
N790   H792    1.045   .     S
N790   H791    1.040   .     S
N793   H794    1.046   .     S
N793   H795    1.046   .     S
N796   H798    1.043   .     S
N796   H797    1.042   .     S
N799   H800    1.046   .     S
N799   H801    1.046   .     S
C802   O836    1.294   .     A
C802   C818    1.437   .     S
C802   O837    1.296   .     A
C803   C804    1.421   .     A
C803   C4      1.428   1_556 S
C803   C28     1.441   1_556 S
C804   C808    1.425   .     A
C804   C811    1.414   .     A
C805   C809    1.396   .     A
C806   C807    1.393   .     A
C806   C4      1.425   1_556 S
C806   C24     1.421   1_556 S
C807   H832    1.082   .     S
C807   C808    1.386   .     A
C808   N885    1.434   .     S
C809   C826    1.384   .     A
C809   H833    1.074   .     S
C810   C826    1.393   .     A
C810   H830    1.083   .     S
C810   C825    1.395   .     A
C811   C827    1.407   .     A
C811   C813    1.482   .     S
C812   N888    1.435   .     S
C812   C818    1.409   .     A
C812   C1081   1.376   .     S
C813   O838    1.304   .     A
C813   O839    1.307   .     A
C814   C815    1.391   .     A
C814   H831    1.083   .     S
C814   C1346   1.376   1_545 S
C815   C823    1.421   .     S
C815   C816    1.408   .     A
C816   N846    1.440   .     S
C816   C1351   1.380   1_545 S
C817   N849    1.423   .     S
C817   C818    1.412   .     A
C817   C1083   1.380   .     S
C819   N835    1.379   .     A
C819   N855    1.428   .     S
C819   C909    1.428   .     S
C820   N858    1.432   .     S
C820   N834    1.367   .     A
C820   C997    1.428   1_455 S
C821   N861    1.430   .     S
C821   N834    1.373   .     A
C821   C1000   1.416   1_455 S
C822   N835    1.376   .     A
C822   N864    1.432   .     S
C822   C910    1.416   .     S
C823   O841    1.297   .     A
C823   O840    1.286   .     A
C824   O843    1.297   .     A
C824   O842    1.302   .     A
C824   C826    1.450   .     S
C827   N873    1.420   .     S
C827   C27     1.397   1_556 S
C828   N882    1.437   .     S
C828   C829    1.403   .     A
C829   N879    1.436   .     S
N834   Zn844   2.031   .     S
N835   Zn845   2.030   .     S
O836   Zn844   2.018   .     S
O837   Zn845   1.996   .     S
O838   Zn844   1.941   .     S
O839   Zn845   1.877   .     S
O840   Zn844   1.996   .     S
O841   Zn845   2.018   .     S
O842   Zn844   1.877   .     S
O843   Zn845   1.941   .     S
N846   H847    1.045   .     S
N846   H848    1.044   .     S
N849   C851    1.450   .     S
N849   H850    1.031   .     S
C851   H853    1.109   .     S
C851   H854    1.111   .     S
C851   H852    1.111   .     S
N855   H857    1.039   .     S
N855   H856    1.042   .     S
N858   H860    1.044   .     S
N858   H859    1.045   .     S
N861   H863    1.043   .     S
N861   H862    1.032   .     S
N864   H866    1.038   .     S
N864   H865    1.043   .     S
N867   H868    1.030   .     S
N867   C24     1.424   1_556 S
N867   C68     1.446   1_556 S
C869   H872    1.111   .     S
C869   H871    1.111   .     S
H870   C68     1.110   1_556 S
N873   C875    1.447   .     S
N873   H874    1.032   .     S
C875   H878    1.111   .     S
C875   H1054   1.110   1_455 S
C875   H1055   1.109   1_455 S
H876   C964    1.110   .     S
H877   C964    1.109   .     S
N879   H881    1.045   .     S
N879   H880    1.040   .     S
N882   H883    1.046   .     S
N882   H884    1.046   .     S
N885   H887    1.043   .     S
N885   H886    1.042   .     S
N888   H889    1.046   .     S
N888   H890    1.046   .     S
C891   O925    1.294   .     A
C891   C907    1.437   .     S
C891   O926    1.296   .     A
C892   C893    1.421   .     A
C892   C93     1.428   1_556 S
C892   C117    1.441   1_556 S
C893   C897    1.425   .     A
C893   C900    1.414   .     A
C894   C898    1.396   .     A
C895   C896    1.393   .     A
C895   C93     1.425   1_556 S
C895   C113    1.421   1_556 S
C896   H921    1.082   .     S
C896   C897    1.386   .     A
C897   N974    1.434   .     S
C898   C915    1.384   .     A
C898   H922    1.074   .     S
C899   C915    1.393   .     A
C899   H919    1.083   .     S
C899   C914    1.395   .     A
C900   C916    1.407   .     A
C900   C902    1.482   .     S
C901   N977    1.435   .     S
C901   C907    1.409   .     A
C901   C1170   1.376   .     S
C902   O927    1.304   .     A
C902   O928    1.307   .     A
C903   C904    1.391   .     A
C903   H920    1.083   .     S
C903   C1435   1.376   1_545 S
C904   C912    1.421   .     S
C904   C905    1.408   .     A
C905   N935    1.440   .     S
C905   C1440   1.380   1_545 S
C906   N938    1.423   .     S
C906   C907    1.412   .     A
C906   C1172   1.380   .     S
C908   N924    1.379   .     A
C908   N944    1.428   .     S
C908   C998    1.428   .     S
C909   N947    1.432   .     S
C909   N923    1.367   .     A
C910   N950    1.430   .     S
C910   N923    1.373   .     A
C911   N924    1.376   .     A
C911   N953    1.432   .     S
C911   C999    1.416   .     S
C912   O930    1.297   .     A
C912   O929    1.286   .     A
C913   O932    1.297   .     A
C913   O931    1.302   .     A
C913   C915    1.450   .     S
C916   N962    1.420   .     S
C916   C116    1.397   1_556 S
C917   N971    1.437   .     S
C917   C918    1.403   .     A
C918   N968    1.436   .     S
N923   Zn933   2.031   .     S
N924   Zn934   2.030   .     S
O925   Zn933   2.018   .     S
O926   Zn934   1.996   .     S
O927   Zn933   1.941   .     S
O928   Zn934   1.877   .     S
O929   Zn933   1.996   .     S
O930   Zn934   2.018   .     S
O931   Zn933   1.877   .     S
O932   Zn934   1.941   .     S
N935   H936    1.045   .     S
N935   H937    1.044   .     S
N938   C940    1.450   .     S
N938   H939    1.031   .     S
C940   H942    1.109   .     S
C940   H943    1.111   .     S
C940   H941    1.111   .     S
N944   H946    1.039   .     S
N944   H945    1.042   .     S
N947   H949    1.044   .     S
N947   H948    1.045   .     S
N950   H952    1.043   .     S
N950   H951    1.032   .     S
N953   H955    1.038   .     S
N953   H954    1.043   .     S
N956   H957    1.030   .     S
N956   C113    1.424   1_556 S
N956   C157    1.446   1_556 S
C958   H961    1.111   .     S
C958   H960    1.111   .     S
H959   C157    1.110   1_556 S
N962   C964    1.447   .     S
N962   H963    1.032   .     S
C964   H967    1.111   .     S
H965   C1053   1.110   .     S
H966   C1053   1.109   .     S
N968   H970    1.045   .     S
N968   H969    1.040   .     S
N971   H972    1.046   .     S
N971   H973    1.046   .     S
N974   H976    1.043   .     S
N974   H975    1.042   .     S
N977   H978    1.046   .     S
N977   H979    1.046   .     S
C980   O1014   1.294   .     A
C980   C996    1.437   .     S
C980   O1015   1.296   .     A
C981   C982    1.421   .     A
C981   C182    1.428   1_556 S
C981   C206    1.441   1_556 S
C982   C986    1.425   .     A
C982   C989    1.414   .     A
C983   C987    1.396   .     A
C984   C985    1.393   .     A
C984   C182    1.425   1_556 S
C984   C202    1.421   1_556 S
C985   H1010   1.082   .     S
C985   C986    1.386   .     A
C986   N1063   1.434   .     S
C987   C1004   1.384   .     A
C987   H1011   1.074   .     S
C988   C1004   1.393   .     A
C988   H1008   1.083   .     S
C988   C1003   1.395   .     A
C989   C1005   1.407   .     A
C989   C991    1.482   .     S
C990   N1066   1.435   .     S
C990   C996    1.409   .     A
C990   C1259   1.376   .     S
C991   O1016   1.304   .     A
C991   O1017   1.307   .     A
C992   C993    1.391   .     A
C992   H1009   1.083   .     S
C992   C1524   1.376   1_545 S
C993   C1001   1.421   .     S
C993   C994    1.408   .     A
C994   N1024   1.440   .     S
C994   C1529   1.380   1_545 S
C995   N1027   1.423   .     S
C995   C996    1.412   .     A
C995   C1261   1.380   .     S
C997   N1013   1.379   .     A
C997   N1033   1.428   .     S
C997   C820    1.428   1_655 S
C998   N1036   1.432   .     S
C998   N1012   1.367   .     A
C999   N1039   1.430   .     S
C999   N1012   1.373   .     A
C1000  N1013   1.376   .     A
C1000  N1042   1.432   .     S
C1000  C821    1.416   1_655 S
C1001  O1019   1.297   .     A
C1001  O1018   1.286   .     A
C1002  O1021   1.297   .     A
C1002  O1020   1.302   .     A
C1002  C1004   1.450   .     S
C1005  N1051   1.420   .     S
C1005  C205    1.397   1_556 S
C1006  N1060   1.437   .     S
C1006  C1007   1.403   .     A
C1007  N1057   1.436   .     S
N1012  Zn1022  2.031   .     S
N1013  Zn1023  2.030   .     S
O1014  Zn1022  2.018   .     S
O1015  Zn1023  1.996   .     S
O1016  Zn1022  1.941   .     S
O1017  Zn1023  1.877   .     S
O1018  Zn1022  1.996   .     S
O1019  Zn1023  2.018   .     S
O1020  Zn1022  1.877   .     S
O1021  Zn1023  1.941   .     S
N1024  H1025   1.045   .     S
N1024  H1026   1.044   .     S
N1027  C1029   1.450   .     S
N1027  H1028   1.031   .     S
C1029  H1031   1.109   .     S
C1029  H1032   1.111   .     S
C1029  H1030   1.111   .     S
N1033  H1035   1.039   .     S
N1033  H1034   1.042   .     S
N1036  H1038   1.044   .     S
N1036  H1037   1.045   .     S
N1039  H1041   1.043   .     S
N1039  H1040   1.032   .     S
N1042  H1044   1.038   .     S
N1042  H1043   1.043   .     S
N1045  H1046   1.030   .     S
N1045  C202    1.424   1_556 S
N1045  C246    1.446   1_556 S
C1047  H1050   1.111   .     S
C1047  H1049   1.111   .     S
H1048  C246    1.110   1_556 S
N1051  C1053   1.447   .     S
N1051  H1052   1.032   .     S
C1053  H1056   1.111   .     S
H1054  C875    1.110   1_655 S
H1055  C875    1.109   1_655 S
N1057  H1059   1.045   .     S
N1057  H1058   1.040   .     S
N1060  H1061   1.046   .     S
N1060  H1062   1.046   .     S
N1063  H1065   1.043   .     S
N1063  H1064   1.042   .     S
N1066  H1067   1.046   .     S
N1066  H1068   1.046   .     S
C1069  O1103   1.294   .     A
C1069  C1085   1.437   .     S
C1069  O1104   1.296   .     A
C1070  C1071   1.421   .     A
C1070  C271    1.428   1_556 S
C1070  C295    1.441   1_556 S
C1071  C1075   1.425   .     A
C1071  C1078   1.414   .     A
C1072  C1076   1.396   .     A
C1073  C1074   1.393   .     A
C1073  C271    1.425   1_556 S
C1073  C291    1.421   1_556 S
C1074  H1099   1.082   .     S
C1074  C1075   1.386   .     A
C1075  N1152   1.434   .     S
C1076  C1093   1.384   .     A
C1076  H1100   1.074   .     S
C1077  C1093   1.393   .     A
C1077  H1097   1.083   .     S
C1077  C1092   1.395   .     A
C1078  C1094   1.407   .     A
C1078  C1080   1.482   .     S
C1079  N1155   1.435   .     S
C1079  C1085   1.409   .     A
C1079  C1348   1.376   .     S
C1080  O1105   1.304   .     A
C1080  O1106   1.307   .     A
C1081  C1082   1.391   .     A
C1081  H1098   1.083   .     S
C1082  C1090   1.421   .     S
C1082  C1083   1.408   .     A
C1083  N1113   1.440   .     S
C1084  N1116   1.423   .     S
C1084  C1085   1.412   .     A
C1084  C1350   1.380   .     S
C1086  N1102   1.379   .     A
C1086  N1122   1.428   .     S
C1086  C1176   1.428   .     S
C1087  N1125   1.432   .     S
C1087  N1101   1.367   .     A
C1087  C1264   1.428   1_455 S
C1088  N1128   1.430   .     S
C1088  N1101   1.373   .     A
C1088  C1267   1.416   1_455 S
C1089  N1102   1.376   .     A
C1089  N1131   1.432   .     S
C1089  C1177   1.416   .     S
C1090  O1108   1.297   .     A
C1090  O1107   1.286   .     A
C1091  O1110   1.297   .     A
C1091  O1109   1.302   .     A
C1091  C1093   1.450   .     S
C1094  N1140   1.420   .     S
C1094  C294    1.397   1_556 S
C1095  N1149   1.437   .     S
C1095  C1096   1.403   .     A
C1096  N1146   1.436   .     S
N1101  Zn1111  2.031   .     S
N1102  Zn1112  2.030   .     S
O1103  Zn1111  2.018   .     S
O1104  Zn1112  1.996   .     S
O1105  Zn1111  1.941   .     S
O1106  Zn1112  1.877   .     S
O1107  Zn1111  1.996   .     S
O1108  Zn1112  2.018   .     S
O1109  Zn1111  1.877   .     S
O1110  Zn1112  1.941   .     S
N1113  H1114   1.045   .     S
N1113  H1115   1.044   .     S
N1116  C1118   1.450   .     S
N1116  H1117   1.031   .     S
C1118  H1120   1.109   .     S
C1118  H1121   1.111   .     S
C1118  H1119   1.111   .     S
N1122  H1124   1.039   .     S
N1122  H1123   1.042   .     S
N1125  H1127   1.044   .     S
N1125  H1126   1.045   .     S
N1128  H1130   1.043   .     S
N1128  H1129   1.032   .     S
N1131  H1133   1.038   .     S
N1131  H1132   1.043   .     S
N1134  H1135   1.030   .     S
N1134  C291    1.424   1_556 S
N1134  C335    1.446   1_556 S
C1136  H1139   1.111   .     S
C1136  H1138   1.111   .     S
H1137  C335    1.110   1_556 S
N1140  C1142   1.447   .     S
N1140  H1141   1.032   .     S
C1142  H1145   1.111   .     S
C1142  H1321   1.110   1_455 S
C1142  H1322   1.109   1_455 S
H1143  C1231   1.110   .     S
H1144  C1231   1.109   .     S
N1146  H1148   1.045   .     S
N1146  H1147   1.040   .     S
N1149  H1150   1.046   .     S
N1149  H1151   1.046   .     S
N1152  H1154   1.043   .     S
N1152  H1153   1.042   .     S
N1155  H1156   1.046   .     S
N1155  H1157   1.046   .     S
C1158  O1192   1.294   .     A
C1158  C1174   1.437   .     S
C1158  O1193   1.296   .     A
C1159  C1160   1.421   .     A
C1159  C360    1.428   1_556 S
C1159  C384    1.441   1_556 S
C1160  C1164   1.425   .     A
C1160  C1167   1.414   .     A
C1161  C1165   1.396   .     A
C1162  C1163   1.393   .     A
C1162  C360    1.425   1_556 S
C1162  C380    1.421   1_556 S
C1163  H1188   1.082   .     S
C1163  C1164   1.386   .     A
C1164  N1241   1.434   .     S
C1165  C1182   1.384   .     A
C1165  H1189   1.074   .     S
C1166  C1182   1.393   .     A
C1166  H1186   1.083   .     S
C1166  C1181   1.395   .     A
C1167  C1183   1.407   .     A
C1167  C1169   1.482   .     S
C1168  N1244   1.435   .     S
C1168  C1174   1.409   .     A
C1168  C1437   1.376   .     S
C1169  O1194   1.304   .     A
C1169  O1195   1.307   .     A
C1170  C1171   1.391   .     A
C1170  H1187   1.083   .     S
C1171  C1179   1.421   .     S
C1171  C1172   1.408   .     A
C1172  N1202   1.440   .     S
C1173  N1205   1.423   .     S
C1173  C1174   1.412   .     A
C1173  C1439   1.380   .     S
C1175  N1191   1.379   .     A
C1175  N1211   1.428   .     S
C1175  C1265   1.428   .     S
C1176  N1214   1.432   .     S
C1176  N1190   1.367   .     A
C1177  N1217   1.430   .     S
C1177  N1190   1.373   .     A
C1178  N1191   1.376   .     A
C1178  N1220   1.432   .     S
C1178  C1266   1.416   .     S
C1179  O1197   1.297   .     A
C1179  O1196   1.286   .     A
C1180  O1199   1.297   .     A
C1180  O1198   1.302   .     A
C1180  C1182   1.450   .     S
C1183  N1229   1.420   .     S
C1183  C383    1.397   1_556 S
C1184  N1238   1.437   .     S
C1184  C1185   1.403   .     A
C1185  N1235   1.436   .     S
N1190  Zn1200  2.031   .     S
N1191  Zn1201  2.030   .     S
O1192  Zn1200  2.018   .     S
O1193  Zn1201  1.996   .     S
O1194  Zn1200  1.941   .     S
O1195  Zn1201  1.877   .     S
O1196  Zn1200  1.996   .     S
O1197  Zn1201  2.018   .     S
O1198  Zn1200  1.877   .     S
O1199  Zn1201  1.941   .     S
N1202  H1203   1.045   .     S
N1202  H1204   1.044   .     S
N1205  C1207   1.450   .     S
N1205  H1206   1.031   .     S
C1207  H1209   1.109   .     S
C1207  H1210   1.111   .     S
C1207  H1208   1.111   .     S
N1211  H1213   1.039   .     S
N1211  H1212   1.042   .     S
N1214  H1216   1.044   .     S
N1214  H1215   1.045   .     S
N1217  H1219   1.043   .     S
N1217  H1218   1.032   .     S
N1220  H1222   1.038   .     S
N1220  H1221   1.043   .     S
N1223  H1224   1.030   .     S
N1223  C380    1.424   1_556 S
N1223  C424    1.446   1_556 S
C1225  H1228   1.111   .     S
C1225  H1227   1.111   .     S
H1226  C424    1.110   1_556 S
N1229  C1231   1.447   .     S
N1229  H1230   1.032   .     S
C1231  H1234   1.111   .     S
H1232  C1320   1.110   .     S
H1233  C1320   1.109   .     S
N1235  H1237   1.045   .     S
N1235  H1236   1.040   .     S
N1238  H1239   1.046   .     S
N1238  H1240   1.046   .     S
N1241  H1243   1.043   .     S
N1241  H1242   1.042   .     S
N1244  H1245   1.046   .     S
N1244  H1246   1.046   .     S
C1247  O1281   1.294   .     A
C1247  C1263   1.437   .     S
C1247  O1282   1.296   .     A
C1248  C1249   1.421   .     A
C1248  C449    1.428   1_556 S
C1248  C473    1.441   1_556 S
C1249  C1253   1.425   .     A
C1249  C1256   1.414   .     A
C1250  C1254   1.396   .     A
C1251  C1252   1.393   .     A
C1251  C449    1.425   1_556 S
C1251  C469    1.421   1_556 S
C1252  H1277   1.082   .     S
C1252  C1253   1.386   .     A
C1253  N1330   1.434   .     S
C1254  C1271   1.384   .     A
C1254  H1278   1.074   .     S
C1255  C1271   1.393   .     A
C1255  H1275   1.083   .     S
C1255  C1270   1.395   .     A
C1256  C1272   1.407   .     A
C1256  C1258   1.482   .     S
C1257  N1333   1.435   .     S
C1257  C1263   1.409   .     A
C1257  C1526   1.376   .     S
C1258  O1283   1.304   .     A
C1258  O1284   1.307   .     A
C1259  C1260   1.391   .     A
C1259  H1276   1.083   .     S
C1260  C1268   1.421   .     S
C1260  C1261   1.408   .     A
C1261  N1291   1.440   .     S
C1262  N1294   1.423   .     S
C1262  C1263   1.412   .     A
C1262  C1528   1.380   .     S
C1264  N1280   1.379   .     A
C1264  N1300   1.428   .     S
C1264  C1087   1.428   1_655 S
C1265  N1303   1.432   .     S
C1265  N1279   1.367   .     A
C1266  N1306   1.430   .     S
C1266  N1279   1.373   .     A
C1267  N1280   1.376   .     A
C1267  N1309   1.432   .     S
C1267  C1088   1.416   1_655 S
C1268  O1286   1.297   .     A
C1268  O1285   1.286   .     A
C1269  O1288   1.297   .     A
C1269  O1287   1.302   .     A
C1269  C1271   1.450   .     S
C1272  N1318   1.420   .     S
C1272  C472    1.397   1_556 S
C1273  N1327   1.437   .     S
C1273  C1274   1.403   .     A
C1274  N1324   1.436   .     S
N1279  Zn1289  2.031   .     S
N1280  Zn1290  2.030   .     S
O1281  Zn1289  2.018   .     S
O1282  Zn1290  1.996   .     S
O1283  Zn1289  1.941   .     S
O1284  Zn1290  1.877   .     S
O1285  Zn1289  1.996   .     S
O1286  Zn1290  2.018   .     S
O1287  Zn1289  1.877   .     S
O1288  Zn1290  1.941   .     S
N1291  H1292   1.045   .     S
N1291  H1293   1.044   .     S
N1294  C1296   1.450   .     S
N1294  H1295   1.031   .     S
C1296  H1298   1.109   .     S
C1296  H1299   1.111   .     S
C1296  H1297   1.111   .     S
N1300  H1302   1.039   .     S
N1300  H1301   1.042   .     S
N1303  H1305   1.044   .     S
N1303  H1304   1.045   .     S
N1306  H1308   1.043   .     S
N1306  H1307   1.032   .     S
N1309  H1311   1.038   .     S
N1309  H1310   1.043   .     S
N1312  H1313   1.030   .     S
N1312  C469    1.424   1_556 S
N1312  C513    1.446   1_556 S
C1314  H1317   1.111   .     S
C1314  H1316   1.111   .     S
H1315  C513    1.110   1_556 S
N1318  C1320   1.447   .     S
N1318  H1319   1.032   .     S
C1320  H1323   1.111   .     S
H1321  C1142   1.110   1_655 S
H1322  C1142   1.109   1_655 S
N1324  H1326   1.045   .     S
N1324  H1325   1.040   .     S
N1327  H1328   1.046   .     S
N1327  H1329   1.046   .     S
N1330  H1332   1.043   .     S
N1330  H1331   1.042   .     S
N1333  H1334   1.046   .     S
N1333  H1335   1.046   .     S
C1336  O1370   1.294   .     A
C1336  C1352   1.437   .     S
C1336  O1371   1.296   .     A
C1337  C1338   1.421   .     A
C1337  C538    1.428   1_556 S
C1337  C562    1.441   1_556 S
C1338  C1342   1.425   .     A
C1338  C1345   1.414   .     A
C1339  C1343   1.396   .     A
C1340  C1341   1.393   .     A
C1340  C538    1.425   1_556 S
C1340  C558    1.421   1_556 S
C1341  H1366   1.082   .     S
C1341  C1342   1.386   .     A
C1342  N1419   1.434   .     S
C1343  C1360   1.384   .     A
C1343  H1367   1.074   .     S
C1344  C1360   1.393   .     A
C1344  H1364   1.083   .     S
C1344  C1359   1.395   .     A
C1345  C1361   1.407   .     A
C1345  C1347   1.482   .     S
C1346  N1422   1.435   .     S
C1346  C1352   1.409   .     A
C1346  C814    1.376   1_565 S
C1347  O1372   1.304   .     A
C1347  O1373   1.307   .     A
C1348  C1349   1.391   .     A
C1348  H1365   1.083   .     S
C1349  C1357   1.421   .     S
C1349  C1350   1.408   .     A
C1350  N1380   1.440   .     S
C1351  N1383   1.423   .     S
C1351  C1352   1.412   .     A
C1351  C816    1.380   1_565 S
C1353  N1369   1.379   .     A
C1353  N1389   1.428   .     S
C1353  C1443   1.428   .     S
C1354  N1392   1.432   .     S
C1354  N1368   1.367   .     A
C1354  C1531   1.428   1_455 S
C1355  N1395   1.430   .     S
C1355  N1368   1.373   .     A
C1355  C1534   1.416   1_455 S
C1356  N1369   1.376   .     A
C1356  N1398   1.432   .     S
C1356  C1444   1.416   .     S
C1357  O1375   1.297   .     A
C1357  O1374   1.286   .     A
C1358  O1377   1.297   .     A
C1358  O1376   1.302   .     A
C1358  C1360   1.450   .     S
C1361  N1407   1.420   .     S
C1361  C561    1.397   1_556 S
C1362  N1416   1.437   .     S
C1362  C1363   1.403   .     A
C1363  N1413   1.436   .     S
N1368  Zn1378  2.031   .     S
N1369  Zn1379  2.030   .     S
O1370  Zn1378  2.018   .     S
O1371  Zn1379  1.996   .     S
O1372  Zn1378  1.941   .     S
O1373  Zn1379  1.877   .     S
O1374  Zn1378  1.996   .     S
O1375  Zn1379  2.018   .     S
O1376  Zn1378  1.877   .     S
O1377  Zn1379  1.941   .     S
N1380  H1381   1.045   .     S
N1380  H1382   1.044   .     S
N1383  C1385   1.450   .     S
N1383  H1384   1.031   .     S
C1385  H1387   1.109   .     S
C1385  H1388   1.111   .     S
C1385  H1386   1.111   .     S
N1389  H1391   1.039   .     S
N1389  H1390   1.042   .     S
N1392  H1394   1.044   .     S
N1392  H1393   1.045   .     S
N1395  H1397   1.043   .     S
N1395  H1396   1.032   .     S
N1398  H1400   1.038   .     S
N1398  H1399   1.043   .     S
N1401  H1402   1.030   .     S
N1401  C558    1.424   1_556 S
N1401  C602    1.446   1_556 S
C1403  H1406   1.111   .     S
C1403  H1405   1.111   .     S
H1404  C602    1.110   1_556 S
N1407  C1409   1.447   .     S
N1407  H1408   1.032   .     S
C1409  H1412   1.111   .     S
C1409  H1588   1.110   1_455 S
C1409  H1589   1.109   1_455 S
H1410  C1498   1.110   .     S
H1411  C1498   1.109   .     S
N1413  H1415   1.045   .     S
N1413  H1414   1.040   .     S
N1416  H1417   1.046   .     S
N1416  H1418   1.046   .     S
N1419  H1421   1.043   .     S
N1419  H1420   1.042   .     S
N1422  H1423   1.046   .     S
N1422  H1424   1.046   .     S
C1425  O1459   1.294   .     A
C1425  C1441   1.437   .     S
C1425  O1460   1.296   .     A
C1426  C1427   1.421   .     A
C1426  C627    1.428   1_556 S
C1426  C651    1.441   1_556 S
C1427  C1431   1.425   .     A
C1427  C1434   1.414   .     A
C1428  C1432   1.396   .     A
C1429  C1430   1.393   .     A
C1429  C627    1.425   1_556 S
C1429  C647    1.421   1_556 S
C1430  H1455   1.082   .     S
C1430  C1431   1.386   .     A
C1431  N1508   1.434   .     S
C1432  C1449   1.384   .     A
C1432  H1456   1.074   .     S
C1433  C1449   1.393   .     A
C1433  H1453   1.083   .     S
C1433  C1448   1.395   .     A
C1434  C1450   1.407   .     A
C1434  C1436   1.482   .     S
C1435  N1511   1.435   .     S
C1435  C1441   1.409   .     A
C1435  C903    1.376   1_565 S
C1436  O1461   1.304   .     A
C1436  O1462   1.307   .     A
C1437  C1438   1.391   .     A
C1437  H1454   1.083   .     S
C1438  C1446   1.421   .     S
C1438  C1439   1.408   .     A
C1439  N1469   1.440   .     S
C1440  N1472   1.423   .     S
C1440  C1441   1.412   .     A
C1440  C905    1.380   1_565 S
C1442  N1458   1.379   .     A
C1442  N1478   1.428   .     S
C1442  C1532   1.428   .     S
C1443  N1481   1.432   .     S
C1443  N1457   1.367   .     A
C1444  N1484   1.430   .     S
C1444  N1457   1.373   .     A
C1445  N1458   1.376   .     A
C1445  N1487   1.432   .     S
C1445  C1533   1.416   .     S
C1446  O1464   1.297   .     A
C1446  O1463   1.286   .     A
C1447  O1466   1.297   .     A
C1447  O1465   1.302   .     A
C1447  C1449   1.450   .     S
C1450  N1496   1.420   .     S
C1450  C650    1.397   1_556 S
C1451  N1505   1.437   .     S
C1451  C1452   1.403   .     A
C1452  N1502   1.436   .     S
N1457  Zn1467  2.031   .     S
N1458  Zn1468  2.030   .     S
O1459  Zn1467  2.018   .     S
O1460  Zn1468  1.996   .     S
O1461  Zn1467  1.941   .     S
O1462  Zn1468  1.877   .     S
O1463  Zn1467  1.996   .     S
O1464  Zn1468  2.018   .     S
O1465  Zn1467  1.877   .     S
O1466  Zn1468  1.941   .     S
N1469  H1470   1.045   .     S
N1469  H1471   1.044   .     S
N1472  C1474   1.450   .     S
N1472  H1473   1.031   .     S
C1474  H1476   1.109   .     S
C1474  H1477   1.111   .     S
C1474  H1475   1.111   .     S
N1478  H1480   1.039   .     S
N1478  H1479   1.042   .     S
N1481  H1483   1.044   .     S
N1481  H1482   1.045   .     S
N1484  H1486   1.043   .     S
N1484  H1485   1.032   .     S
N1487  H1489   1.038   .     S
N1487  H1488   1.043   .     S
N1490  H1491   1.030   .     S
N1490  C647    1.424   1_556 S
N1490  C691    1.446   1_556 S
C1492  H1495   1.111   .     S
C1492  H1494   1.111   .     S
H1493  C691    1.110   1_556 S
N1496  C1498   1.447   .     S
N1496  H1497   1.032   .     S
C1498  H1501   1.111   .     S
H1499  C1587   1.110   .     S
H1500  C1587   1.109   .     S
N1502  H1504   1.045   .     S
N1502  H1503   1.040   .     S
N1505  H1506   1.046   .     S
N1505  H1507   1.046   .     S
N1508  H1510   1.043   .     S
N1508  H1509   1.042   .     S
N1511  H1512   1.046   .     S
N1511  H1513   1.046   .     S
C1514  O1548   1.294   .     A
C1514  C1530   1.437   .     S
C1514  O1549   1.296   .     A
C1515  C1516   1.421   .     A
C1515  C716    1.428   1_556 S
C1515  C740    1.441   1_556 S
C1516  C1520   1.425   .     A
C1516  C1523   1.414   .     A
C1517  C1521   1.396   .     A
C1518  C1519   1.393   .     A
C1518  C716    1.425   1_556 S
C1518  C736    1.421   1_556 S
C1519  H1544   1.082   .     S
C1519  C1520   1.386   .     A
C1520  N1597   1.434   .     S
C1521  C1538   1.384   .     A
C1521  H1545   1.074   .     S
C1522  C1538   1.393   .     A
C1522  H1542   1.083   .     S
C1522  C1537   1.395   .     A
C1523  C1539   1.407   .     A
C1523  C1525   1.482   .     S
C1524  N1600   1.435   .     S
C1524  C1530   1.409   .     A
C1524  C992    1.376   1_565 S
C1525  O1550   1.304   .     A
C1525  O1551   1.307   .     A
C1526  C1527   1.391   .     A
C1526  H1543   1.083   .     S
C1527  C1535   1.421   .     S
C1527  C1528   1.408   .     A
C1528  N1558   1.440   .     S
C1529  N1561   1.423   .     S
C1529  C1530   1.412   .     A
C1529  C994    1.380   1_565 S
C1531  N1547   1.379   .     A
C1531  N1567   1.428   .     S
C1531  C1354   1.428   1_655 S
C1532  N1570   1.432   .     S
C1532  N1546   1.367   .     A
C1533  N1573   1.430   .     S
C1533  N1546   1.373   .     A
C1534  N1547   1.376   .     A
C1534  N1576   1.432   .     S
C1534  C1355   1.416   1_655 S
C1535  O1553   1.297   .     A
C1535  O1552   1.286   .     A
C1536  O1555   1.297   .     A
C1536  O1554   1.302   .     A
C1536  C1538   1.450   .     S
C1539  N1585   1.420   .     S
C1539  C739    1.397   1_556 S
C1540  N1594   1.437   .     S
C1540  C1541   1.403   .     A
C1541  N1591   1.436   .     S
N1546  Zn1556  2.031   .     S
N1547  Zn1557  2.030   .     S
O1548  Zn1556  2.018   .     S
O1549  Zn1557  1.996   .     S
O1550  Zn1556  1.941   .     S
O1551  Zn1557  1.877   .     S
O1552  Zn1556  1.996   .     S
O1553  Zn1557  2.018   .     S
O1554  Zn1556  1.877   .     S
O1555  Zn1557  1.941   .     S
N1558  H1559   1.045   .     S
N1558  H1560   1.044   .     S
N1561  C1563   1.450   .     S
N1561  H1562   1.031   .     S
C1563  H1565   1.109   .     S
C1563  H1566   1.111   .     S
C1563  H1564   1.111   .     S
N1567  H1569   1.039   .     S
N1567  H1568   1.042   .     S
N1570  H1572   1.044   .     S
N1570  H1571   1.045   .     S
N1573  H1575   1.043   .     S
N1573  H1574   1.032   .     S
N1576  H1578   1.038   .     S
N1576  H1577   1.043   .     S
N1579  H1580   1.030   .     S
N1579  C736    1.424   1_556 S
N1579  C780    1.446   1_556 S
C1581  H1584   1.111   .     S
C1581  H1583   1.111   .     S
H1582  C780    1.110   1_556 S
N1585  C1587   1.447   .     S
N1585  H1586   1.032   .     S
C1587  H1590   1.111   .     S
H1588  C1409   1.110   1_655 S
H1589  C1409   1.109   1_655 S
N1591  H1593   1.045   .     S
N1591  H1592   1.040   .     S
N1594  H1595   1.046   .     S
N1594  H1596   1.046   .     S
N1597  H1599   1.043   .     S
N1597  H1598   1.042   .     S
N1600  H1601   1.046   .     S
N1600  H1602   1.046   .     S
