data_str_m3_o2_o10_pcu_sym.160
_audit_creation_date              2020-01-03
_audit_creation_method            'Materials Studio'
_symmetry_space_group_name_H-M    'P1'
_symmetry_Int_Tables_number       1
_symmetry_cell_setting            triclinic
loop_
_symmetry_equiv_pos_as_xyz
  x,y,z
_cell_length_a                    25.7382
_cell_length_b                    29.9636
_cell_length_c                    28.4947
_cell_angle_alpha                 89.1845
_cell_angle_beta                  98.2345
_cell_angle_gamma                 91.3211
loop_
_atom_site_label
_atom_site_type_symbol
_atom_site_fract_x
_atom_site_fract_y
_atom_site_fract_z
_atom_site_U_iso_or_equiv
_atom_site_adp_type
_atom_site_occupancy
C1     C     0.16803   0.16382   0.25048   0.00000  Uiso   1.00
C2     C     0.16663   0.33573   0.24969   0.00000  Uiso   1.00
C3     C     0.12176   0.23381   0.04737   0.00000  Uiso   1.00
C4     C     0.18311   0.28971   0.44808   0.00000  Uiso   1.00
C5     C     0.12444   0.23247   0.09742   0.00000  Uiso   1.00
C6     C     0.18456   0.28706   0.39883   0.00000  Uiso   1.00
C7     C     0.20758   0.26914   0.10630   0.00000  Uiso   1.00
C8     C     0.14626   0.21451   0.39680   0.00000  Uiso   1.00
C9     C     0.20856   0.26678   0.05711   0.00000  Uiso   1.00
C10    C     0.14866   0.21422   0.44651   0.00000  Uiso   1.00
C11    C     0.16497   0.25097   0.02639   0.00000  Uiso   1.00
C12    C     0.16591   0.25198   0.47324   0.00000  Uiso   1.00
C13    C     0.06712   0.24930   0.23769   0.00000  Uiso   1.00
C14    C     0.26623   0.24991   0.26236   0.00000  Uiso   1.00
C15    C     0.01215   0.24800   0.23112   0.00000  Uiso   1.00
C16    C     0.32123   0.24999   0.26909   0.00000  Uiso   1.00
C17    C     0.18755   0.04419   0.28839   0.00000  Uiso   1.00
C18    C     0.12073   0.45223   0.23800   0.00000  Uiso   1.00
C19    C     0.19042   0.09045   0.29104   0.00000  Uiso   1.00
C20    C     0.11857   0.40589   0.23882   0.00000  Uiso   1.00
C21    C     0.16937   0.11549   0.25059   0.00000  Uiso   1.00
C22    C     0.16611   0.38320   0.24877   0.00000  Uiso   1.00
C23    C     0.14901   0.09407   0.20820   0.00000  Uiso   1.00
C24    C     0.21453   0.40571   0.25635   0.00000  Uiso   1.00
C25    C     0.14964   0.04795   0.20475   0.00000  Uiso   1.00
C26    C     0.21686   0.45202   0.25410   0.00000  Uiso   1.00
C27    C     0.16866   0.02324   0.24565   0.00000  Uiso   1.00
C28    C     0.16922   0.47503   0.24516   0.00000  Uiso   1.00
H29    H     0.32512   0.24531   0.19512   0.00000  Uiso   1.00
H30    H     0.00830   0.25216   0.30519   0.00000  Uiso   1.00
H31    H     0.20245   0.02403   0.31909   0.00000  Uiso   1.00
H32    H     0.08475   0.47092   0.23173   0.00000  Uiso   1.00
H33    H     0.13318   0.11354   0.17730   0.00000  Uiso   1.00
H34    H     0.25039   0.38687   0.26307   0.00000  Uiso   1.00
H35    H     0.09169   0.21859   0.11314   0.00000  Uiso   1.00
H36    H     0.19861   0.31561   0.38028   0.00000  Uiso   1.00
H37    H     0.24309   0.27854   0.04277   0.00000  Uiso   1.00
H38    H     0.13492   0.18492   0.46417   0.00000  Uiso   1.00
N39    N     0.16667   0.24999   0.12624   0.00000  Uiso   1.00
N40    N     0.16667   0.25001   0.37377   0.00000  Uiso   1.00
O41    O     0.16667   0.18454   0.28974   0.00000  Uiso   1.00
O42    O     0.16666   0.31547   0.21026   0.00000  Uiso   1.00
O43    O     0.16667   0.18453   0.21026   0.00000  Uiso   1.00
O44    O     0.16666   0.31547   0.28974   0.00000  Uiso   1.00
O45    O     0.09058   0.25000   0.28045   0.00000  Uiso   1.00
O46    O     0.24275   0.25000   0.21956   0.00000  Uiso   1.00
O47    O     0.09058   0.25000   0.20097   0.00000  Uiso   1.00
O48    O     0.24275   0.25001   0.29904   0.00000  Uiso   1.00
Zn49   Zn    0.16667   0.25001   0.30307   0.00000  Uiso   1.00
Zn50   Zn    0.16667   0.25000   0.19693   0.00000  Uiso   1.00
C51    C     0.21881   0.11106   0.33483   0.00000  Uiso   1.00
H52    H     0.23631   0.14424   0.33398   0.00000  Uiso   1.00
O53    O     0.22419   0.09057   0.37252   0.00000  Uiso   1.00
C54    C     0.06711   0.38170   0.22922   0.00000  Uiso   1.00
H55    H     0.06450   0.34586   0.23434   0.00000  Uiso   1.00
O56    O     0.02690   0.40150   0.21488   0.00000  Uiso   1.00
C57    C     0.13186   0.02636   0.15831   0.00000  Uiso   1.00
H58    H     0.13690   0.49093   0.15381   0.00000  Uiso   1.00
O59    O     0.11163   0.04804   0.12418   0.00000  Uiso   1.00
C60    C     0.26874   0.47574   0.26028   0.00000  Uiso   1.00
H61    H     0.27185   0.01075   0.25068   0.00000  Uiso   1.00
O62    O     0.30875   0.45646   0.27647   0.00000  Uiso   1.00
N63    N     0.07463   0.21901   0.01836   0.00000  Uiso   1.00
H64    H     0.04370   0.23801   0.02668   0.00000  Uiso   1.00
H65    H     0.06717   0.18578   0.02745   0.00000  Uiso   1.00
N66    N     0.19591   0.33196   0.47024   0.00000  Uiso   1.00
H67    H     0.16930   0.33837   0.49369   0.00000  Uiso   1.00
H68    H     0.23392   0.33120   0.48870   0.00000  Uiso   1.00
C69    C     0.24917   0.29603   0.13474   0.00000  Uiso   1.00
H70    H     0.24174   0.31224   0.16660   0.00000  Uiso   1.00
O71    O     0.29208   0.30197   0.12181   0.00000  Uiso   1.00
C72    C     0.11706   0.17778   0.37013   0.00000  Uiso   1.00
H73    H     0.09584   0.18378   0.33516   0.00000  Uiso   1.00
O74    O     0.11459   0.14051   0.38771   0.00000  Uiso   1.00
C75    C     0.50136   0.16382   0.25048   0.00000  Uiso   1.00
C76    C     0.49996   0.33573   0.24969   0.00000  Uiso   1.00
C77    C     0.45509   0.23381   0.04737   0.00000  Uiso   1.00
C78    C     0.51644   0.28971   0.44808   0.00000  Uiso   1.00
C79    C     0.45777   0.23247   0.09742   0.00000  Uiso   1.00
C80    C     0.51789   0.28706   0.39883   0.00000  Uiso   1.00
C81    C     0.54091   0.26914   0.10630   0.00000  Uiso   1.00
C82    C     0.47960   0.21451   0.39680   0.00000  Uiso   1.00
C83    C     0.54190   0.26678   0.05711   0.00000  Uiso   1.00
C84    C     0.48199   0.21422   0.44651   0.00000  Uiso   1.00
C85    C     0.49830   0.25097   0.02639   0.00000  Uiso   1.00
C86    C     0.49924   0.25198   0.47324   0.00000  Uiso   1.00
C87    C     0.40045   0.24930   0.23769   0.00000  Uiso   1.00
C88    C     0.59956   0.24991   0.26236   0.00000  Uiso   1.00
C89    C     0.34548   0.24800   0.23112   0.00000  Uiso   1.00
C90    C     0.65456   0.24999   0.26909   0.00000  Uiso   1.00
C91    C     0.52089   0.04419   0.28839   0.00000  Uiso   1.00
C92    C     0.45406   0.45223   0.23800   0.00000  Uiso   1.00
C93    C     0.52375   0.09045   0.29104   0.00000  Uiso   1.00
C94    C     0.45190   0.40589   0.23882   0.00000  Uiso   1.00
C95    C     0.50270   0.11549   0.25059   0.00000  Uiso   1.00
C96    C     0.49944   0.38320   0.24877   0.00000  Uiso   1.00
C97    C     0.48235   0.09407   0.20820   0.00000  Uiso   1.00
C98    C     0.54786   0.40571   0.25635   0.00000  Uiso   1.00
C99    C     0.48297   0.04795   0.20475   0.00000  Uiso   1.00
C100   C     0.55020   0.45202   0.25410   0.00000  Uiso   1.00
C101   C     0.50199   0.02324   0.24565   0.00000  Uiso   1.00
C102   C     0.50255   0.47503   0.24516   0.00000  Uiso   1.00
H103   H     0.65846   0.24531   0.19512   0.00000  Uiso   1.00
H104   H     0.34164   0.25216   0.30519   0.00000  Uiso   1.00
H105   H     0.53578   0.02403   0.31909   0.00000  Uiso   1.00
H106   H     0.41809   0.47092   0.23173   0.00000  Uiso   1.00
H107   H     0.46651   0.11354   0.17730   0.00000  Uiso   1.00
H108   H     0.58372   0.38687   0.26307   0.00000  Uiso   1.00
H109   H     0.42503   0.21859   0.11314   0.00000  Uiso   1.00
H110   H     0.53194   0.31561   0.38028   0.00000  Uiso   1.00
H111   H     0.57642   0.27854   0.04277   0.00000  Uiso   1.00
H112   H     0.46825   0.18492   0.46417   0.00000  Uiso   1.00
N113   N     0.50000   0.24999   0.12624   0.00000  Uiso   1.00
N114   N     0.50000   0.25001   0.37377   0.00000  Uiso   1.00
O115   O     0.50000   0.18454   0.28974   0.00000  Uiso   1.00
O116   O     0.50000   0.31547   0.21026   0.00000  Uiso   1.00
O117   O     0.50000   0.18453   0.21026   0.00000  Uiso   1.00
O118   O     0.50000   0.31547   0.28974   0.00000  Uiso   1.00
O119   O     0.42392   0.25000   0.28045   0.00000  Uiso   1.00
O120   O     0.57608   0.25000   0.21956   0.00000  Uiso   1.00
O121   O     0.42392   0.25000   0.20097   0.00000  Uiso   1.00
O122   O     0.57608   0.25001   0.29904   0.00000  Uiso   1.00
Zn123  Zn    0.50000   0.25001   0.30307   0.00000  Uiso   1.00
Zn124  Zn    0.50000   0.25000   0.19693   0.00000  Uiso   1.00
C125   C     0.55215   0.11106   0.33483   0.00000  Uiso   1.00
H126   H     0.56964   0.14424   0.33398   0.00000  Uiso   1.00
O127   O     0.55753   0.09057   0.37252   0.00000  Uiso   1.00
C128   C     0.40044   0.38170   0.22922   0.00000  Uiso   1.00
H129   H     0.39783   0.34586   0.23434   0.00000  Uiso   1.00
O130   O     0.36023   0.40150   0.21488   0.00000  Uiso   1.00
C131   C     0.46519   0.02636   0.15831   0.00000  Uiso   1.00
H132   H     0.47023   0.49093   0.15381   0.00000  Uiso   1.00
O133   O     0.44496   0.04804   0.12418   0.00000  Uiso   1.00
C134   C     0.60207   0.47574   0.26028   0.00000  Uiso   1.00
H135   H     0.60518   0.01075   0.25068   0.00000  Uiso   1.00
O136   O     0.64208   0.45646   0.27647   0.00000  Uiso   1.00
N137   N     0.40797   0.21901   0.01836   0.00000  Uiso   1.00
H138   H     0.37703   0.23801   0.02668   0.00000  Uiso   1.00
H139   H     0.40050   0.18578   0.02745   0.00000  Uiso   1.00
N140   N     0.52924   0.33196   0.47024   0.00000  Uiso   1.00
H141   H     0.50264   0.33837   0.49369   0.00000  Uiso   1.00
H142   H     0.56726   0.33120   0.48870   0.00000  Uiso   1.00
C143   C     0.58251   0.29603   0.13474   0.00000  Uiso   1.00
H144   H     0.57507   0.31224   0.16660   0.00000  Uiso   1.00
O145   O     0.62541   0.30197   0.12181   0.00000  Uiso   1.00
C146   C     0.45039   0.17778   0.37013   0.00000  Uiso   1.00
H147   H     0.42918   0.18378   0.33516   0.00000  Uiso   1.00
O148   O     0.44792   0.14051   0.38771   0.00000  Uiso   1.00
C149   C     0.83469   0.16382   0.25048   0.00000  Uiso   1.00
C150   C     0.83330   0.33573   0.24969   0.00000  Uiso   1.00
C151   C     0.78843   0.23381   0.04737   0.00000  Uiso   1.00
C152   C     0.84978   0.28971   0.44808   0.00000  Uiso   1.00
C153   C     0.79110   0.23247   0.09742   0.00000  Uiso   1.00
C154   C     0.85123   0.28706   0.39883   0.00000  Uiso   1.00
C155   C     0.87425   0.26914   0.10630   0.00000  Uiso   1.00
C156   C     0.81293   0.21451   0.39680   0.00000  Uiso   1.00
C157   C     0.87523   0.26678   0.05711   0.00000  Uiso   1.00
C158   C     0.81532   0.21422   0.44651   0.00000  Uiso   1.00
C159   C     0.83164   0.25097   0.02639   0.00000  Uiso   1.00
C160   C     0.83258   0.25198   0.47324   0.00000  Uiso   1.00
C161   C     0.73379   0.24930   0.23769   0.00000  Uiso   1.00
C162   C     0.93289   0.24991   0.26236   0.00000  Uiso   1.00
C163   C     0.67881   0.24800   0.23112   0.00000  Uiso   1.00
C164   C     0.98789   0.24999   0.26909   0.00000  Uiso   1.00
C165   C     0.85422   0.04419   0.28839   0.00000  Uiso   1.00
C166   C     0.78740   0.45223   0.23800   0.00000  Uiso   1.00
C167   C     0.85709   0.09045   0.29104   0.00000  Uiso   1.00
C168   C     0.78524   0.40589   0.23882   0.00000  Uiso   1.00
C169   C     0.83604   0.11549   0.25059   0.00000  Uiso   1.00
C170   C     0.83278   0.38320   0.24877   0.00000  Uiso   1.00
C171   C     0.81568   0.09407   0.20820   0.00000  Uiso   1.00
C172   C     0.88119   0.40571   0.25635   0.00000  Uiso   1.00
C173   C     0.81631   0.04795   0.20475   0.00000  Uiso   1.00
C174   C     0.88353   0.45202   0.25410   0.00000  Uiso   1.00
C175   C     0.83533   0.02324   0.24565   0.00000  Uiso   1.00
C176   C     0.83589   0.47503   0.24516   0.00000  Uiso   1.00
H177   H     0.99179   0.24531   0.19512   0.00000  Uiso   1.00
H178   H     0.67497   0.25216   0.30519   0.00000  Uiso   1.00
H179   H     0.86912   0.02403   0.31909   0.00000  Uiso   1.00
H180   H     0.75142   0.47092   0.23173   0.00000  Uiso   1.00
H181   H     0.79984   0.11354   0.17730   0.00000  Uiso   1.00
H182   H     0.91705   0.38687   0.26307   0.00000  Uiso   1.00
H183   H     0.75836   0.21859   0.11314   0.00000  Uiso   1.00
H184   H     0.86527   0.31561   0.38028   0.00000  Uiso   1.00
H185   H     0.90976   0.27854   0.04277   0.00000  Uiso   1.00
H186   H     0.80159   0.18492   0.46417   0.00000  Uiso   1.00
N187   N     0.83333   0.24999   0.12624   0.00000  Uiso   1.00
N188   N     0.83333   0.25001   0.37377   0.00000  Uiso   1.00
O189   O     0.83334   0.18454   0.28974   0.00000  Uiso   1.00
O190   O     0.83333   0.31547   0.21026   0.00000  Uiso   1.00
O191   O     0.83334   0.18453   0.21026   0.00000  Uiso   1.00
O192   O     0.83333   0.31547   0.28974   0.00000  Uiso   1.00
O193   O     0.75725   0.25000   0.28045   0.00000  Uiso   1.00
O194   O     0.90942   0.25000   0.21956   0.00000  Uiso   1.00
O195   O     0.75725   0.25000   0.20097   0.00000  Uiso   1.00
O196   O     0.90942   0.25001   0.29904   0.00000  Uiso   1.00
Zn197  Zn    0.83333   0.25001   0.30307   0.00000  Uiso   1.00
Zn198  Zn    0.83333   0.25000   0.19693   0.00000  Uiso   1.00
C199   C     0.88548   0.11106   0.33483   0.00000  Uiso   1.00
H200   H     0.90298   0.14424   0.33398   0.00000  Uiso   1.00
O201   O     0.89086   0.09057   0.37252   0.00000  Uiso   1.00
C202   C     0.73378   0.38170   0.22922   0.00000  Uiso   1.00
H203   H     0.73117   0.34586   0.23434   0.00000  Uiso   1.00
O204   O     0.69357   0.40150   0.21488   0.00000  Uiso   1.00
C205   C     0.79853   0.02636   0.15831   0.00000  Uiso   1.00
H206   H     0.80357   0.49093   0.15381   0.00000  Uiso   1.00
O207   O     0.77829   0.04804   0.12418   0.00000  Uiso   1.00
C208   C     0.93540   0.47574   0.26028   0.00000  Uiso   1.00
H209   H     0.93852   0.01075   0.25068   0.00000  Uiso   1.00
O210   O     0.97541   0.45646   0.27647   0.00000  Uiso   1.00
N211   N     0.74130   0.21901   0.01836   0.00000  Uiso   1.00
H212   H     0.71036   0.23801   0.02668   0.00000  Uiso   1.00
H213   H     0.73384   0.18578   0.02745   0.00000  Uiso   1.00
N214   N     0.86257   0.33196   0.47024   0.00000  Uiso   1.00
H215   H     0.83597   0.33837   0.49369   0.00000  Uiso   1.00
H216   H     0.90059   0.33120   0.48870   0.00000  Uiso   1.00
C217   C     0.91584   0.29603   0.13474   0.00000  Uiso   1.00
H218   H     0.90840   0.31224   0.16660   0.00000  Uiso   1.00
O219   O     0.95875   0.30197   0.12181   0.00000  Uiso   1.00
C220   C     0.78372   0.17778   0.37013   0.00000  Uiso   1.00
H221   H     0.76251   0.18378   0.33516   0.00000  Uiso   1.00
O222   O     0.78126   0.14051   0.38771   0.00000  Uiso   1.00
C223   C     0.16803   0.66382   0.25048   0.00000  Uiso   1.00
C224   C     0.16663   0.83573   0.24969   0.00000  Uiso   1.00
C225   C     0.12176   0.73381   0.04737   0.00000  Uiso   1.00
C226   C     0.18311   0.78971   0.44808   0.00000  Uiso   1.00
C227   C     0.12444   0.73247   0.09742   0.00000  Uiso   1.00
C228   C     0.18456   0.78706   0.39883   0.00000  Uiso   1.00
C229   C     0.20758   0.76914   0.10630   0.00000  Uiso   1.00
C230   C     0.14626   0.71451   0.39680   0.00000  Uiso   1.00
C231   C     0.20856   0.76678   0.05711   0.00000  Uiso   1.00
C232   C     0.14866   0.71422   0.44651   0.00000  Uiso   1.00
C233   C     0.16497   0.75097   0.02639   0.00000  Uiso   1.00
C234   C     0.16591   0.75198   0.47324   0.00000  Uiso   1.00
C235   C     0.06712   0.74930   0.23769   0.00000  Uiso   1.00
C236   C     0.26623   0.74991   0.26236   0.00000  Uiso   1.00
C237   C     0.01215   0.74800   0.23112   0.00000  Uiso   1.00
C238   C     0.32123   0.74999   0.26909   0.00000  Uiso   1.00
C239   C     0.18755   0.54419   0.28839   0.00000  Uiso   1.00
C240   C     0.12073   0.95223   0.23800   0.00000  Uiso   1.00
C241   C     0.19042   0.59045   0.29104   0.00000  Uiso   1.00
C242   C     0.11857   0.90589   0.23882   0.00000  Uiso   1.00
C243   C     0.16937   0.61549   0.25059   0.00000  Uiso   1.00
C244   C     0.16611   0.88320   0.24877   0.00000  Uiso   1.00
C245   C     0.14901   0.59407   0.20820   0.00000  Uiso   1.00
C246   C     0.21453   0.90571   0.25635   0.00000  Uiso   1.00
C247   C     0.14964   0.54795   0.20475   0.00000  Uiso   1.00
C248   C     0.21686   0.95202   0.25410   0.00000  Uiso   1.00
C249   C     0.16866   0.52324   0.24565   0.00000  Uiso   1.00
C250   C     0.16922   0.97503   0.24516   0.00000  Uiso   1.00
H251   H     0.32512   0.74531   0.19512   0.00000  Uiso   1.00
H252   H     0.00830   0.75216   0.30519   0.00000  Uiso   1.00
H253   H     0.20245   0.52403   0.31909   0.00000  Uiso   1.00
H254   H     0.08475   0.97092   0.23173   0.00000  Uiso   1.00
H255   H     0.13318   0.61354   0.17730   0.00000  Uiso   1.00
H256   H     0.25039   0.88687   0.26307   0.00000  Uiso   1.00
H257   H     0.09169   0.71859   0.11314   0.00000  Uiso   1.00
H258   H     0.19861   0.81561   0.38028   0.00000  Uiso   1.00
H259   H     0.24309   0.77854   0.04277   0.00000  Uiso   1.00
H260   H     0.13492   0.68492   0.46417   0.00000  Uiso   1.00
N261   N     0.16667   0.74999   0.12624   0.00000  Uiso   1.00
N262   N     0.16667   0.75001   0.37377   0.00000  Uiso   1.00
O263   O     0.16667   0.68454   0.28974   0.00000  Uiso   1.00
O264   O     0.16666   0.81547   0.21026   0.00000  Uiso   1.00
O265   O     0.16667   0.68453   0.21026   0.00000  Uiso   1.00
O266   O     0.16666   0.81547   0.28974   0.00000  Uiso   1.00
O267   O     0.09058   0.75000   0.28045   0.00000  Uiso   1.00
O268   O     0.24275   0.75000   0.21956   0.00000  Uiso   1.00
O269   O     0.09058   0.75000   0.20097   0.00000  Uiso   1.00
O270   O     0.24275   0.75001   0.29904   0.00000  Uiso   1.00
Zn271  Zn    0.16667   0.75001   0.30307   0.00000  Uiso   1.00
Zn272  Zn    0.16667   0.75000   0.19693   0.00000  Uiso   1.00
C273   C     0.21881   0.61106   0.33483   0.00000  Uiso   1.00
H274   H     0.23631   0.64424   0.33398   0.00000  Uiso   1.00
O275   O     0.22419   0.59057   0.37252   0.00000  Uiso   1.00
C276   C     0.06711   0.88170   0.22922   0.00000  Uiso   1.00
H277   H     0.06450   0.84586   0.23434   0.00000  Uiso   1.00
O278   O     0.02690   0.90150   0.21488   0.00000  Uiso   1.00
C279   C     0.13186   0.52636   0.15831   0.00000  Uiso   1.00
H280   H     0.13690   0.99093   0.15381   0.00000  Uiso   1.00
O281   O     0.11163   0.54804   0.12418   0.00000  Uiso   1.00
C282   C     0.26874   0.97574   0.26028   0.00000  Uiso   1.00
H283   H     0.27185   0.51075   0.25068   0.00000  Uiso   1.00
O284   O     0.30875   0.95646   0.27647   0.00000  Uiso   1.00
N285   N     0.07463   0.71901   0.01836   0.00000  Uiso   1.00
H286   H     0.04370   0.73801   0.02668   0.00000  Uiso   1.00
H287   H     0.06717   0.68578   0.02745   0.00000  Uiso   1.00
N288   N     0.19591   0.83196   0.47024   0.00000  Uiso   1.00
H289   H     0.16930   0.83837   0.49369   0.00000  Uiso   1.00
H290   H     0.23392   0.83120   0.48870   0.00000  Uiso   1.00
C291   C     0.24917   0.79603   0.13474   0.00000  Uiso   1.00
H292   H     0.24174   0.81224   0.16660   0.00000  Uiso   1.00
O293   O     0.29208   0.80197   0.12181   0.00000  Uiso   1.00
C294   C     0.11706   0.67778   0.37013   0.00000  Uiso   1.00
H295   H     0.09584   0.68378   0.33516   0.00000  Uiso   1.00
O296   O     0.11459   0.64051   0.38771   0.00000  Uiso   1.00
C297   C     0.50136   0.66382   0.25048   0.00000  Uiso   1.00
C298   C     0.49996   0.83573   0.24969   0.00000  Uiso   1.00
C299   C     0.45509   0.73381   0.04737   0.00000  Uiso   1.00
C300   C     0.51644   0.78971   0.44808   0.00000  Uiso   1.00
C301   C     0.45777   0.73247   0.09742   0.00000  Uiso   1.00
C302   C     0.51789   0.78706   0.39883   0.00000  Uiso   1.00
C303   C     0.54091   0.76914   0.10630   0.00000  Uiso   1.00
C304   C     0.47960   0.71451   0.39680   0.00000  Uiso   1.00
C305   C     0.54190   0.76678   0.05711   0.00000  Uiso   1.00
C306   C     0.48199   0.71422   0.44651   0.00000  Uiso   1.00
C307   C     0.49830   0.75097   0.02639   0.00000  Uiso   1.00
C308   C     0.49924   0.75198   0.47324   0.00000  Uiso   1.00
C309   C     0.40045   0.74930   0.23769   0.00000  Uiso   1.00
C310   C     0.59956   0.74991   0.26236   0.00000  Uiso   1.00
C311   C     0.34548   0.74800   0.23112   0.00000  Uiso   1.00
C312   C     0.65456   0.74999   0.26909   0.00000  Uiso   1.00
C313   C     0.52089   0.54419   0.28839   0.00000  Uiso   1.00
C314   C     0.45406   0.95223   0.23800   0.00000  Uiso   1.00
C315   C     0.52375   0.59045   0.29104   0.00000  Uiso   1.00
C316   C     0.45190   0.90589   0.23882   0.00000  Uiso   1.00
C317   C     0.50270   0.61549   0.25059   0.00000  Uiso   1.00
C318   C     0.49944   0.88320   0.24877   0.00000  Uiso   1.00
C319   C     0.48235   0.59407   0.20820   0.00000  Uiso   1.00
C320   C     0.54786   0.90571   0.25635   0.00000  Uiso   1.00
C321   C     0.48297   0.54795   0.20475   0.00000  Uiso   1.00
C322   C     0.55020   0.95202   0.25410   0.00000  Uiso   1.00
C323   C     0.50199   0.52324   0.24565   0.00000  Uiso   1.00
C324   C     0.50255   0.97503   0.24516   0.00000  Uiso   1.00
H325   H     0.65846   0.74531   0.19512   0.00000  Uiso   1.00
H326   H     0.34164   0.75216   0.30519   0.00000  Uiso   1.00
H327   H     0.53578   0.52403   0.31909   0.00000  Uiso   1.00
H328   H     0.41809   0.97092   0.23173   0.00000  Uiso   1.00
H329   H     0.46651   0.61354   0.17730   0.00000  Uiso   1.00
H330   H     0.58372   0.88687   0.26307   0.00000  Uiso   1.00
H331   H     0.42503   0.71859   0.11314   0.00000  Uiso   1.00
H332   H     0.53194   0.81561   0.38028   0.00000  Uiso   1.00
H333   H     0.57642   0.77854   0.04277   0.00000  Uiso   1.00
H334   H     0.46825   0.68492   0.46417   0.00000  Uiso   1.00
N335   N     0.50000   0.74999   0.12624   0.00000  Uiso   1.00
N336   N     0.50000   0.75001   0.37377   0.00000  Uiso   1.00
O337   O     0.50000   0.68454   0.28974   0.00000  Uiso   1.00
O338   O     0.50000   0.81547   0.21026   0.00000  Uiso   1.00
O339   O     0.50000   0.68453   0.21026   0.00000  Uiso   1.00
O340   O     0.50000   0.81547   0.28974   0.00000  Uiso   1.00
O341   O     0.42392   0.75000   0.28045   0.00000  Uiso   1.00
O342   O     0.57608   0.75000   0.21956   0.00000  Uiso   1.00
O343   O     0.42392   0.75000   0.20097   0.00000  Uiso   1.00
O344   O     0.57608   0.75001   0.29904   0.00000  Uiso   1.00
Zn345  Zn    0.50000   0.75001   0.30307   0.00000  Uiso   1.00
Zn346  Zn    0.50000   0.75000   0.19693   0.00000  Uiso   1.00
C347   C     0.55215   0.61106   0.33483   0.00000  Uiso   1.00
H348   H     0.56964   0.64424   0.33398   0.00000  Uiso   1.00
O349   O     0.55753   0.59057   0.37252   0.00000  Uiso   1.00
C350   C     0.40044   0.88170   0.22922   0.00000  Uiso   1.00
H351   H     0.39783   0.84586   0.23434   0.00000  Uiso   1.00
O352   O     0.36023   0.90150   0.21488   0.00000  Uiso   1.00
C353   C     0.46519   0.52636   0.15831   0.00000  Uiso   1.00
H354   H     0.47023   0.99093   0.15381   0.00000  Uiso   1.00
O355   O     0.44496   0.54804   0.12418   0.00000  Uiso   1.00
C356   C     0.60207   0.97574   0.26028   0.00000  Uiso   1.00
H357   H     0.60518   0.51075   0.25068   0.00000  Uiso   1.00
O358   O     0.64208   0.95646   0.27647   0.00000  Uiso   1.00
N359   N     0.40797   0.71901   0.01836   0.00000  Uiso   1.00
H360   H     0.37703   0.73801   0.02668   0.00000  Uiso   1.00
H361   H     0.40050   0.68578   0.02745   0.00000  Uiso   1.00
N362   N     0.52924   0.83196   0.47024   0.00000  Uiso   1.00
H363   H     0.50264   0.83837   0.49369   0.00000  Uiso   1.00
H364   H     0.56726   0.83120   0.48870   0.00000  Uiso   1.00
C365   C     0.58251   0.79603   0.13474   0.00000  Uiso   1.00
H366   H     0.57507   0.81224   0.16660   0.00000  Uiso   1.00
O367   O     0.62541   0.80197   0.12181   0.00000  Uiso   1.00
C368   C     0.45039   0.67778   0.37013   0.00000  Uiso   1.00
H369   H     0.42918   0.68378   0.33516   0.00000  Uiso   1.00
O370   O     0.44792   0.64051   0.38771   0.00000  Uiso   1.00
C371   C     0.83469   0.66382   0.25048   0.00000  Uiso   1.00
C372   C     0.83330   0.83573   0.24969   0.00000  Uiso   1.00
C373   C     0.78843   0.73381   0.04737   0.00000  Uiso   1.00
C374   C     0.84978   0.78971   0.44808   0.00000  Uiso   1.00
C375   C     0.79110   0.73247   0.09742   0.00000  Uiso   1.00
C376   C     0.85123   0.78706   0.39883   0.00000  Uiso   1.00
C377   C     0.87425   0.76914   0.10630   0.00000  Uiso   1.00
C378   C     0.81293   0.71451   0.39680   0.00000  Uiso   1.00
C379   C     0.87523   0.76678   0.05711   0.00000  Uiso   1.00
C380   C     0.81532   0.71422   0.44651   0.00000  Uiso   1.00
C381   C     0.83164   0.75097   0.02639   0.00000  Uiso   1.00
C382   C     0.83258   0.75198   0.47324   0.00000  Uiso   1.00
C383   C     0.73379   0.74930   0.23769   0.00000  Uiso   1.00
C384   C     0.93289   0.74991   0.26236   0.00000  Uiso   1.00
C385   C     0.67881   0.74800   0.23112   0.00000  Uiso   1.00
C386   C     0.98789   0.74999   0.26909   0.00000  Uiso   1.00
C387   C     0.85422   0.54419   0.28839   0.00000  Uiso   1.00
C388   C     0.78740   0.95223   0.23800   0.00000  Uiso   1.00
C389   C     0.85709   0.59045   0.29104   0.00000  Uiso   1.00
C390   C     0.78524   0.90589   0.23882   0.00000  Uiso   1.00
C391   C     0.83604   0.61549   0.25059   0.00000  Uiso   1.00
C392   C     0.83278   0.88320   0.24877   0.00000  Uiso   1.00
C393   C     0.81568   0.59407   0.20820   0.00000  Uiso   1.00
C394   C     0.88119   0.90571   0.25635   0.00000  Uiso   1.00
C395   C     0.81631   0.54795   0.20475   0.00000  Uiso   1.00
C396   C     0.88353   0.95202   0.25410   0.00000  Uiso   1.00
C397   C     0.83533   0.52324   0.24565   0.00000  Uiso   1.00
C398   C     0.83589   0.97503   0.24516   0.00000  Uiso   1.00
H399   H     0.99179   0.74531   0.19512   0.00000  Uiso   1.00
H400   H     0.67497   0.75216   0.30519   0.00000  Uiso   1.00
H401   H     0.86912   0.52403   0.31909   0.00000  Uiso   1.00
H402   H     0.75142   0.97092   0.23173   0.00000  Uiso   1.00
H403   H     0.79984   0.61354   0.17730   0.00000  Uiso   1.00
H404   H     0.91705   0.88687   0.26307   0.00000  Uiso   1.00
H405   H     0.75836   0.71859   0.11314   0.00000  Uiso   1.00
H406   H     0.86527   0.81561   0.38028   0.00000  Uiso   1.00
H407   H     0.90976   0.77854   0.04277   0.00000  Uiso   1.00
H408   H     0.80159   0.68492   0.46417   0.00000  Uiso   1.00
N409   N     0.83333   0.74999   0.12624   0.00000  Uiso   1.00
N410   N     0.83333   0.75001   0.37377   0.00000  Uiso   1.00
O411   O     0.83334   0.68454   0.28974   0.00000  Uiso   1.00
O412   O     0.83333   0.81547   0.21026   0.00000  Uiso   1.00
O413   O     0.83334   0.68453   0.21026   0.00000  Uiso   1.00
O414   O     0.83333   0.81547   0.28974   0.00000  Uiso   1.00
O415   O     0.75725   0.75000   0.28045   0.00000  Uiso   1.00
O416   O     0.90942   0.75000   0.21956   0.00000  Uiso   1.00
O417   O     0.75725   0.75000   0.20097   0.00000  Uiso   1.00
O418   O     0.90942   0.75001   0.29904   0.00000  Uiso   1.00
Zn419  Zn    0.83333   0.75001   0.30307   0.00000  Uiso   1.00
Zn420  Zn    0.83333   0.75000   0.19693   0.00000  Uiso   1.00
C421   C     0.88548   0.61106   0.33483   0.00000  Uiso   1.00
H422   H     0.90298   0.64424   0.33398   0.00000  Uiso   1.00
O423   O     0.89086   0.59057   0.37252   0.00000  Uiso   1.00
C424   C     0.73378   0.88170   0.22922   0.00000  Uiso   1.00
H425   H     0.73117   0.84586   0.23434   0.00000  Uiso   1.00
O426   O     0.69357   0.90150   0.21488   0.00000  Uiso   1.00
C427   C     0.79853   0.52636   0.15831   0.00000  Uiso   1.00
H428   H     0.80357   0.99093   0.15381   0.00000  Uiso   1.00
O429   O     0.77829   0.54804   0.12418   0.00000  Uiso   1.00
C430   C     0.93540   0.97574   0.26028   0.00000  Uiso   1.00
H431   H     0.93852   0.51075   0.25068   0.00000  Uiso   1.00
O432   O     0.97541   0.95646   0.27647   0.00000  Uiso   1.00
N433   N     0.74130   0.71901   0.01836   0.00000  Uiso   1.00
H434   H     0.71036   0.73801   0.02668   0.00000  Uiso   1.00
H435   H     0.73384   0.68578   0.02745   0.00000  Uiso   1.00
N436   N     0.86257   0.83196   0.47024   0.00000  Uiso   1.00
H437   H     0.83597   0.83837   0.49369   0.00000  Uiso   1.00
H438   H     0.90059   0.83120   0.48870   0.00000  Uiso   1.00
C439   C     0.91584   0.79603   0.13474   0.00000  Uiso   1.00
H440   H     0.90840   0.81224   0.16660   0.00000  Uiso   1.00
O441   O     0.95875   0.80197   0.12181   0.00000  Uiso   1.00
C442   C     0.78372   0.67778   0.37013   0.00000  Uiso   1.00
H443   H     0.76251   0.68378   0.33516   0.00000  Uiso   1.00
O444   O     0.78126   0.64051   0.38771   0.00000  Uiso   1.00
C445   C     0.16803   0.16382   0.75048   0.00000  Uiso   1.00
C446   C     0.16663   0.33573   0.74969   0.00000  Uiso   1.00
C447   C     0.12176   0.23381   0.54737   0.00000  Uiso   1.00
C448   C     0.18311   0.28971   0.94808   0.00000  Uiso   1.00
C449   C     0.12444   0.23247   0.59742   0.00000  Uiso   1.00
C450   C     0.18456   0.28706   0.89883   0.00000  Uiso   1.00
C451   C     0.20758   0.26914   0.60630   0.00000  Uiso   1.00
C452   C     0.14626   0.21451   0.89680   0.00000  Uiso   1.00
C453   C     0.20856   0.26678   0.55711   0.00000  Uiso   1.00
C454   C     0.14866   0.21422   0.94651   0.00000  Uiso   1.00
C455   C     0.16497   0.25097   0.52639   0.00000  Uiso   1.00
C456   C     0.16591   0.25198   0.97324   0.00000  Uiso   1.00
C457   C     0.06712   0.24930   0.73769   0.00000  Uiso   1.00
C458   C     0.26623   0.24991   0.76236   0.00000  Uiso   1.00
C459   C     0.01215   0.24800   0.73112   0.00000  Uiso   1.00
C460   C     0.32123   0.24999   0.76909   0.00000  Uiso   1.00
C461   C     0.18755   0.04419   0.78839   0.00000  Uiso   1.00
C462   C     0.12073   0.45223   0.73800   0.00000  Uiso   1.00
C463   C     0.19042   0.09045   0.79104   0.00000  Uiso   1.00
C464   C     0.11857   0.40589   0.73882   0.00000  Uiso   1.00
C465   C     0.16937   0.11549   0.75059   0.00000  Uiso   1.00
C466   C     0.16611   0.38320   0.74877   0.00000  Uiso   1.00
C467   C     0.14901   0.09407   0.70820   0.00000  Uiso   1.00
C468   C     0.21453   0.40571   0.75635   0.00000  Uiso   1.00
C469   C     0.14964   0.04795   0.70475   0.00000  Uiso   1.00
C470   C     0.21686   0.45202   0.75410   0.00000  Uiso   1.00
C471   C     0.16866   0.02324   0.74565   0.00000  Uiso   1.00
C472   C     0.16922   0.47503   0.74516   0.00000  Uiso   1.00
H473   H     0.32512   0.24531   0.69512   0.00000  Uiso   1.00
H474   H     0.00830   0.25216   0.80519   0.00000  Uiso   1.00
H475   H     0.20245   0.02403   0.81909   0.00000  Uiso   1.00
H476   H     0.08475   0.47092   0.73173   0.00000  Uiso   1.00
H477   H     0.13318   0.11354   0.67730   0.00000  Uiso   1.00
H478   H     0.25039   0.38687   0.76307   0.00000  Uiso   1.00
H479   H     0.09169   0.21859   0.61314   0.00000  Uiso   1.00
H480   H     0.19861   0.31561   0.88028   0.00000  Uiso   1.00
H481   H     0.24309   0.27854   0.54277   0.00000  Uiso   1.00
H482   H     0.13492   0.18492   0.96417   0.00000  Uiso   1.00
N483   N     0.16667   0.24999   0.62624   0.00000  Uiso   1.00
N484   N     0.16667   0.25001   0.87377   0.00000  Uiso   1.00
O485   O     0.16667   0.18454   0.78974   0.00000  Uiso   1.00
O486   O     0.16666   0.31547   0.71026   0.00000  Uiso   1.00
O487   O     0.16667   0.18453   0.71026   0.00000  Uiso   1.00
O488   O     0.16666   0.31547   0.78974   0.00000  Uiso   1.00
O489   O     0.09058   0.25000   0.78045   0.00000  Uiso   1.00
O490   O     0.24275   0.25000   0.71956   0.00000  Uiso   1.00
O491   O     0.09058   0.25000   0.70097   0.00000  Uiso   1.00
O492   O     0.24275   0.25001   0.79904   0.00000  Uiso   1.00
Zn493  Zn    0.16667   0.25001   0.80307   0.00000  Uiso   1.00
Zn494  Zn    0.16667   0.25000   0.69693   0.00000  Uiso   1.00
C495   C     0.21881   0.11106   0.83483   0.00000  Uiso   1.00
H496   H     0.23631   0.14424   0.83398   0.00000  Uiso   1.00
O497   O     0.22419   0.09057   0.87252   0.00000  Uiso   1.00
C498   C     0.06711   0.38170   0.72922   0.00000  Uiso   1.00
H499   H     0.06450   0.34586   0.73434   0.00000  Uiso   1.00
O500   O     0.02690   0.40150   0.71488   0.00000  Uiso   1.00
C501   C     0.13186   0.02636   0.65831   0.00000  Uiso   1.00
H502   H     0.13690   0.49093   0.65381   0.00000  Uiso   1.00
O503   O     0.11163   0.04804   0.62418   0.00000  Uiso   1.00
C504   C     0.26874   0.47574   0.76028   0.00000  Uiso   1.00
H505   H     0.27185   0.01075   0.75068   0.00000  Uiso   1.00
O506   O     0.30875   0.45646   0.77647   0.00000  Uiso   1.00
N507   N     0.07463   0.21901   0.51836   0.00000  Uiso   1.00
H508   H     0.04370   0.23801   0.52668   0.00000  Uiso   1.00
H509   H     0.06717   0.18578   0.52745   0.00000  Uiso   1.00
N510   N     0.19591   0.33196   0.97024   0.00000  Uiso   1.00
H511   H     0.16930   0.33837   0.99369   0.00000  Uiso   1.00
H512   H     0.23392   0.33120   0.98870   0.00000  Uiso   1.00
C513   C     0.24917   0.29603   0.63474   0.00000  Uiso   1.00
H514   H     0.24174   0.31224   0.66660   0.00000  Uiso   1.00
O515   O     0.29208   0.30197   0.62181   0.00000  Uiso   1.00
C516   C     0.11706   0.17778   0.87013   0.00000  Uiso   1.00
H517   H     0.09584   0.18378   0.83516   0.00000  Uiso   1.00
O518   O     0.11459   0.14051   0.88771   0.00000  Uiso   1.00
C519   C     0.50136   0.16382   0.75048   0.00000  Uiso   1.00
C520   C     0.49996   0.33573   0.74969   0.00000  Uiso   1.00
C521   C     0.45509   0.23381   0.54737   0.00000  Uiso   1.00
C522   C     0.51644   0.28971   0.94808   0.00000  Uiso   1.00
C523   C     0.45777   0.23247   0.59742   0.00000  Uiso   1.00
C524   C     0.51789   0.28706   0.89883   0.00000  Uiso   1.00
C525   C     0.54091   0.26914   0.60630   0.00000  Uiso   1.00
C526   C     0.47960   0.21451   0.89680   0.00000  Uiso   1.00
C527   C     0.54190   0.26678   0.55711   0.00000  Uiso   1.00
C528   C     0.48199   0.21422   0.94651   0.00000  Uiso   1.00
C529   C     0.49830   0.25097   0.52639   0.00000  Uiso   1.00
C530   C     0.49924   0.25198   0.97324   0.00000  Uiso   1.00
C531   C     0.40045   0.24930   0.73769   0.00000  Uiso   1.00
C532   C     0.59956   0.24991   0.76236   0.00000  Uiso   1.00
C533   C     0.34548   0.24800   0.73112   0.00000  Uiso   1.00
C534   C     0.65456   0.24999   0.76909   0.00000  Uiso   1.00
C535   C     0.52089   0.04419   0.78839   0.00000  Uiso   1.00
C536   C     0.45406   0.45223   0.73800   0.00000  Uiso   1.00
C537   C     0.52375   0.09045   0.79104   0.00000  Uiso   1.00
C538   C     0.45190   0.40589   0.73882   0.00000  Uiso   1.00
C539   C     0.50270   0.11549   0.75059   0.00000  Uiso   1.00
C540   C     0.49944   0.38320   0.74877   0.00000  Uiso   1.00
C541   C     0.48235   0.09407   0.70820   0.00000  Uiso   1.00
C542   C     0.54786   0.40571   0.75635   0.00000  Uiso   1.00
C543   C     0.48297   0.04795   0.70475   0.00000  Uiso   1.00
C544   C     0.55020   0.45202   0.75410   0.00000  Uiso   1.00
C545   C     0.50199   0.02324   0.74565   0.00000  Uiso   1.00
C546   C     0.50255   0.47503   0.74516   0.00000  Uiso   1.00
H547   H     0.65846   0.24531   0.69512   0.00000  Uiso   1.00
H548   H     0.34164   0.25216   0.80519   0.00000  Uiso   1.00
H549   H     0.53578   0.02403   0.81909   0.00000  Uiso   1.00
H550   H     0.41809   0.47092   0.73173   0.00000  Uiso   1.00
H551   H     0.46651   0.11354   0.67730   0.00000  Uiso   1.00
H552   H     0.58372   0.38687   0.76307   0.00000  Uiso   1.00
H553   H     0.42503   0.21859   0.61314   0.00000  Uiso   1.00
H554   H     0.53194   0.31561   0.88028   0.00000  Uiso   1.00
H555   H     0.57642   0.27854   0.54277   0.00000  Uiso   1.00
H556   H     0.46825   0.18492   0.96417   0.00000  Uiso   1.00
N557   N     0.50000   0.24999   0.62624   0.00000  Uiso   1.00
N558   N     0.50000   0.25001   0.87377   0.00000  Uiso   1.00
O559   O     0.50000   0.18454   0.78974   0.00000  Uiso   1.00
O560   O     0.50000   0.31547   0.71026   0.00000  Uiso   1.00
O561   O     0.50000   0.18453   0.71026   0.00000  Uiso   1.00
O562   O     0.50000   0.31547   0.78974   0.00000  Uiso   1.00
O563   O     0.42392   0.25000   0.78045   0.00000  Uiso   1.00
O564   O     0.57608   0.25000   0.71956   0.00000  Uiso   1.00
O565   O     0.42392   0.25000   0.70097   0.00000  Uiso   1.00
O566   O     0.57608   0.25001   0.79904   0.00000  Uiso   1.00
Zn567  Zn    0.50000   0.25001   0.80307   0.00000  Uiso   1.00
Zn568  Zn    0.50000   0.25000   0.69693   0.00000  Uiso   1.00
C569   C     0.55215   0.11106   0.83483   0.00000  Uiso   1.00
H570   H     0.56964   0.14424   0.83398   0.00000  Uiso   1.00
O571   O     0.55753   0.09057   0.87252   0.00000  Uiso   1.00
C572   C     0.40044   0.38170   0.72922   0.00000  Uiso   1.00
H573   H     0.39783   0.34586   0.73434   0.00000  Uiso   1.00
O574   O     0.36023   0.40150   0.71488   0.00000  Uiso   1.00
C575   C     0.46519   0.02636   0.65831   0.00000  Uiso   1.00
H576   H     0.47023   0.49093   0.65381   0.00000  Uiso   1.00
O577   O     0.44496   0.04804   0.62418   0.00000  Uiso   1.00
C578   C     0.60207   0.47574   0.76028   0.00000  Uiso   1.00
H579   H     0.60518   0.01075   0.75068   0.00000  Uiso   1.00
O580   O     0.64208   0.45646   0.77647   0.00000  Uiso   1.00
N581   N     0.40797   0.21901   0.51836   0.00000  Uiso   1.00
H582   H     0.37703   0.23801   0.52668   0.00000  Uiso   1.00
H583   H     0.40050   0.18578   0.52745   0.00000  Uiso   1.00
N584   N     0.52924   0.33196   0.97024   0.00000  Uiso   1.00
H585   H     0.50264   0.33837   0.99369   0.00000  Uiso   1.00
H586   H     0.56726   0.33120   0.98870   0.00000  Uiso   1.00
C587   C     0.58251   0.29603   0.63474   0.00000  Uiso   1.00
H588   H     0.57507   0.31224   0.66660   0.00000  Uiso   1.00
O589   O     0.62541   0.30197   0.62181   0.00000  Uiso   1.00
C590   C     0.45039   0.17778   0.87013   0.00000  Uiso   1.00
H591   H     0.42918   0.18378   0.83516   0.00000  Uiso   1.00
O592   O     0.44792   0.14051   0.88771   0.00000  Uiso   1.00
C593   C     0.83469   0.16382   0.75048   0.00000  Uiso   1.00
C594   C     0.83330   0.33573   0.74969   0.00000  Uiso   1.00
C595   C     0.78843   0.23381   0.54737   0.00000  Uiso   1.00
C596   C     0.84978   0.28971   0.94808   0.00000  Uiso   1.00
C597   C     0.79110   0.23247   0.59742   0.00000  Uiso   1.00
C598   C     0.85123   0.28706   0.89883   0.00000  Uiso   1.00
C599   C     0.87425   0.26914   0.60630   0.00000  Uiso   1.00
C600   C     0.81293   0.21451   0.89680   0.00000  Uiso   1.00
C601   C     0.87523   0.26678   0.55711   0.00000  Uiso   1.00
C602   C     0.81532   0.21422   0.94651   0.00000  Uiso   1.00
C603   C     0.83164   0.25097   0.52639   0.00000  Uiso   1.00
C604   C     0.83258   0.25198   0.97324   0.00000  Uiso   1.00
C605   C     0.73379   0.24930   0.73769   0.00000  Uiso   1.00
C606   C     0.93289   0.24991   0.76236   0.00000  Uiso   1.00
C607   C     0.67881   0.24800   0.73112   0.00000  Uiso   1.00
C608   C     0.98789   0.24999   0.76909   0.00000  Uiso   1.00
C609   C     0.85422   0.04419   0.78839   0.00000  Uiso   1.00
C610   C     0.78740   0.45223   0.73800   0.00000  Uiso   1.00
C611   C     0.85709   0.09045   0.79104   0.00000  Uiso   1.00
C612   C     0.78524   0.40589   0.73882   0.00000  Uiso   1.00
C613   C     0.83604   0.11549   0.75059   0.00000  Uiso   1.00
C614   C     0.83278   0.38320   0.74877   0.00000  Uiso   1.00
C615   C     0.81568   0.09407   0.70820   0.00000  Uiso   1.00
C616   C     0.88119   0.40571   0.75635   0.00000  Uiso   1.00
C617   C     0.81631   0.04795   0.70475   0.00000  Uiso   1.00
C618   C     0.88353   0.45202   0.75410   0.00000  Uiso   1.00
C619   C     0.83533   0.02324   0.74565   0.00000  Uiso   1.00
C620   C     0.83589   0.47503   0.74516   0.00000  Uiso   1.00
H621   H     0.99179   0.24531   0.69512   0.00000  Uiso   1.00
H622   H     0.67497   0.25216   0.80519   0.00000  Uiso   1.00
H623   H     0.86912   0.02403   0.81909   0.00000  Uiso   1.00
H624   H     0.75142   0.47092   0.73173   0.00000  Uiso   1.00
H625   H     0.79984   0.11354   0.67730   0.00000  Uiso   1.00
H626   H     0.91705   0.38687   0.76307   0.00000  Uiso   1.00
H627   H     0.75836   0.21859   0.61314   0.00000  Uiso   1.00
H628   H     0.86527   0.31561   0.88028   0.00000  Uiso   1.00
H629   H     0.90976   0.27854   0.54277   0.00000  Uiso   1.00
H630   H     0.80159   0.18492   0.96417   0.00000  Uiso   1.00
N631   N     0.83333   0.24999   0.62624   0.00000  Uiso   1.00
N632   N     0.83333   0.25001   0.87377   0.00000  Uiso   1.00
O633   O     0.83334   0.18454   0.78974   0.00000  Uiso   1.00
O634   O     0.83333   0.31547   0.71026   0.00000  Uiso   1.00
O635   O     0.83334   0.18453   0.71026   0.00000  Uiso   1.00
O636   O     0.83333   0.31547   0.78974   0.00000  Uiso   1.00
O637   O     0.75725   0.25000   0.78045   0.00000  Uiso   1.00
O638   O     0.90942   0.25000   0.71956   0.00000  Uiso   1.00
O639   O     0.75725   0.25000   0.70097   0.00000  Uiso   1.00
O640   O     0.90942   0.25001   0.79904   0.00000  Uiso   1.00
Zn641  Zn    0.83333   0.25001   0.80307   0.00000  Uiso   1.00
Zn642  Zn    0.83333   0.25000   0.69693   0.00000  Uiso   1.00
C643   C     0.88548   0.11106   0.83483   0.00000  Uiso   1.00
H644   H     0.90298   0.14424   0.83398   0.00000  Uiso   1.00
O645   O     0.89086   0.09057   0.87252   0.00000  Uiso   1.00
C646   C     0.73378   0.38170   0.72922   0.00000  Uiso   1.00
H647   H     0.73117   0.34586   0.73434   0.00000  Uiso   1.00
O648   O     0.69357   0.40150   0.71488   0.00000  Uiso   1.00
C649   C     0.79853   0.02636   0.65831   0.00000  Uiso   1.00
H650   H     0.80357   0.49093   0.65381   0.00000  Uiso   1.00
O651   O     0.77829   0.04804   0.62418   0.00000  Uiso   1.00
C652   C     0.93540   0.47574   0.76028   0.00000  Uiso   1.00
H653   H     0.93852   0.01075   0.75068   0.00000  Uiso   1.00
O654   O     0.97541   0.45646   0.77647   0.00000  Uiso   1.00
N655   N     0.74130   0.21901   0.51836   0.00000  Uiso   1.00
H656   H     0.71036   0.23801   0.52668   0.00000  Uiso   1.00
H657   H     0.73384   0.18578   0.52745   0.00000  Uiso   1.00
N658   N     0.86257   0.33196   0.97024   0.00000  Uiso   1.00
H659   H     0.83597   0.33837   0.99369   0.00000  Uiso   1.00
H660   H     0.90059   0.33120   0.98870   0.00000  Uiso   1.00
C661   C     0.91584   0.29603   0.63474   0.00000  Uiso   1.00
H662   H     0.90840   0.31224   0.66660   0.00000  Uiso   1.00
O663   O     0.95875   0.30197   0.62181   0.00000  Uiso   1.00
C664   C     0.78372   0.17778   0.87013   0.00000  Uiso   1.00
H665   H     0.76251   0.18378   0.83516   0.00000  Uiso   1.00
O666   O     0.78126   0.14051   0.88771   0.00000  Uiso   1.00
C667   C     0.16803   0.66382   0.75048   0.00000  Uiso   1.00
C668   C     0.16663   0.83573   0.74969   0.00000  Uiso   1.00
C669   C     0.12176   0.73381   0.54737   0.00000  Uiso   1.00
C670   C     0.18311   0.78971   0.94808   0.00000  Uiso   1.00
C671   C     0.12444   0.73247   0.59742   0.00000  Uiso   1.00
C672   C     0.18456   0.78706   0.89883   0.00000  Uiso   1.00
C673   C     0.20758   0.76914   0.60630   0.00000  Uiso   1.00
C674   C     0.14626   0.71451   0.89680   0.00000  Uiso   1.00
C675   C     0.20856   0.76678   0.55711   0.00000  Uiso   1.00
C676   C     0.14866   0.71422   0.94651   0.00000  Uiso   1.00
C677   C     0.16497   0.75097   0.52639   0.00000  Uiso   1.00
C678   C     0.16591   0.75198   0.97324   0.00000  Uiso   1.00
C679   C     0.06712   0.74930   0.73769   0.00000  Uiso   1.00
C680   C     0.26623   0.74991   0.76236   0.00000  Uiso   1.00
C681   C     0.01215   0.74800   0.73112   0.00000  Uiso   1.00
C682   C     0.32123   0.74999   0.76909   0.00000  Uiso   1.00
C683   C     0.18755   0.54419   0.78839   0.00000  Uiso   1.00
C684   C     0.12073   0.95223   0.73800   0.00000  Uiso   1.00
C685   C     0.19042   0.59045   0.79104   0.00000  Uiso   1.00
C686   C     0.11857   0.90589   0.73882   0.00000  Uiso   1.00
C687   C     0.16937   0.61549   0.75059   0.00000  Uiso   1.00
C688   C     0.16611   0.88320   0.74877   0.00000  Uiso   1.00
C689   C     0.14901   0.59407   0.70820   0.00000  Uiso   1.00
C690   C     0.21453   0.90571   0.75635   0.00000  Uiso   1.00
C691   C     0.14964   0.54795   0.70475   0.00000  Uiso   1.00
C692   C     0.21686   0.95202   0.75410   0.00000  Uiso   1.00
C693   C     0.16866   0.52324   0.74565   0.00000  Uiso   1.00
C694   C     0.16922   0.97503   0.74516   0.00000  Uiso   1.00
H695   H     0.32512   0.74531   0.69512   0.00000  Uiso   1.00
H696   H     0.00830   0.75216   0.80519   0.00000  Uiso   1.00
H697   H     0.20245   0.52403   0.81909   0.00000  Uiso   1.00
H698   H     0.08475   0.97092   0.73173   0.00000  Uiso   1.00
H699   H     0.13318   0.61354   0.67730   0.00000  Uiso   1.00
H700   H     0.25039   0.88687   0.76307   0.00000  Uiso   1.00
H701   H     0.09169   0.71859   0.61314   0.00000  Uiso   1.00
H702   H     0.19861   0.81561   0.88028   0.00000  Uiso   1.00
H703   H     0.24309   0.77854   0.54277   0.00000  Uiso   1.00
H704   H     0.13492   0.68492   0.96417   0.00000  Uiso   1.00
N705   N     0.16667   0.74999   0.62624   0.00000  Uiso   1.00
N706   N     0.16667   0.75001   0.87377   0.00000  Uiso   1.00
O707   O     0.16667   0.68454   0.78974   0.00000  Uiso   1.00
O708   O     0.16666   0.81547   0.71026   0.00000  Uiso   1.00
O709   O     0.16667   0.68453   0.71026   0.00000  Uiso   1.00
O710   O     0.16666   0.81547   0.78974   0.00000  Uiso   1.00
O711   O     0.09058   0.75000   0.78045   0.00000  Uiso   1.00
O712   O     0.24275   0.75000   0.71956   0.00000  Uiso   1.00
O713   O     0.09058   0.75000   0.70097   0.00000  Uiso   1.00
O714   O     0.24275   0.75001   0.79904   0.00000  Uiso   1.00
Zn715  Zn    0.16667   0.75001   0.80307   0.00000  Uiso   1.00
Zn716  Zn    0.16667   0.75000   0.69693   0.00000  Uiso   1.00
C717   C     0.21881   0.61106   0.83483   0.00000  Uiso   1.00
H718   H     0.23631   0.64424   0.83398   0.00000  Uiso   1.00
O719   O     0.22419   0.59057   0.87252   0.00000  Uiso   1.00
C720   C     0.06711   0.88170   0.72922   0.00000  Uiso   1.00
H721   H     0.06450   0.84586   0.73434   0.00000  Uiso   1.00
O722   O     0.02690   0.90150   0.71488   0.00000  Uiso   1.00
C723   C     0.13186   0.52636   0.65831   0.00000  Uiso   1.00
H724   H     0.13690   0.99093   0.65381   0.00000  Uiso   1.00
O725   O     0.11163   0.54804   0.62418   0.00000  Uiso   1.00
C726   C     0.26874   0.97574   0.76028   0.00000  Uiso   1.00
H727   H     0.27185   0.51075   0.75068   0.00000  Uiso   1.00
O728   O     0.30875   0.95646   0.77647   0.00000  Uiso   1.00
N729   N     0.07463   0.71901   0.51836   0.00000  Uiso   1.00
H730   H     0.04370   0.73801   0.52668   0.00000  Uiso   1.00
H731   H     0.06717   0.68578   0.52745   0.00000  Uiso   1.00
N732   N     0.19591   0.83196   0.97024   0.00000  Uiso   1.00
H733   H     0.16930   0.83837   0.99369   0.00000  Uiso   1.00
H734   H     0.23392   0.83120   0.98870   0.00000  Uiso   1.00
C735   C     0.24917   0.79603   0.63474   0.00000  Uiso   1.00
H736   H     0.24174   0.81224   0.66660   0.00000  Uiso   1.00
O737   O     0.29208   0.80197   0.62181   0.00000  Uiso   1.00
C738   C     0.11706   0.67778   0.87013   0.00000  Uiso   1.00
H739   H     0.09584   0.68378   0.83516   0.00000  Uiso   1.00
O740   O     0.11459   0.64051   0.88771   0.00000  Uiso   1.00
C741   C     0.50136   0.66382   0.75048   0.00000  Uiso   1.00
C742   C     0.49996   0.83573   0.74969   0.00000  Uiso   1.00
C743   C     0.45509   0.73381   0.54737   0.00000  Uiso   1.00
C744   C     0.51644   0.78971   0.94808   0.00000  Uiso   1.00
C745   C     0.45777   0.73247   0.59742   0.00000  Uiso   1.00
C746   C     0.51789   0.78706   0.89883   0.00000  Uiso   1.00
C747   C     0.54091   0.76914   0.60630   0.00000  Uiso   1.00
C748   C     0.47960   0.71451   0.89680   0.00000  Uiso   1.00
C749   C     0.54190   0.76678   0.55711   0.00000  Uiso   1.00
C750   C     0.48199   0.71422   0.94651   0.00000  Uiso   1.00
C751   C     0.49830   0.75097   0.52639   0.00000  Uiso   1.00
C752   C     0.49924   0.75198   0.97324   0.00000  Uiso   1.00
C753   C     0.40045   0.74930   0.73769   0.00000  Uiso   1.00
C754   C     0.59956   0.74991   0.76236   0.00000  Uiso   1.00
C755   C     0.34548   0.74800   0.73112   0.00000  Uiso   1.00
C756   C     0.65456   0.74999   0.76909   0.00000  Uiso   1.00
C757   C     0.52089   0.54419   0.78839   0.00000  Uiso   1.00
C758   C     0.45406   0.95223   0.73800   0.00000  Uiso   1.00
C759   C     0.52375   0.59045   0.79104   0.00000  Uiso   1.00
C760   C     0.45190   0.90589   0.73882   0.00000  Uiso   1.00
C761   C     0.50270   0.61549   0.75059   0.00000  Uiso   1.00
C762   C     0.49944   0.88320   0.74877   0.00000  Uiso   1.00
C763   C     0.48235   0.59407   0.70820   0.00000  Uiso   1.00
C764   C     0.54786   0.90571   0.75635   0.00000  Uiso   1.00
C765   C     0.48297   0.54795   0.70475   0.00000  Uiso   1.00
C766   C     0.55020   0.95202   0.75410   0.00000  Uiso   1.00
C767   C     0.50199   0.52324   0.74565   0.00000  Uiso   1.00
C768   C     0.50255   0.97503   0.74516   0.00000  Uiso   1.00
H769   H     0.65846   0.74531   0.69512   0.00000  Uiso   1.00
H770   H     0.34164   0.75216   0.80519   0.00000  Uiso   1.00
H771   H     0.53578   0.52403   0.81909   0.00000  Uiso   1.00
H772   H     0.41809   0.97092   0.73173   0.00000  Uiso   1.00
H773   H     0.46651   0.61354   0.67730   0.00000  Uiso   1.00
H774   H     0.58372   0.88687   0.76307   0.00000  Uiso   1.00
H775   H     0.42503   0.71859   0.61314   0.00000  Uiso   1.00
H776   H     0.53194   0.81561   0.88028   0.00000  Uiso   1.00
H777   H     0.57642   0.77854   0.54277   0.00000  Uiso   1.00
H778   H     0.46825   0.68492   0.96417   0.00000  Uiso   1.00
N779   N     0.50000   0.74999   0.62624   0.00000  Uiso   1.00
N780   N     0.50000   0.75001   0.87377   0.00000  Uiso   1.00
O781   O     0.50000   0.68454   0.78974   0.00000  Uiso   1.00
O782   O     0.50000   0.81547   0.71026   0.00000  Uiso   1.00
O783   O     0.50000   0.68453   0.71026   0.00000  Uiso   1.00
O784   O     0.50000   0.81547   0.78974   0.00000  Uiso   1.00
O785   O     0.42392   0.75000   0.78045   0.00000  Uiso   1.00
O786   O     0.57608   0.75000   0.71956   0.00000  Uiso   1.00
O787   O     0.42392   0.75000   0.70097   0.00000  Uiso   1.00
O788   O     0.57608   0.75001   0.79904   0.00000  Uiso   1.00
Zn789  Zn    0.50000   0.75001   0.80307   0.00000  Uiso   1.00
Zn790  Zn    0.50000   0.75000   0.69693   0.00000  Uiso   1.00
C791   C     0.55215   0.61106   0.83483   0.00000  Uiso   1.00
H792   H     0.56964   0.64424   0.83398   0.00000  Uiso   1.00
O793   O     0.55753   0.59057   0.87252   0.00000  Uiso   1.00
C794   C     0.40044   0.88170   0.72922   0.00000  Uiso   1.00
H795   H     0.39783   0.84586   0.73434   0.00000  Uiso   1.00
O796   O     0.36023   0.90150   0.71488   0.00000  Uiso   1.00
C797   C     0.46519   0.52636   0.65831   0.00000  Uiso   1.00
H798   H     0.47023   0.99093   0.65381   0.00000  Uiso   1.00
O799   O     0.44496   0.54804   0.62418   0.00000  Uiso   1.00
C800   C     0.60207   0.97574   0.76028   0.00000  Uiso   1.00
H801   H     0.60518   0.51075   0.75068   0.00000  Uiso   1.00
O802   O     0.64208   0.95646   0.77647   0.00000  Uiso   1.00
N803   N     0.40797   0.71901   0.51836   0.00000  Uiso   1.00
H804   H     0.37703   0.73801   0.52668   0.00000  Uiso   1.00
H805   H     0.40050   0.68578   0.52745   0.00000  Uiso   1.00
N806   N     0.52924   0.83196   0.97024   0.00000  Uiso   1.00
H807   H     0.50264   0.83837   0.99369   0.00000  Uiso   1.00
H808   H     0.56726   0.83120   0.98870   0.00000  Uiso   1.00
C809   C     0.58251   0.79603   0.63474   0.00000  Uiso   1.00
H810   H     0.57507   0.81224   0.66660   0.00000  Uiso   1.00
O811   O     0.62541   0.80197   0.62181   0.00000  Uiso   1.00
C812   C     0.45039   0.67778   0.87013   0.00000  Uiso   1.00
H813   H     0.42918   0.68378   0.83516   0.00000  Uiso   1.00
O814   O     0.44792   0.64051   0.88771   0.00000  Uiso   1.00
C815   C     0.83469   0.66382   0.75048   0.00000  Uiso   1.00
C816   C     0.83330   0.83573   0.74969   0.00000  Uiso   1.00
C817   C     0.78843   0.73381   0.54737   0.00000  Uiso   1.00
C818   C     0.84978   0.78971   0.94808   0.00000  Uiso   1.00
C819   C     0.79110   0.73247   0.59742   0.00000  Uiso   1.00
C820   C     0.85123   0.78706   0.89883   0.00000  Uiso   1.00
C821   C     0.87425   0.76914   0.60630   0.00000  Uiso   1.00
C822   C     0.81293   0.71451   0.89680   0.00000  Uiso   1.00
C823   C     0.87523   0.76678   0.55711   0.00000  Uiso   1.00
C824   C     0.81532   0.71422   0.94651   0.00000  Uiso   1.00
C825   C     0.83164   0.75097   0.52639   0.00000  Uiso   1.00
C826   C     0.83258   0.75198   0.97324   0.00000  Uiso   1.00
C827   C     0.73379   0.74930   0.73769   0.00000  Uiso   1.00
C828   C     0.93289   0.74991   0.76236   0.00000  Uiso   1.00
C829   C     0.67881   0.74800   0.73112   0.00000  Uiso   1.00
C830   C     0.98789   0.74999   0.76909   0.00000  Uiso   1.00
C831   C     0.85422   0.54419   0.78839   0.00000  Uiso   1.00
C832   C     0.78740   0.95223   0.73800   0.00000  Uiso   1.00
C833   C     0.85709   0.59045   0.79104   0.00000  Uiso   1.00
C834   C     0.78524   0.90589   0.73882   0.00000  Uiso   1.00
C835   C     0.83604   0.61549   0.75059   0.00000  Uiso   1.00
C836   C     0.83278   0.88320   0.74877   0.00000  Uiso   1.00
C837   C     0.81568   0.59407   0.70820   0.00000  Uiso   1.00
C838   C     0.88119   0.90571   0.75635   0.00000  Uiso   1.00
C839   C     0.81631   0.54795   0.70475   0.00000  Uiso   1.00
C840   C     0.88353   0.95202   0.75410   0.00000  Uiso   1.00
C841   C     0.83533   0.52324   0.74565   0.00000  Uiso   1.00
C842   C     0.83589   0.97503   0.74516   0.00000  Uiso   1.00
H843   H     0.99179   0.74531   0.69512   0.00000  Uiso   1.00
H844   H     0.67497   0.75216   0.80519   0.00000  Uiso   1.00
H845   H     0.86912   0.52403   0.81909   0.00000  Uiso   1.00
H846   H     0.75142   0.97092   0.73173   0.00000  Uiso   1.00
H847   H     0.79984   0.61354   0.67730   0.00000  Uiso   1.00
H848   H     0.91705   0.88687   0.76307   0.00000  Uiso   1.00
H849   H     0.75836   0.71859   0.61314   0.00000  Uiso   1.00
H850   H     0.86527   0.81561   0.88028   0.00000  Uiso   1.00
H851   H     0.90976   0.77854   0.54277   0.00000  Uiso   1.00
H852   H     0.80159   0.68492   0.96417   0.00000  Uiso   1.00
N853   N     0.83333   0.74999   0.62624   0.00000  Uiso   1.00
N854   N     0.83333   0.75001   0.87377   0.00000  Uiso   1.00
O855   O     0.83334   0.68454   0.78974   0.00000  Uiso   1.00
O856   O     0.83333   0.81547   0.71026   0.00000  Uiso   1.00
O857   O     0.83334   0.68453   0.71026   0.00000  Uiso   1.00
O858   O     0.83333   0.81547   0.78974   0.00000  Uiso   1.00
O859   O     0.75725   0.75000   0.78045   0.00000  Uiso   1.00
O860   O     0.90942   0.75000   0.71956   0.00000  Uiso   1.00
O861   O     0.75725   0.75000   0.70097   0.00000  Uiso   1.00
O862   O     0.90942   0.75001   0.79904   0.00000  Uiso   1.00
Zn863  Zn    0.83333   0.75001   0.80307   0.00000  Uiso   1.00
Zn864  Zn    0.83333   0.75000   0.69693   0.00000  Uiso   1.00
C865   C     0.88548   0.61106   0.83483   0.00000  Uiso   1.00
H866   H     0.90298   0.64424   0.83398   0.00000  Uiso   1.00
O867   O     0.89086   0.59057   0.87252   0.00000  Uiso   1.00
C868   C     0.73378   0.88170   0.72922   0.00000  Uiso   1.00
H869   H     0.73117   0.84586   0.73434   0.00000  Uiso   1.00
O870   O     0.69357   0.90150   0.71488   0.00000  Uiso   1.00
C871   C     0.79853   0.52636   0.65831   0.00000  Uiso   1.00
H872   H     0.80357   0.99093   0.65381   0.00000  Uiso   1.00
O873   O     0.77829   0.54804   0.62418   0.00000  Uiso   1.00
C874   C     0.93540   0.97574   0.76028   0.00000  Uiso   1.00
H875   H     0.93852   0.51075   0.75068   0.00000  Uiso   1.00
O876   O     0.97541   0.95646   0.77647   0.00000  Uiso   1.00
N877   N     0.74130   0.71901   0.51836   0.00000  Uiso   1.00
H878   H     0.71036   0.73801   0.52668   0.00000  Uiso   1.00
H879   H     0.73384   0.68578   0.52745   0.00000  Uiso   1.00
N880   N     0.86257   0.83196   0.97024   0.00000  Uiso   1.00
H881   H     0.83597   0.83837   0.99369   0.00000  Uiso   1.00
H882   H     0.90059   0.83120   0.98870   0.00000  Uiso   1.00
C883   C     0.91584   0.79603   0.63474   0.00000  Uiso   1.00
H884   H     0.90840   0.81224   0.66660   0.00000  Uiso   1.00
O885   O     0.95875   0.80197   0.62181   0.00000  Uiso   1.00
C886   C     0.78372   0.67778   0.87013   0.00000  Uiso   1.00
H887   H     0.76251   0.68378   0.83516   0.00000  Uiso   1.00
O888   O     0.78126   0.64051   0.88771   0.00000  Uiso   1.00
loop_
_geom_bond_atom_site_label_1
_geom_bond_atom_site_label_2
_geom_bond_distance
_geom_bond_site_symmetry_2
_ccdc_geom_bond_type
C1     O41     1.292   .     A
C1     C21     1.449   .     S
C1     O43     1.292   .     A
C2     C22     1.423   .     S
C2     O42     1.285   .     A
C2     O44     1.285   .     A
C3     N63     1.432   .     S
C3     C11     1.419   .     A
C3     C5      1.418   .     A
C4     C6      1.413   .     A
C4     C12     1.426   .     A
C4     N66     1.433   .     S
C5     H35     1.082   .     S
C5     N39     1.364   .     A
C6     H36     1.081   .     S
C6     N40     1.364   .     A
C7     C69     1.477   .     S
C7     C9      1.408   .     A
C7     N39     1.377   .     A
C8     N40     1.375   .     A
C8     C72     1.475   .     S
C8     C10     1.409   .     A
C9     C11     1.398   .     A
C9     H37     1.080   .     S
C10    H38     1.083   .     S
C10    C12     1.401   .     A
C11    C456    1.518   1_554 S
C12    C455    1.518   .     S
C13    C15     1.400   .     S
C13    O45     1.280   .     A
C13    O47     1.281   .     A
C14    O46     1.281   .     A
C14    C16     1.401   .     S
C14    O48     1.280   .     A
C15    C164    1.327   1_455 S
C15    H177    1.086   1_455 S
C16    C89     1.327   .     S
C16    H104    1.088   .     S
C17    C19     1.389   .     A
C17    H31     1.085   .     S
C17    C27     1.397   .     A
C18    H32     1.085   .     S
C18    C28     1.399   .     A
C18    C20     1.388   .     A
C19    C51     1.487   .     S
C19    C21     1.414   .     A
C20    C54     1.487   .     S
C20    C22     1.405   .     A
C21    C23     1.404   .     A
C22    C24     1.394   .     A
C23    C25     1.387   .     A
C23    H33     1.084   .     S
C24    H34     1.085   .     S
C24    C26     1.388   .     A
C25    C27     1.405   .     A
C25    C57     1.489   .     S
C26    C28     1.410   .     A
C26    C60     1.487   .     S
C27    C250    1.445   1_545 S
C28    C249    1.445   .     S
H29    C89     1.086   .     S
H30    C164    1.088   1_455 S
N39    Zn50    2.014   .     S
N40    Zn49    2.014   .     S
O41    Zn49    2.003   .     S
O42    Zn50    2.003   .     S
O43    Zn50    1.993   .     S
O44    Zn49    1.993   .     S
O45    Zn49    1.972   .     S
O46    Zn50    1.972   .     S
O47    Zn50    1.978   .     S
O48    Zn49    1.978   .     S
C51    O53     1.221   .     D
C51    H52     1.083   .     S
C54    O56     1.221   .     D
C54    H55     1.084   .     S
C57    O59     1.221   .     D
C57    H280    1.084   1_545 S
H58    C279    1.084   .     S
C60    O62     1.221   .     D
C60    H283    1.085   .     S
H61    C282    1.085   1_545 S
N63    H65     1.046   .     S
N63    H64     1.046   .     S
N66    H68     1.043   .     S
N66    H67     1.045   .     S
C69    O71     1.222   .     D
C69    H70     1.079   .     S
C72    O74     1.221   .     D
C72    H73     1.080   .     S
C75    O115    1.292   .     A
C75    C95     1.449   .     S
C75    O117    1.292   .     A
C76    C96     1.423   .     S
C76    O116    1.285   .     A
C76    O118    1.285   .     A
C77    N137    1.432   .     S
C77    C85     1.419   .     A
C77    C79     1.418   .     A
C78    C80     1.413   .     A
C78    C86     1.426   .     A
C78    N140    1.433   .     S
C79    H109    1.082   .     S
C79    N113    1.364   .     A
C80    H110    1.081   .     S
C80    N114    1.364   .     A
C81    C143    1.477   .     S
C81    C83     1.408   .     A
C81    N113    1.377   .     A
C82    N114    1.375   .     A
C82    C146    1.475   .     S
C82    C84     1.409   .     A
C83    C85     1.398   .     A
C83    H111    1.080   .     S
C84    H112    1.083   .     S
C84    C86     1.401   .     A
C85    C530    1.518   1_554 S
C86    C529    1.518   .     S
C87    C89     1.400   .     S
C87    O119    1.280   .     A
C87    O121    1.281   .     A
C88    O120    1.281   .     A
C88    C90     1.401   .     S
C88    O122    1.280   .     A
C90    C163    1.327   .     S
C90    H178    1.088   .     S
C91    C93     1.389   .     A
C91    H105    1.085   .     S
C91    C101    1.397   .     A
C92    H106    1.085   .     S
C92    C102    1.399   .     A
C92    C94     1.388   .     A
C93    C125    1.487   .     S
C93    C95     1.414   .     A
C94    C128    1.487   .     S
C94    C96     1.405   .     A
C95    C97     1.404   .     A
C96    C98     1.394   .     A
C97    C99     1.387   .     A
C97    H107    1.084   .     S
C98    H108    1.085   .     S
C98    C100    1.388   .     A
C99    C101    1.405   .     A
C99    C131    1.489   .     S
C100   C102    1.410   .     A
C100   C134    1.487   .     S
C101   C324    1.445   1_545 S
C102   C323    1.445   .     S
H103   C163    1.086   .     S
N113   Zn124   2.014   .     S
N114   Zn123   2.014   .     S
O115   Zn123   2.003   .     S
O116   Zn124   2.003   .     S
O117   Zn124   1.993   .     S
O118   Zn123   1.993   .     S
O119   Zn123   1.972   .     S
O120   Zn124   1.972   .     S
O121   Zn124   1.978   .     S
O122   Zn123   1.978   .     S
C125   O127    1.221   .     D
C125   H126    1.083   .     S
C128   O130    1.221   .     D
C128   H129    1.084   .     S
C131   O133    1.221   .     D
C131   H354    1.084   1_545 S
H132   C353    1.084   .     S
C134   O136    1.221   .     D
C134   H357    1.085   .     S
H135   C356    1.085   1_545 S
N137   H139    1.046   .     S
N137   H138    1.046   .     S
N140   H142    1.043   .     S
N140   H141    1.045   .     S
C143   O145    1.222   .     D
C143   H144    1.079   .     S
C146   O148    1.221   .     D
C146   H147    1.080   .     S
C149   O189    1.292   .     A
C149   C169    1.449   .     S
C149   O191    1.292   .     A
C150   C170    1.423   .     S
C150   O190    1.285   .     A
C150   O192    1.285   .     A
C151   N211    1.432   .     S
C151   C159    1.419   .     A
C151   C153    1.418   .     A
C152   C154    1.413   .     A
C152   C160    1.426   .     A
C152   N214    1.433   .     S
C153   H183    1.082   .     S
C153   N187    1.364   .     A
C154   H184    1.081   .     S
C154   N188    1.364   .     A
C155   C217    1.477   .     S
C155   C157    1.408   .     A
C155   N187    1.377   .     A
C156   N188    1.375   .     A
C156   C220    1.475   .     S
C156   C158    1.409   .     A
C157   C159    1.398   .     A
C157   H185    1.080   .     S
C158   H186    1.083   .     S
C158   C160    1.401   .     A
C159   C604    1.518   1_554 S
C160   C603    1.518   .     S
C161   C163    1.400   .     S
C161   O193    1.280   .     A
C161   O195    1.281   .     A
C162   O194    1.281   .     A
C162   C164    1.401   .     S
C162   O196    1.280   .     A
C164   C15     1.327   1_655 S
C164   H30     1.088   1_655 S
C165   C167    1.389   .     A
C165   H179    1.085   .     S
C165   C175    1.397   .     A
C166   H180    1.085   .     S
C166   C176    1.399   .     A
C166   C168    1.388   .     A
C167   C199    1.487   .     S
C167   C169    1.414   .     A
C168   C202    1.487   .     S
C168   C170    1.405   .     A
C169   C171    1.404   .     A
C170   C172    1.394   .     A
C171   C173    1.387   .     A
C171   H181    1.084   .     S
C172   H182    1.085   .     S
C172   C174    1.388   .     A
C173   C175    1.405   .     A
C173   C205    1.489   .     S
C174   C176    1.410   .     A
C174   C208    1.487   .     S
C175   C398    1.445   1_545 S
C176   C397    1.445   .     S
H177   C15     1.086   1_655 S
N187   Zn198   2.014   .     S
N188   Zn197   2.014   .     S
O189   Zn197   2.003   .     S
O190   Zn198   2.003   .     S
O191   Zn198   1.993   .     S
O192   Zn197   1.993   .     S
O193   Zn197   1.972   .     S
O194   Zn198   1.972   .     S
O195   Zn198   1.978   .     S
O196   Zn197   1.978   .     S
C199   O201    1.221   .     D
C199   H200    1.083   .     S
C202   O204    1.221   .     D
C202   H203    1.084   .     S
C205   O207    1.221   .     D
C205   H428    1.084   1_545 S
H206   C427    1.084   .     S
C208   O210    1.221   .     D
C208   H431    1.085   .     S
H209   C430    1.085   1_545 S
N211   H213    1.046   .     S
N211   H212    1.046   .     S
N214   H216    1.043   .     S
N214   H215    1.045   .     S
C217   O219    1.222   .     D
C217   H218    1.079   .     S
C220   O222    1.221   .     D
C220   H221    1.080   .     S
C223   O263    1.292   .     A
C223   C243    1.449   .     S
C223   O265    1.292   .     A
C224   C244    1.423   .     S
C224   O264    1.285   .     A
C224   O266    1.285   .     A
C225   N285    1.432   .     S
C225   C233    1.419   .     A
C225   C227    1.418   .     A
C226   C228    1.413   .     A
C226   C234    1.426   .     A
C226   N288    1.433   .     S
C227   H257    1.082   .     S
C227   N261    1.364   .     A
C228   H258    1.081   .     S
C228   N262    1.364   .     A
C229   C291    1.477   .     S
C229   C231    1.408   .     A
C229   N261    1.377   .     A
C230   N262    1.375   .     A
C230   C294    1.475   .     S
C230   C232    1.409   .     A
C231   C233    1.398   .     A
C231   H259    1.080   .     S
C232   H260    1.083   .     S
C232   C234    1.401   .     A
C233   C678    1.518   1_554 S
C234   C677    1.518   .     S
C235   C237    1.400   .     S
C235   O267    1.280   .     A
C235   O269    1.281   .     A
C236   O268    1.281   .     A
C236   C238    1.401   .     S
C236   O270    1.280   .     A
C237   C386    1.327   1_455 S
C237   H399    1.086   1_455 S
C238   C311    1.327   .     S
C238   H326    1.088   .     S
C239   C241    1.389   .     A
C239   H253    1.085   .     S
C239   C249    1.397   .     A
C240   H254    1.085   .     S
C240   C250    1.399   .     A
C240   C242    1.388   .     A
C241   C273    1.487   .     S
C241   C243    1.414   .     A
C242   C276    1.487   .     S
C242   C244    1.405   .     A
C243   C245    1.404   .     A
C244   C246    1.394   .     A
C245   C247    1.387   .     A
C245   H255    1.084   .     S
C246   H256    1.085   .     S
C246   C248    1.388   .     A
C247   C249    1.405   .     A
C247   C279    1.489   .     S
C248   C250    1.410   .     A
C248   C282    1.487   .     S
C250   C27     1.445   1_565 S
H251   C311    1.086   .     S
H252   C386    1.088   1_455 S
N261   Zn272   2.014   .     S
N262   Zn271   2.014   .     S
O263   Zn271   2.003   .     S
O264   Zn272   2.003   .     S
O265   Zn272   1.993   .     S
O266   Zn271   1.993   .     S
O267   Zn271   1.972   .     S
O268   Zn272   1.972   .     S
O269   Zn272   1.978   .     S
O270   Zn271   1.978   .     S
C273   O275    1.221   .     D
C273   H274    1.083   .     S
C276   O278    1.221   .     D
C276   H277    1.084   .     S
C279   O281    1.221   .     D
H280   C57     1.084   1_565 S
C282   O284    1.221   .     D
C282   H61     1.085   1_565 S
N285   H287    1.046   .     S
N285   H286    1.046   .     S
N288   H290    1.043   .     S
N288   H289    1.045   .     S
C291   O293    1.222   .     D
C291   H292    1.079   .     S
C294   O296    1.221   .     D
C294   H295    1.080   .     S
C297   O337    1.292   .     A
C297   C317    1.449   .     S
C297   O339    1.292   .     A
C298   C318    1.423   .     S
C298   O338    1.285   .     A
C298   O340    1.285   .     A
C299   N359    1.432   .     S
C299   C307    1.419   .     A
C299   C301    1.418   .     A
C300   C302    1.413   .     A
C300   C308    1.426   .     A
C300   N362    1.433   .     S
C301   H331    1.082   .     S
C301   N335    1.364   .     A
C302   H332    1.081   .     S
C302   N336    1.364   .     A
C303   C365    1.477   .     S
C303   C305    1.408   .     A
C303   N335    1.377   .     A
C304   N336    1.375   .     A
C304   C368    1.475   .     S
C304   C306    1.409   .     A
C305   C307    1.398   .     A
C305   H333    1.080   .     S
C306   H334    1.083   .     S
C306   C308    1.401   .     A
C307   C752    1.518   1_554 S
C308   C751    1.518   .     S
C309   C311    1.400   .     S
C309   O341    1.280   .     A
C309   O343    1.281   .     A
C310   O342    1.281   .     A
C310   C312    1.401   .     S
C310   O344    1.280   .     A
C312   C385    1.327   .     S
C312   H400    1.088   .     S
C313   C315    1.389   .     A
C313   H327    1.085   .     S
C313   C323    1.397   .     A
C314   H328    1.085   .     S
C314   C324    1.399   .     A
C314   C316    1.388   .     A
C315   C347    1.487   .     S
C315   C317    1.414   .     A
C316   C350    1.487   .     S
C316   C318    1.405   .     A
C317   C319    1.404   .     A
C318   C320    1.394   .     A
C319   C321    1.387   .     A
C319   H329    1.084   .     S
C320   H330    1.085   .     S
C320   C322    1.388   .     A
C321   C323    1.405   .     A
C321   C353    1.489   .     S
C322   C324    1.410   .     A
C322   C356    1.487   .     S
C324   C101    1.445   1_565 S
H325   C385    1.086   .     S
N335   Zn346   2.014   .     S
N336   Zn345   2.014   .     S
O337   Zn345   2.003   .     S
O338   Zn346   2.003   .     S
O339   Zn346   1.993   .     S
O340   Zn345   1.993   .     S
O341   Zn345   1.972   .     S
O342   Zn346   1.972   .     S
O343   Zn346   1.978   .     S
O344   Zn345   1.978   .     S
C347   O349    1.221   .     D
C347   H348    1.083   .     S
C350   O352    1.221   .     D
C350   H351    1.084   .     S
C353   O355    1.221   .     D
H354   C131    1.084   1_565 S
C356   O358    1.221   .     D
C356   H135    1.085   1_565 S
N359   H361    1.046   .     S
N359   H360    1.046   .     S
N362   H364    1.043   .     S
N362   H363    1.045   .     S
C365   O367    1.222   .     D
C365   H366    1.079   .     S
C368   O370    1.221   .     D
C368   H369    1.080   .     S
C371   O411    1.292   .     A
C371   C391    1.449   .     S
C371   O413    1.292   .     A
C372   C392    1.423   .     S
C372   O412    1.285   .     A
C372   O414    1.285   .     A
C373   N433    1.432   .     S
C373   C381    1.419   .     A
C373   C375    1.418   .     A
C374   C376    1.413   .     A
C374   C382    1.426   .     A
C374   N436    1.433   .     S
C375   H405    1.082   .     S
C375   N409    1.364   .     A
C376   H406    1.081   .     S
C376   N410    1.364   .     A
C377   C439    1.477   .     S
C377   C379    1.408   .     A
C377   N409    1.377   .     A
C378   N410    1.375   .     A
C378   C442    1.475   .     S
C378   C380    1.409   .     A
C379   C381    1.398   .     A
C379   H407    1.080   .     S
C380   H408    1.083   .     S
C380   C382    1.401   .     A
C381   C826    1.518   1_554 S
C382   C825    1.518   .     S
C383   C385    1.400   .     S
C383   O415    1.280   .     A
C383   O417    1.281   .     A
C384   O416    1.281   .     A
C384   C386    1.401   .     S
C384   O418    1.280   .     A
C386   C237    1.327   1_655 S
C386   H252    1.088   1_655 S
C387   C389    1.389   .     A
C387   H401    1.085   .     S
C387   C397    1.397   .     A
C388   H402    1.085   .     S
C388   C398    1.399   .     A
C388   C390    1.388   .     A
C389   C421    1.487   .     S
C389   C391    1.414   .     A
C390   C424    1.487   .     S
C390   C392    1.405   .     A
C391   C393    1.404   .     A
C392   C394    1.394   .     A
C393   C395    1.387   .     A
C393   H403    1.084   .     S
C394   H404    1.085   .     S
C394   C396    1.388   .     A
C395   C397    1.405   .     A
C395   C427    1.489   .     S
C396   C398    1.410   .     A
C396   C430    1.487   .     S
C398   C175    1.445   1_565 S
H399   C237    1.086   1_655 S
N409   Zn420   2.014   .     S
N410   Zn419   2.014   .     S
O411   Zn419   2.003   .     S
O412   Zn420   2.003   .     S
O413   Zn420   1.993   .     S
O414   Zn419   1.993   .     S
O415   Zn419   1.972   .     S
O416   Zn420   1.972   .     S
O417   Zn420   1.978   .     S
O418   Zn419   1.978   .     S
C421   O423    1.221   .     D
C421   H422    1.083   .     S
C424   O426    1.221   .     D
C424   H425    1.084   .     S
C427   O429    1.221   .     D
H428   C205    1.084   1_565 S
C430   O432    1.221   .     D
C430   H209    1.085   1_565 S
N433   H435    1.046   .     S
N433   H434    1.046   .     S
N436   H438    1.043   .     S
N436   H437    1.045   .     S
C439   O441    1.222   .     D
C439   H440    1.079   .     S
C442   O444    1.221   .     D
C442   H443    1.080   .     S
C445   O485    1.292   .     A
C445   C465    1.449   .     S
C445   O487    1.292   .     A
C446   C466    1.423   .     S
C446   O486    1.285   .     A
C446   O488    1.285   .     A
C447   N507    1.432   .     S
C447   C455    1.419   .     A
C447   C449    1.418   .     A
C448   C450    1.413   .     A
C448   C456    1.426   .     A
C448   N510    1.433   .     S
C449   H479    1.082   .     S
C449   N483    1.364   .     A
C450   H480    1.081   .     S
C450   N484    1.364   .     A
C451   C513    1.477   .     S
C451   C453    1.408   .     A
C451   N483    1.377   .     A
C452   N484    1.375   .     A
C452   C516    1.475   .     S
C452   C454    1.409   .     A
C453   C455    1.398   .     A
C453   H481    1.080   .     S
C454   H482    1.083   .     S
C454   C456    1.401   .     A
C456   C11     1.518   1_556 S
C457   C459    1.400   .     S
C457   O489    1.280   .     A
C457   O491    1.281   .     A
C458   O490    1.281   .     A
C458   C460    1.401   .     S
C458   O492    1.280   .     A
C459   C608    1.327   1_455 S
C459   H621    1.086   1_455 S
C460   C533    1.327   .     S
C460   H548    1.088   .     S
C461   C463    1.389   .     A
C461   H475    1.085   .     S
C461   C471    1.397   .     A
C462   H476    1.085   .     S
C462   C472    1.399   .     A
C462   C464    1.388   .     A
C463   C495    1.487   .     S
C463   C465    1.414   .     A
C464   C498    1.487   .     S
C464   C466    1.405   .     A
C465   C467    1.404   .     A
C466   C468    1.394   .     A
C467   C469    1.387   .     A
C467   H477    1.084   .     S
C468   H478    1.085   .     S
C468   C470    1.388   .     A
C469   C471    1.405   .     A
C469   C501    1.489   .     S
C470   C472    1.410   .     A
C470   C504    1.487   .     S
C471   C694    1.445   1_545 S
C472   C693    1.445   .     S
H473   C533    1.086   .     S
H474   C608    1.088   1_455 S
N483   Zn494   2.014   .     S
N484   Zn493   2.014   .     S
O485   Zn493   2.003   .     S
O486   Zn494   2.003   .     S
O487   Zn494   1.993   .     S
O488   Zn493   1.993   .     S
O489   Zn493   1.972   .     S
O490   Zn494   1.972   .     S
O491   Zn494   1.978   .     S
O492   Zn493   1.978   .     S
C495   O497    1.221   .     D
C495   H496    1.083   .     S
C498   O500    1.221   .     D
C498   H499    1.084   .     S
C501   O503    1.221   .     D
C501   H724    1.084   1_545 S
H502   C723    1.084   .     S
C504   O506    1.221   .     D
C504   H727    1.085   .     S
H505   C726    1.085   1_545 S
N507   H509    1.046   .     S
N507   H508    1.046   .     S
N510   H512    1.043   .     S
N510   H511    1.045   .     S
C513   O515    1.222   .     D
C513   H514    1.079   .     S
C516   O518    1.221   .     D
C516   H517    1.080   .     S
C519   O559    1.292   .     A
C519   C539    1.449   .     S
C519   O561    1.292   .     A
C520   C540    1.423   .     S
C520   O560    1.285   .     A
C520   O562    1.285   .     A
C521   N581    1.432   .     S
C521   C529    1.419   .     A
C521   C523    1.418   .     A
C522   C524    1.413   .     A
C522   C530    1.426   .     A
C522   N584    1.433   .     S
C523   H553    1.082   .     S
C523   N557    1.364   .     A
C524   H554    1.081   .     S
C524   N558    1.364   .     A
C525   C587    1.477   .     S
C525   C527    1.408   .     A
C525   N557    1.377   .     A
C526   N558    1.375   .     A
C526   C590    1.475   .     S
C526   C528    1.409   .     A
C527   C529    1.398   .     A
C527   H555    1.080   .     S
C528   H556    1.083   .     S
C528   C530    1.401   .     A
C530   C85     1.518   1_556 S
C531   C533    1.400   .     S
C531   O563    1.280   .     A
C531   O565    1.281   .     A
C532   O564    1.281   .     A
C532   C534    1.401   .     S
C532   O566    1.280   .     A
C534   C607    1.327   .     S
C534   H622    1.088   .     S
C535   C537    1.389   .     A
C535   H549    1.085   .     S
C535   C545    1.397   .     A
C536   H550    1.085   .     S
C536   C546    1.399   .     A
C536   C538    1.388   .     A
C537   C569    1.487   .     S
C537   C539    1.414   .     A
C538   C572    1.487   .     S
C538   C540    1.405   .     A
C539   C541    1.404   .     A
C540   C542    1.394   .     A
C541   C543    1.387   .     A
C541   H551    1.084   .     S
C542   H552    1.085   .     S
C542   C544    1.388   .     A
C543   C545    1.405   .     A
C543   C575    1.489   .     S
C544   C546    1.410   .     A
C544   C578    1.487   .     S
C545   C768    1.445   1_545 S
C546   C767    1.445   .     S
H547   C607    1.086   .     S
N557   Zn568   2.014   .     S
N558   Zn567   2.014   .     S
O559   Zn567   2.003   .     S
O560   Zn568   2.003   .     S
O561   Zn568   1.993   .     S
O562   Zn567   1.993   .     S
O563   Zn567   1.972   .     S
O564   Zn568   1.972   .     S
O565   Zn568   1.978   .     S
O566   Zn567   1.978   .     S
C569   O571    1.221   .     D
C569   H570    1.083   .     S
C572   O574    1.221   .     D
C572   H573    1.084   .     S
C575   O577    1.221   .     D
C575   H798    1.084   1_545 S
H576   C797    1.084   .     S
C578   O580    1.221   .     D
C578   H801    1.085   .     S
H579   C800    1.085   1_545 S
N581   H583    1.046   .     S
N581   H582    1.046   .     S
N584   H586    1.043   .     S
N584   H585    1.045   .     S
C587   O589    1.222   .     D
C587   H588    1.079   .     S
C590   O592    1.221   .     D
C590   H591    1.080   .     S
C593   O633    1.292   .     A
C593   C613    1.449   .     S
C593   O635    1.292   .     A
C594   C614    1.423   .     S
C594   O634    1.285   .     A
C594   O636    1.285   .     A
C595   N655    1.432   .     S
C595   C603    1.419   .     A
C595   C597    1.418   .     A
C596   C598    1.413   .     A
C596   C604    1.426   .     A
C596   N658    1.433   .     S
C597   H627    1.082   .     S
C597   N631    1.364   .     A
C598   H628    1.081   .     S
C598   N632    1.364   .     A
C599   C661    1.477   .     S
C599   C601    1.408   .     A
C599   N631    1.377   .     A
C600   N632    1.375   .     A
C600   C664    1.475   .     S
C600   C602    1.409   .     A
C601   C603    1.398   .     A
C601   H629    1.080   .     S
C602   H630    1.083   .     S
C602   C604    1.401   .     A
C604   C159    1.518   1_556 S
C605   C607    1.400   .     S
C605   O637    1.280   .     A
C605   O639    1.281   .     A
C606   O638    1.281   .     A
C606   C608    1.401   .     S
C606   O640    1.280   .     A
C608   C459    1.327   1_655 S
C608   H474    1.088   1_655 S
C609   C611    1.389   .     A
C609   H623    1.085   .     S
C609   C619    1.397   .     A
C610   H624    1.085   .     S
C610   C620    1.399   .     A
C610   C612    1.388   .     A
C611   C643    1.487   .     S
C611   C613    1.414   .     A
C612   C646    1.487   .     S
C612   C614    1.405   .     A
C613   C615    1.404   .     A
C614   C616    1.394   .     A
C615   C617    1.387   .     A
C615   H625    1.084   .     S
C616   H626    1.085   .     S
C616   C618    1.388   .     A
C617   C619    1.405   .     A
C617   C649    1.489   .     S
C618   C620    1.410   .     A
C618   C652    1.487   .     S
C619   C842    1.445   1_545 S
C620   C841    1.445   .     S
H621   C459    1.086   1_655 S
N631   Zn642   2.014   .     S
N632   Zn641   2.014   .     S
O633   Zn641   2.003   .     S
O634   Zn642   2.003   .     S
O635   Zn642   1.993   .     S
O636   Zn641   1.993   .     S
O637   Zn641   1.972   .     S
O638   Zn642   1.972   .     S
O639   Zn642   1.978   .     S
O640   Zn641   1.978   .     S
C643   O645    1.221   .     D
C643   H644    1.083   .     S
C646   O648    1.221   .     D
C646   H647    1.084   .     S
C649   O651    1.221   .     D
C649   H872    1.084   1_545 S
H650   C871    1.084   .     S
C652   O654    1.221   .     D
C652   H875    1.085   .     S
H653   C874    1.085   1_545 S
N655   H657    1.046   .     S
N655   H656    1.046   .     S
N658   H660    1.043   .     S
N658   H659    1.045   .     S
C661   O663    1.222   .     D
C661   H662    1.079   .     S
C664   O666    1.221   .     D
C664   H665    1.080   .     S
C667   O707    1.292   .     A
C667   C687    1.449   .     S
C667   O709    1.292   .     A
C668   C688    1.423   .     S
C668   O708    1.285   .     A
C668   O710    1.285   .     A
C669   N729    1.432   .     S
C669   C677    1.419   .     A
C669   C671    1.418   .     A
C670   C672    1.413   .     A
C670   C678    1.426   .     A
C670   N732    1.433   .     S
C671   H701    1.082   .     S
C671   N705    1.364   .     A
C672   H702    1.081   .     S
C672   N706    1.364   .     A
C673   C735    1.477   .     S
C673   C675    1.408   .     A
C673   N705    1.377   .     A
C674   N706    1.375   .     A
C674   C738    1.475   .     S
C674   C676    1.409   .     A
C675   C677    1.398   .     A
C675   H703    1.080   .     S
C676   H704    1.083   .     S
C676   C678    1.401   .     A
C678   C233    1.518   1_556 S
C679   C681    1.400   .     S
C679   O711    1.280   .     A
C679   O713    1.281   .     A
C680   O712    1.281   .     A
C680   C682    1.401   .     S
C680   O714    1.280   .     A
C681   C830    1.327   1_455 S
C681   H843    1.086   1_455 S
C682   C755    1.327   .     S
C682   H770    1.088   .     S
C683   C685    1.389   .     A
C683   H697    1.085   .     S
C683   C693    1.397   .     A
C684   H698    1.085   .     S
C684   C694    1.399   .     A
C684   C686    1.388   .     A
C685   C717    1.487   .     S
C685   C687    1.414   .     A
C686   C720    1.487   .     S
C686   C688    1.405   .     A
C687   C689    1.404   .     A
C688   C690    1.394   .     A
C689   C691    1.387   .     A
C689   H699    1.084   .     S
C690   H700    1.085   .     S
C690   C692    1.388   .     A
C691   C693    1.405   .     A
C691   C723    1.489   .     S
C692   C694    1.410   .     A
C692   C726    1.487   .     S
C694   C471    1.445   1_565 S
H695   C755    1.086   .     S
H696   C830    1.088   1_455 S
N705   Zn716   2.014   .     S
N706   Zn715   2.014   .     S
O707   Zn715   2.003   .     S
O708   Zn716   2.003   .     S
O709   Zn716   1.993   .     S
O710   Zn715   1.993   .     S
O711   Zn715   1.972   .     S
O712   Zn716   1.972   .     S
O713   Zn716   1.978   .     S
O714   Zn715   1.978   .     S
C717   O719    1.221   .     D
C717   H718    1.083   .     S
C720   O722    1.221   .     D
C720   H721    1.084   .     S
C723   O725    1.221   .     D
H724   C501    1.084   1_565 S
C726   O728    1.221   .     D
C726   H505    1.085   1_565 S
N729   H731    1.046   .     S
N729   H730    1.046   .     S
N732   H734    1.043   .     S
N732   H733    1.045   .     S
C735   O737    1.222   .     D
C735   H736    1.079   .     S
C738   O740    1.221   .     D
C738   H739    1.080   .     S
C741   O781    1.292   .     A
C741   C761    1.449   .     S
C741   O783    1.292   .     A
C742   C762    1.423   .     S
C742   O782    1.285   .     A
C742   O784    1.285   .     A
C743   N803    1.432   .     S
C743   C751    1.419   .     A
C743   C745    1.418   .     A
C744   C746    1.413   .     A
C744   C752    1.426   .     A
C744   N806    1.433   .     S
C745   H775    1.082   .     S
C745   N779    1.364   .     A
C746   H776    1.081   .     S
C746   N780    1.364   .     A
C747   C809    1.477   .     S
C747   C749    1.408   .     A
C747   N779    1.377   .     A
C748   N780    1.375   .     A
C748   C812    1.475   .     S
C748   C750    1.409   .     A
C749   C751    1.398   .     A
C749   H777    1.080   .     S
C750   H778    1.083   .     S
C750   C752    1.401   .     A
C752   C307    1.518   1_556 S
C753   C755    1.400   .     S
C753   O785    1.280   .     A
C753   O787    1.281   .     A
C754   O786    1.281   .     A
C754   C756    1.401   .     S
C754   O788    1.280   .     A
C756   C829    1.327   .     S
C756   H844    1.088   .     S
C757   C759    1.389   .     A
C757   H771    1.085   .     S
C757   C767    1.397   .     A
C758   H772    1.085   .     S
C758   C768    1.399   .     A
C758   C760    1.388   .     A
C759   C791    1.487   .     S
C759   C761    1.414   .     A
C760   C794    1.487   .     S
C760   C762    1.405   .     A
C761   C763    1.404   .     A
C762   C764    1.394   .     A
C763   C765    1.387   .     A
C763   H773    1.084   .     S
C764   H774    1.085   .     S
C764   C766    1.388   .     A
C765   C767    1.405   .     A
C765   C797    1.489   .     S
C766   C768    1.410   .     A
C766   C800    1.487   .     S
C768   C545    1.445   1_565 S
H769   C829    1.086   .     S
N779   Zn790   2.014   .     S
N780   Zn789   2.014   .     S
O781   Zn789   2.003   .     S
O782   Zn790   2.003   .     S
O783   Zn790   1.993   .     S
O784   Zn789   1.993   .     S
O785   Zn789   1.972   .     S
O786   Zn790   1.972   .     S
O787   Zn790   1.978   .     S
O788   Zn789   1.978   .     S
C791   O793    1.221   .     D
C791   H792    1.083   .     S
C794   O796    1.221   .     D
C794   H795    1.084   .     S
C797   O799    1.221   .     D
H798   C575    1.084   1_565 S
C800   O802    1.221   .     D
C800   H579    1.085   1_565 S
N803   H805    1.046   .     S
N803   H804    1.046   .     S
N806   H808    1.043   .     S
N806   H807    1.045   .     S
C809   O811    1.222   .     D
C809   H810    1.079   .     S
C812   O814    1.221   .     D
C812   H813    1.080   .     S
C815   O855    1.292   .     A
C815   C835    1.449   .     S
C815   O857    1.292   .     A
C816   C836    1.423   .     S
C816   O856    1.285   .     A
C816   O858    1.285   .     A
C817   N877    1.432   .     S
C817   C825    1.419   .     A
C817   C819    1.418   .     A
C818   C820    1.413   .     A
C818   C826    1.426   .     A
C818   N880    1.433   .     S
C819   H849    1.082   .     S
C819   N853    1.364   .     A
C820   H850    1.081   .     S
C820   N854    1.364   .     A
C821   C883    1.477   .     S
C821   C823    1.408   .     A
C821   N853    1.377   .     A
C822   N854    1.375   .     A
C822   C886    1.475   .     S
C822   C824    1.409   .     A
C823   C825    1.398   .     A
C823   H851    1.080   .     S
C824   H852    1.083   .     S
C824   C826    1.401   .     A
C826   C381    1.518   1_556 S
C827   C829    1.400   .     S
C827   O859    1.280   .     A
C827   O861    1.281   .     A
C828   O860    1.281   .     A
C828   C830    1.401   .     S
C828   O862    1.280   .     A
C830   C681    1.327   1_655 S
C830   H696    1.088   1_655 S
C831   C833    1.389   .     A
C831   H845    1.085   .     S
C831   C841    1.397   .     A
C832   H846    1.085   .     S
C832   C842    1.399   .     A
C832   C834    1.388   .     A
C833   C865    1.487   .     S
C833   C835    1.414   .     A
C834   C868    1.487   .     S
C834   C836    1.405   .     A
C835   C837    1.404   .     A
C836   C838    1.394   .     A
C837   C839    1.387   .     A
C837   H847    1.084   .     S
C838   H848    1.085   .     S
C838   C840    1.388   .     A
C839   C841    1.405   .     A
C839   C871    1.489   .     S
C840   C842    1.410   .     A
C840   C874    1.487   .     S
C842   C619    1.445   1_565 S
H843   C681    1.086   1_655 S
N853   Zn864   2.014   .     S
N854   Zn863   2.014   .     S
O855   Zn863   2.003   .     S
O856   Zn864   2.003   .     S
O857   Zn864   1.993   .     S
O858   Zn863   1.993   .     S
O859   Zn863   1.972   .     S
O860   Zn864   1.972   .     S
O861   Zn864   1.978   .     S
O862   Zn863   1.978   .     S
C865   O867    1.221   .     D
C865   H866    1.083   .     S
C868   O870    1.221   .     D
C868   H869    1.084   .     S
C871   O873    1.221   .     D
H872   C649    1.084   1_565 S
C874   O876    1.221   .     D
C874   H653    1.085   1_565 S
N877   H879    1.046   .     S
N877   H878    1.046   .     S
N880   H882    1.043   .     S
N880   H881    1.045   .     S
C883   O885    1.222   .     D
C883   H884    1.079   .     S
C886   O888    1.221   .     D
C886   H887    1.080   .     S
