data_str_m3_o1_o10_pcu_sym.127
_audit_creation_date              2020-01-03
_audit_creation_method            'Materials Studio'
_symmetry_space_group_name_H-M    'P1'
_symmetry_Int_Tables_number       1
_symmetry_cell_setting            triclinic
loop_
_symmetry_equiv_pos_as_xyz
  x,y,z
_cell_length_a                    26.0924
_cell_length_b                    32.1867
_cell_length_c                    29.8889
_cell_angle_alpha                 90.8630
_cell_angle_beta                  99.2951
_cell_angle_gamma                 95.1749
loop_
_atom_site_label
_atom_site_type_symbol
_atom_site_fract_x
_atom_site_fract_y
_atom_site_fract_z
_atom_site_U_iso_or_equiv
_atom_site_adp_type
_atom_site_occupancy
C1     C     0.16866   0.08694   0.16679   0.00000  Uiso   1.00
C2     C     0.16467   0.24640   0.16655   0.00000  Uiso   1.00
C3     C     0.06725   0.16674   0.15482   0.00000  Uiso   1.00
C4     C     0.26609   0.16659   0.17852   0.00000  Uiso   1.00
C5     C     0.01215   0.16201   0.14898   0.00000  Uiso   1.00
C6     C     0.32118   0.17132   0.18436   0.00000  Uiso   1.00
C7     C     0.14779   0.02006   0.12729   0.00000  Uiso   1.00
C8     C     0.18554   0.31327   0.20604   0.00000  Uiso   1.00
C9     C     0.14320   0.31062   0.12690   0.00000  Uiso   1.00
C10    C     0.19013   0.02271   0.20644   0.00000  Uiso   1.00
C11    C     0.16331   0.29054   0.16647   0.00000  Uiso   1.00
C12    C     0.17003   0.04279   0.16686   0.00000  Uiso   1.00
C13    C     0.20023   0.19385   0.03004   0.00000  Uiso   1.00
C14    C     0.13310   0.13949   0.30330   0.00000  Uiso   1.00
C15    C     0.20100   0.19431   0.31562   0.00000  Uiso   1.00
C16    C     0.13234   0.13902   0.01772   0.00000  Uiso   1.00
H17    H     0.13281   0.03535   0.09675   0.00000  Uiso   1.00
H18    H     0.20052   0.29798   0.23659   0.00000  Uiso   1.00
N19    N     0.16665   0.16666   0.28573   0.00000  Uiso   1.00
N20    N     0.16668   0.16668   0.04760   0.00000  Uiso   1.00
O21    O     0.16666   0.10558   0.20487   0.00000  Uiso   1.00
O22    O     0.16667   0.22775   0.12846   0.00000  Uiso   1.00
O23    O     0.16666   0.10559   0.12843   0.00000  Uiso   1.00
O24    O     0.16667   0.22774   0.20490   0.00000  Uiso   1.00
O25    O     0.09058   0.16666   0.19595   0.00000  Uiso   1.00
O26    O     0.24275   0.16667   0.13739   0.00000  Uiso   1.00
O27    O     0.09058   0.16667   0.11950   0.00000  Uiso   1.00
O28    O     0.24275   0.16666   0.21383   0.00000  Uiso   1.00
Zn29   Zn    0.16667   0.16666   0.21771   0.00000  Uiso   1.00
Zn30   Zn    0.16667   0.16667   0.11563   0.00000  Uiso   1.00
Cl31   Cl    0.31469   0.13749   0.09635   0.00000  Uiso   1.00
Cl32   Cl    0.01864   0.19584   0.23698   0.00000  Uiso   1.00
Cl33   Cl    0.10931   0.28440   0.07692   0.00000  Uiso   1.00
Cl34   Cl    0.22402   0.04893   0.25642   0.00000  Uiso   1.00
Cl35   Cl    0.24273   0.22855   0.06860   0.00000  Uiso   1.00
Cl36   Cl    0.09061   0.10479   0.26474   0.00000  Uiso   1.00
S37    S     0.24945   0.23229   0.29988   0.00000  Uiso   1.00
O38    O     0.23876   0.27414   0.31747   0.00000  Uiso   1.00
O39    O     0.30147   0.22207   0.32464   0.00000  Uiso   1.00
O40    O     0.25614   0.23829   0.24571   0.00000  Uiso   1.00
H41    H     0.28236   0.26260   0.24589   0.00000  Uiso   1.00
S42    S     0.08388   0.10104   0.03346   0.00000  Uiso   1.00
O43    O     0.03186   0.11126   0.00869   0.00000  Uiso   1.00
O44    O     0.09458   0.05919   0.01586   0.00000  Uiso   1.00
O45    O     0.07719   0.09504   0.08762   0.00000  Uiso   1.00
H46    H     0.05098   0.07073   0.08745   0.00000  Uiso   1.00
C47    C     0.50200   0.08694   0.16679   0.00000  Uiso   1.00
C48    C     0.49800   0.24640   0.16655   0.00000  Uiso   1.00
C49    C     0.40058   0.16674   0.15482   0.00000  Uiso   1.00
C50    C     0.59942   0.16659   0.17852   0.00000  Uiso   1.00
C51    C     0.34549   0.16201   0.14898   0.00000  Uiso   1.00
C52    C     0.65451   0.17132   0.18436   0.00000  Uiso   1.00
C53    C     0.48112   0.02006   0.12729   0.00000  Uiso   1.00
C54    C     0.51888   0.31327   0.20604   0.00000  Uiso   1.00
C55    C     0.47653   0.31062   0.12690   0.00000  Uiso   1.00
C56    C     0.52346   0.02271   0.20644   0.00000  Uiso   1.00
C57    C     0.49664   0.29054   0.16647   0.00000  Uiso   1.00
C58    C     0.50336   0.04279   0.16686   0.00000  Uiso   1.00
C59    C     0.53356   0.19385   0.03004   0.00000  Uiso   1.00
C60    C     0.46644   0.13949   0.30330   0.00000  Uiso   1.00
C61    C     0.53433   0.19431   0.31562   0.00000  Uiso   1.00
C62    C     0.46567   0.13902   0.01772   0.00000  Uiso   1.00
H63    H     0.46614   0.03535   0.09675   0.00000  Uiso   1.00
H64    H     0.53385   0.29798   0.23659   0.00000  Uiso   1.00
N65    N     0.49999   0.16666   0.28573   0.00000  Uiso   1.00
N66    N     0.50001   0.16668   0.04760   0.00000  Uiso   1.00
O67    O     0.50000   0.10558   0.20487   0.00000  Uiso   1.00
O68    O     0.50000   0.22775   0.12846   0.00000  Uiso   1.00
O69    O     0.50000   0.10559   0.12843   0.00000  Uiso   1.00
O70    O     0.50000   0.22774   0.20490   0.00000  Uiso   1.00
O71    O     0.42392   0.16666   0.19595   0.00000  Uiso   1.00
O72    O     0.57608   0.16667   0.13739   0.00000  Uiso   1.00
O73    O     0.42392   0.16667   0.11950   0.00000  Uiso   1.00
O74    O     0.57608   0.16666   0.21383   0.00000  Uiso   1.00
Zn75   Zn    0.50000   0.16666   0.21771   0.00000  Uiso   1.00
Zn76   Zn    0.50000   0.16667   0.11563   0.00000  Uiso   1.00
Cl77   Cl    0.64802   0.13749   0.09635   0.00000  Uiso   1.00
Cl78   Cl    0.35198   0.19584   0.23698   0.00000  Uiso   1.00
Cl79   Cl    0.44264   0.28440   0.07692   0.00000  Uiso   1.00
Cl80   Cl    0.55735   0.04893   0.25642   0.00000  Uiso   1.00
Cl81   Cl    0.57606   0.22855   0.06860   0.00000  Uiso   1.00
Cl82   Cl    0.42394   0.10479   0.26474   0.00000  Uiso   1.00
S83    S     0.58278   0.23229   0.29988   0.00000  Uiso   1.00
O84    O     0.57209   0.27414   0.31747   0.00000  Uiso   1.00
O85    O     0.63480   0.22207   0.32464   0.00000  Uiso   1.00
O86    O     0.58948   0.23829   0.24571   0.00000  Uiso   1.00
H87    H     0.61569   0.26260   0.24589   0.00000  Uiso   1.00
S88    S     0.41722   0.10104   0.03346   0.00000  Uiso   1.00
O89    O     0.36520   0.11126   0.00869   0.00000  Uiso   1.00
O90    O     0.42791   0.05919   0.01586   0.00000  Uiso   1.00
O91    O     0.41052   0.09504   0.08762   0.00000  Uiso   1.00
H92    H     0.38431   0.07073   0.08745   0.00000  Uiso   1.00
C93    C     0.83533   0.08694   0.16679   0.00000  Uiso   1.00
C94    C     0.83134   0.24640   0.16655   0.00000  Uiso   1.00
C95    C     0.73391   0.16674   0.15482   0.00000  Uiso   1.00
C96    C     0.93275   0.16659   0.17852   0.00000  Uiso   1.00
C97    C     0.67882   0.16201   0.14898   0.00000  Uiso   1.00
C98    C     0.98784   0.17132   0.18436   0.00000  Uiso   1.00
C99    C     0.81445   0.02006   0.12729   0.00000  Uiso   1.00
C100   C     0.85221   0.31327   0.20604   0.00000  Uiso   1.00
C101   C     0.80987   0.31062   0.12690   0.00000  Uiso   1.00
C102   C     0.85680   0.02271   0.20644   0.00000  Uiso   1.00
C103   C     0.82997   0.29054   0.16647   0.00000  Uiso   1.00
C104   C     0.83669   0.04279   0.16686   0.00000  Uiso   1.00
C105   C     0.86690   0.19385   0.03004   0.00000  Uiso   1.00
C106   C     0.79977   0.13949   0.30330   0.00000  Uiso   1.00
C107   C     0.86766   0.19431   0.31562   0.00000  Uiso   1.00
C108   C     0.79900   0.13902   0.01772   0.00000  Uiso   1.00
H109   H     0.79948   0.03535   0.09675   0.00000  Uiso   1.00
H110   H     0.86719   0.29798   0.23659   0.00000  Uiso   1.00
N111   N     0.83332   0.16666   0.28573   0.00000  Uiso   1.00
N112   N     0.83335   0.16668   0.04760   0.00000  Uiso   1.00
O113   O     0.83333   0.10558   0.20487   0.00000  Uiso   1.00
O114   O     0.83334   0.22775   0.12846   0.00000  Uiso   1.00
O115   O     0.83333   0.10559   0.12843   0.00000  Uiso   1.00
O116   O     0.83334   0.22774   0.20490   0.00000  Uiso   1.00
O117   O     0.75725   0.16666   0.19595   0.00000  Uiso   1.00
O118   O     0.90942   0.16667   0.13739   0.00000  Uiso   1.00
O119   O     0.75725   0.16667   0.11950   0.00000  Uiso   1.00
O120   O     0.90942   0.16666   0.21383   0.00000  Uiso   1.00
Zn121  Zn    0.83333   0.16666   0.21771   0.00000  Uiso   1.00
Zn122  Zn    0.83333   0.16667   0.11563   0.00000  Uiso   1.00
Cl123  Cl    0.98136   0.13749   0.09635   0.00000  Uiso   1.00
Cl124  Cl    0.68531   0.19584   0.23698   0.00000  Uiso   1.00
Cl125  Cl    0.77598   0.28440   0.07692   0.00000  Uiso   1.00
Cl126  Cl    0.89068   0.04893   0.25642   0.00000  Uiso   1.00
Cl127  Cl    0.90939   0.22855   0.06860   0.00000  Uiso   1.00
Cl128  Cl    0.75727   0.10479   0.26474   0.00000  Uiso   1.00
S129   S     0.91612   0.23229   0.29988   0.00000  Uiso   1.00
O130   O     0.90542   0.27414   0.31747   0.00000  Uiso   1.00
O131   O     0.96813   0.22207   0.32464   0.00000  Uiso   1.00
O132   O     0.92281   0.23829   0.24571   0.00000  Uiso   1.00
H133   H     0.94902   0.26260   0.24589   0.00000  Uiso   1.00
S134   S     0.75055   0.10104   0.03346   0.00000  Uiso   1.00
O135   O     0.69853   0.11126   0.00869   0.00000  Uiso   1.00
O136   O     0.76124   0.05919   0.01586   0.00000  Uiso   1.00
O137   O     0.74385   0.09504   0.08762   0.00000  Uiso   1.00
H138   H     0.71765   0.07073   0.08745   0.00000  Uiso   1.00
C139   C     0.16866   0.42027   0.16679   0.00000  Uiso   1.00
C140   C     0.16467   0.57973   0.16655   0.00000  Uiso   1.00
C141   C     0.06725   0.50008   0.15482   0.00000  Uiso   1.00
C142   C     0.26609   0.49992   0.17852   0.00000  Uiso   1.00
C143   C     0.01215   0.49535   0.14898   0.00000  Uiso   1.00
C144   C     0.32118   0.50465   0.18436   0.00000  Uiso   1.00
C145   C     0.14779   0.35339   0.12729   0.00000  Uiso   1.00
C146   C     0.18554   0.64661   0.20604   0.00000  Uiso   1.00
C147   C     0.14320   0.64396   0.12690   0.00000  Uiso   1.00
C148   C     0.19013   0.35604   0.20644   0.00000  Uiso   1.00
C149   C     0.16331   0.62388   0.16647   0.00000  Uiso   1.00
C150   C     0.17003   0.37612   0.16686   0.00000  Uiso   1.00
C151   C     0.20023   0.52718   0.03004   0.00000  Uiso   1.00
C152   C     0.13310   0.47282   0.30330   0.00000  Uiso   1.00
C153   C     0.20100   0.52765   0.31562   0.00000  Uiso   1.00
C154   C     0.13234   0.47236   0.01772   0.00000  Uiso   1.00
H155   H     0.13281   0.36869   0.09675   0.00000  Uiso   1.00
H156   H     0.20052   0.63131   0.23659   0.00000  Uiso   1.00
N157   N     0.16665   0.49999   0.28573   0.00000  Uiso   1.00
N158   N     0.16668   0.50001   0.04760   0.00000  Uiso   1.00
O159   O     0.16666   0.43892   0.20487   0.00000  Uiso   1.00
O160   O     0.16667   0.56108   0.12846   0.00000  Uiso   1.00
O161   O     0.16666   0.43893   0.12843   0.00000  Uiso   1.00
O162   O     0.16667   0.56107   0.20490   0.00000  Uiso   1.00
O163   O     0.09058   0.50000   0.19595   0.00000  Uiso   1.00
O164   O     0.24275   0.50000   0.13739   0.00000  Uiso   1.00
O165   O     0.09058   0.50000   0.11950   0.00000  Uiso   1.00
O166   O     0.24275   0.50000   0.21383   0.00000  Uiso   1.00
Zn167  Zn    0.16667   0.49999   0.21771   0.00000  Uiso   1.00
Zn168  Zn    0.16667   0.50001   0.11563   0.00000  Uiso   1.00
Cl169  Cl    0.31469   0.47082   0.09635   0.00000  Uiso   1.00
Cl170  Cl    0.01864   0.52918   0.23698   0.00000  Uiso   1.00
Cl171  Cl    0.10931   0.61774   0.07692   0.00000  Uiso   1.00
Cl172  Cl    0.22402   0.38226   0.25642   0.00000  Uiso   1.00
Cl173  Cl    0.24273   0.56188   0.06860   0.00000  Uiso   1.00
Cl174  Cl    0.09061   0.43812   0.26474   0.00000  Uiso   1.00
S175   S     0.24945   0.56563   0.29988   0.00000  Uiso   1.00
O176   O     0.23876   0.60748   0.31747   0.00000  Uiso   1.00
O177   O     0.30147   0.55541   0.32464   0.00000  Uiso   1.00
O178   O     0.25614   0.57163   0.24571   0.00000  Uiso   1.00
H179   H     0.28236   0.59593   0.24589   0.00000  Uiso   1.00
S180   S     0.08388   0.43438   0.03346   0.00000  Uiso   1.00
O181   O     0.03186   0.44460   0.00869   0.00000  Uiso   1.00
O182   O     0.09458   0.39253   0.01586   0.00000  Uiso   1.00
O183   O     0.07719   0.42837   0.08762   0.00000  Uiso   1.00
H184   H     0.05098   0.40407   0.08745   0.00000  Uiso   1.00
C185   C     0.50200   0.42027   0.16679   0.00000  Uiso   1.00
C186   C     0.49800   0.57973   0.16655   0.00000  Uiso   1.00
C187   C     0.40058   0.50008   0.15482   0.00000  Uiso   1.00
C188   C     0.59942   0.49992   0.17852   0.00000  Uiso   1.00
C189   C     0.34549   0.49535   0.14898   0.00000  Uiso   1.00
C190   C     0.65451   0.50465   0.18436   0.00000  Uiso   1.00
C191   C     0.48112   0.35339   0.12729   0.00000  Uiso   1.00
C192   C     0.51888   0.64661   0.20604   0.00000  Uiso   1.00
C193   C     0.47653   0.64396   0.12690   0.00000  Uiso   1.00
C194   C     0.52346   0.35604   0.20644   0.00000  Uiso   1.00
C195   C     0.49664   0.62388   0.16647   0.00000  Uiso   1.00
C196   C     0.50336   0.37612   0.16686   0.00000  Uiso   1.00
C197   C     0.53356   0.52718   0.03004   0.00000  Uiso   1.00
C198   C     0.46644   0.47282   0.30330   0.00000  Uiso   1.00
C199   C     0.53433   0.52765   0.31562   0.00000  Uiso   1.00
C200   C     0.46567   0.47236   0.01772   0.00000  Uiso   1.00
H201   H     0.46614   0.36869   0.09675   0.00000  Uiso   1.00
H202   H     0.53385   0.63131   0.23659   0.00000  Uiso   1.00
N203   N     0.49999   0.49999   0.28573   0.00000  Uiso   1.00
N204   N     0.50001   0.50001   0.04760   0.00000  Uiso   1.00
O205   O     0.50000   0.43892   0.20487   0.00000  Uiso   1.00
O206   O     0.50000   0.56108   0.12846   0.00000  Uiso   1.00
O207   O     0.50000   0.43893   0.12843   0.00000  Uiso   1.00
O208   O     0.50000   0.56107   0.20490   0.00000  Uiso   1.00
O209   O     0.42392   0.50000   0.19595   0.00000  Uiso   1.00
O210   O     0.57608   0.50000   0.13739   0.00000  Uiso   1.00
O211   O     0.42392   0.50000   0.11950   0.00000  Uiso   1.00
O212   O     0.57608   0.50000   0.21383   0.00000  Uiso   1.00
Zn213  Zn    0.50000   0.49999   0.21771   0.00000  Uiso   1.00
Zn214  Zn    0.50000   0.50001   0.11563   0.00000  Uiso   1.00
Cl215  Cl    0.64802   0.47082   0.09635   0.00000  Uiso   1.00
Cl216  Cl    0.35198   0.52918   0.23698   0.00000  Uiso   1.00
Cl217  Cl    0.44264   0.61774   0.07692   0.00000  Uiso   1.00
Cl218  Cl    0.55735   0.38226   0.25642   0.00000  Uiso   1.00
Cl219  Cl    0.57606   0.56188   0.06860   0.00000  Uiso   1.00
Cl220  Cl    0.42394   0.43812   0.26474   0.00000  Uiso   1.00
S221   S     0.58278   0.56563   0.29988   0.00000  Uiso   1.00
O222   O     0.57209   0.60748   0.31747   0.00000  Uiso   1.00
O223   O     0.63480   0.55541   0.32464   0.00000  Uiso   1.00
O224   O     0.58948   0.57163   0.24571   0.00000  Uiso   1.00
H225   H     0.61569   0.59593   0.24589   0.00000  Uiso   1.00
S226   S     0.41722   0.43438   0.03346   0.00000  Uiso   1.00
O227   O     0.36520   0.44460   0.00869   0.00000  Uiso   1.00
O228   O     0.42791   0.39253   0.01586   0.00000  Uiso   1.00
O229   O     0.41052   0.42837   0.08762   0.00000  Uiso   1.00
H230   H     0.38431   0.40407   0.08745   0.00000  Uiso   1.00
C231   C     0.83533   0.42027   0.16679   0.00000  Uiso   1.00
C232   C     0.83134   0.57973   0.16655   0.00000  Uiso   1.00
C233   C     0.73391   0.50008   0.15482   0.00000  Uiso   1.00
C234   C     0.93275   0.49992   0.17852   0.00000  Uiso   1.00
C235   C     0.67882   0.49535   0.14898   0.00000  Uiso   1.00
C236   C     0.98784   0.50465   0.18436   0.00000  Uiso   1.00
C237   C     0.81445   0.35339   0.12729   0.00000  Uiso   1.00
C238   C     0.85221   0.64661   0.20604   0.00000  Uiso   1.00
C239   C     0.80987   0.64396   0.12690   0.00000  Uiso   1.00
C240   C     0.85680   0.35604   0.20644   0.00000  Uiso   1.00
C241   C     0.82997   0.62388   0.16647   0.00000  Uiso   1.00
C242   C     0.83669   0.37612   0.16686   0.00000  Uiso   1.00
C243   C     0.86690   0.52718   0.03004   0.00000  Uiso   1.00
C244   C     0.79977   0.47282   0.30330   0.00000  Uiso   1.00
C245   C     0.86766   0.52765   0.31562   0.00000  Uiso   1.00
C246   C     0.79900   0.47236   0.01772   0.00000  Uiso   1.00
H247   H     0.79948   0.36869   0.09675   0.00000  Uiso   1.00
H248   H     0.86719   0.63131   0.23659   0.00000  Uiso   1.00
N249   N     0.83332   0.49999   0.28573   0.00000  Uiso   1.00
N250   N     0.83335   0.50001   0.04760   0.00000  Uiso   1.00
O251   O     0.83333   0.43892   0.20487   0.00000  Uiso   1.00
O252   O     0.83334   0.56108   0.12846   0.00000  Uiso   1.00
O253   O     0.83333   0.43893   0.12843   0.00000  Uiso   1.00
O254   O     0.83334   0.56107   0.20490   0.00000  Uiso   1.00
O255   O     0.75725   0.50000   0.19595   0.00000  Uiso   1.00
O256   O     0.90942   0.50000   0.13739   0.00000  Uiso   1.00
O257   O     0.75725   0.50000   0.11950   0.00000  Uiso   1.00
O258   O     0.90942   0.50000   0.21383   0.00000  Uiso   1.00
Zn259  Zn    0.83333   0.49999   0.21771   0.00000  Uiso   1.00
Zn260  Zn    0.83333   0.50001   0.11563   0.00000  Uiso   1.00
Cl261  Cl    0.98136   0.47082   0.09635   0.00000  Uiso   1.00
Cl262  Cl    0.68531   0.52918   0.23698   0.00000  Uiso   1.00
Cl263  Cl    0.77598   0.61774   0.07692   0.00000  Uiso   1.00
Cl264  Cl    0.89068   0.38226   0.25642   0.00000  Uiso   1.00
Cl265  Cl    0.90939   0.56188   0.06860   0.00000  Uiso   1.00
Cl266  Cl    0.75727   0.43812   0.26474   0.00000  Uiso   1.00
S267   S     0.91612   0.56563   0.29988   0.00000  Uiso   1.00
O268   O     0.90542   0.60748   0.31747   0.00000  Uiso   1.00
O269   O     0.96813   0.55541   0.32464   0.00000  Uiso   1.00
O270   O     0.92281   0.57163   0.24571   0.00000  Uiso   1.00
H271   H     0.94902   0.59593   0.24589   0.00000  Uiso   1.00
S272   S     0.75055   0.43438   0.03346   0.00000  Uiso   1.00
O273   O     0.69853   0.44460   0.00869   0.00000  Uiso   1.00
O274   O     0.76124   0.39253   0.01586   0.00000  Uiso   1.00
O275   O     0.74385   0.42837   0.08762   0.00000  Uiso   1.00
H276   H     0.71765   0.40407   0.08745   0.00000  Uiso   1.00
C277   C     0.16866   0.75360   0.16679   0.00000  Uiso   1.00
C278   C     0.16467   0.91306   0.16655   0.00000  Uiso   1.00
C279   C     0.06725   0.83341   0.15482   0.00000  Uiso   1.00
C280   C     0.26609   0.83326   0.17852   0.00000  Uiso   1.00
C281   C     0.01215   0.82868   0.14898   0.00000  Uiso   1.00
C282   C     0.32118   0.83799   0.18436   0.00000  Uiso   1.00
C283   C     0.14779   0.68673   0.12729   0.00000  Uiso   1.00
C284   C     0.18554   0.97994   0.20604   0.00000  Uiso   1.00
C285   C     0.14320   0.97729   0.12690   0.00000  Uiso   1.00
C286   C     0.19013   0.68938   0.20644   0.00000  Uiso   1.00
C287   C     0.16331   0.95721   0.16647   0.00000  Uiso   1.00
C288   C     0.17003   0.70946   0.16686   0.00000  Uiso   1.00
C289   C     0.20023   0.86051   0.03004   0.00000  Uiso   1.00
C290   C     0.13310   0.80615   0.30330   0.00000  Uiso   1.00
C291   C     0.20100   0.86098   0.31562   0.00000  Uiso   1.00
C292   C     0.13234   0.80569   0.01772   0.00000  Uiso   1.00
H293   H     0.13281   0.70202   0.09675   0.00000  Uiso   1.00
H294   H     0.20052   0.96465   0.23659   0.00000  Uiso   1.00
N295   N     0.16665   0.83332   0.28573   0.00000  Uiso   1.00
N296   N     0.16668   0.83334   0.04760   0.00000  Uiso   1.00
O297   O     0.16666   0.77225   0.20487   0.00000  Uiso   1.00
O298   O     0.16667   0.89442   0.12846   0.00000  Uiso   1.00
O299   O     0.16666   0.77226   0.12843   0.00000  Uiso   1.00
O300   O     0.16667   0.89441   0.20490   0.00000  Uiso   1.00
O301   O     0.09058   0.83333   0.19595   0.00000  Uiso   1.00
O302   O     0.24275   0.83334   0.13739   0.00000  Uiso   1.00
O303   O     0.09058   0.83334   0.11950   0.00000  Uiso   1.00
O304   O     0.24275   0.83333   0.21383   0.00000  Uiso   1.00
Zn305  Zn    0.16667   0.83333   0.21771   0.00000  Uiso   1.00
Zn306  Zn    0.16667   0.83334   0.11563   0.00000  Uiso   1.00
Cl307  Cl    0.31469   0.80416   0.09635   0.00000  Uiso   1.00
Cl308  Cl    0.01864   0.86251   0.23698   0.00000  Uiso   1.00
Cl309  Cl    0.10931   0.95107   0.07692   0.00000  Uiso   1.00
Cl310  Cl    0.22402   0.71560   0.25642   0.00000  Uiso   1.00
Cl311  Cl    0.24273   0.89521   0.06860   0.00000  Uiso   1.00
Cl312  Cl    0.09061   0.77146   0.26474   0.00000  Uiso   1.00
S313   S     0.24945   0.89896   0.29988   0.00000  Uiso   1.00
O314   O     0.23876   0.94081   0.31747   0.00000  Uiso   1.00
O315   O     0.30147   0.88874   0.32464   0.00000  Uiso   1.00
O316   O     0.25614   0.90496   0.24571   0.00000  Uiso   1.00
H317   H     0.28236   0.92926   0.24589   0.00000  Uiso   1.00
S318   S     0.08388   0.76771   0.03346   0.00000  Uiso   1.00
O319   O     0.03186   0.77793   0.00869   0.00000  Uiso   1.00
O320   O     0.09458   0.72586   0.01586   0.00000  Uiso   1.00
O321   O     0.07719   0.76171   0.08762   0.00000  Uiso   1.00
H322   H     0.05098   0.73740   0.08745   0.00000  Uiso   1.00
C323   C     0.50200   0.75360   0.16679   0.00000  Uiso   1.00
C324   C     0.49800   0.91306   0.16655   0.00000  Uiso   1.00
C325   C     0.40058   0.83341   0.15482   0.00000  Uiso   1.00
C326   C     0.59942   0.83326   0.17852   0.00000  Uiso   1.00
C327   C     0.34549   0.82868   0.14898   0.00000  Uiso   1.00
C328   C     0.65451   0.83799   0.18436   0.00000  Uiso   1.00
C329   C     0.48112   0.68673   0.12729   0.00000  Uiso   1.00
C330   C     0.51888   0.97994   0.20604   0.00000  Uiso   1.00
C331   C     0.47653   0.97729   0.12690   0.00000  Uiso   1.00
C332   C     0.52346   0.68938   0.20644   0.00000  Uiso   1.00
C333   C     0.49664   0.95721   0.16647   0.00000  Uiso   1.00
C334   C     0.50336   0.70946   0.16686   0.00000  Uiso   1.00
C335   C     0.53356   0.86051   0.03004   0.00000  Uiso   1.00
C336   C     0.46644   0.80615   0.30330   0.00000  Uiso   1.00
C337   C     0.53433   0.86098   0.31562   0.00000  Uiso   1.00
C338   C     0.46567   0.80569   0.01772   0.00000  Uiso   1.00
H339   H     0.46614   0.70202   0.09675   0.00000  Uiso   1.00
H340   H     0.53385   0.96465   0.23659   0.00000  Uiso   1.00
N341   N     0.49999   0.83332   0.28573   0.00000  Uiso   1.00
N342   N     0.50001   0.83334   0.04760   0.00000  Uiso   1.00
O343   O     0.50000   0.77225   0.20487   0.00000  Uiso   1.00
O344   O     0.50000   0.89442   0.12846   0.00000  Uiso   1.00
O345   O     0.50000   0.77226   0.12843   0.00000  Uiso   1.00
O346   O     0.50000   0.89441   0.20490   0.00000  Uiso   1.00
O347   O     0.42392   0.83333   0.19595   0.00000  Uiso   1.00
O348   O     0.57608   0.83334   0.13739   0.00000  Uiso   1.00
O349   O     0.42392   0.83334   0.11950   0.00000  Uiso   1.00
O350   O     0.57608   0.83333   0.21383   0.00000  Uiso   1.00
Zn351  Zn    0.50000   0.83333   0.21771   0.00000  Uiso   1.00
Zn352  Zn    0.50000   0.83334   0.11563   0.00000  Uiso   1.00
Cl353  Cl    0.64802   0.80416   0.09635   0.00000  Uiso   1.00
Cl354  Cl    0.35198   0.86251   0.23698   0.00000  Uiso   1.00
Cl355  Cl    0.44264   0.95107   0.07692   0.00000  Uiso   1.00
Cl356  Cl    0.55735   0.71560   0.25642   0.00000  Uiso   1.00
Cl357  Cl    0.57606   0.89521   0.06860   0.00000  Uiso   1.00
Cl358  Cl    0.42394   0.77146   0.26474   0.00000  Uiso   1.00
S359   S     0.58278   0.89896   0.29988   0.00000  Uiso   1.00
O360   O     0.57209   0.94081   0.31747   0.00000  Uiso   1.00
O361   O     0.63480   0.88874   0.32464   0.00000  Uiso   1.00
O362   O     0.58948   0.90496   0.24571   0.00000  Uiso   1.00
H363   H     0.61569   0.92926   0.24589   0.00000  Uiso   1.00
S364   S     0.41722   0.76771   0.03346   0.00000  Uiso   1.00
O365   O     0.36520   0.77793   0.00869   0.00000  Uiso   1.00
O366   O     0.42791   0.72586   0.01586   0.00000  Uiso   1.00
O367   O     0.41052   0.76171   0.08762   0.00000  Uiso   1.00
H368   H     0.38431   0.73740   0.08745   0.00000  Uiso   1.00
C369   C     0.83533   0.75360   0.16679   0.00000  Uiso   1.00
C370   C     0.83134   0.91306   0.16655   0.00000  Uiso   1.00
C371   C     0.73391   0.83341   0.15482   0.00000  Uiso   1.00
C372   C     0.93275   0.83326   0.17852   0.00000  Uiso   1.00
C373   C     0.67882   0.82868   0.14898   0.00000  Uiso   1.00
C374   C     0.98784   0.83799   0.18436   0.00000  Uiso   1.00
C375   C     0.81445   0.68673   0.12729   0.00000  Uiso   1.00
C376   C     0.85221   0.97994   0.20604   0.00000  Uiso   1.00
C377   C     0.80987   0.97729   0.12690   0.00000  Uiso   1.00
C378   C     0.85680   0.68938   0.20644   0.00000  Uiso   1.00
C379   C     0.82997   0.95721   0.16647   0.00000  Uiso   1.00
C380   C     0.83669   0.70946   0.16686   0.00000  Uiso   1.00
C381   C     0.86690   0.86051   0.03004   0.00000  Uiso   1.00
C382   C     0.79977   0.80615   0.30330   0.00000  Uiso   1.00
C383   C     0.86766   0.86098   0.31562   0.00000  Uiso   1.00
C384   C     0.79900   0.80569   0.01772   0.00000  Uiso   1.00
H385   H     0.79948   0.70202   0.09675   0.00000  Uiso   1.00
H386   H     0.86719   0.96465   0.23659   0.00000  Uiso   1.00
N387   N     0.83332   0.83332   0.28573   0.00000  Uiso   1.00
N388   N     0.83335   0.83334   0.04760   0.00000  Uiso   1.00
O389   O     0.83333   0.77225   0.20487   0.00000  Uiso   1.00
O390   O     0.83334   0.89442   0.12846   0.00000  Uiso   1.00
O391   O     0.83333   0.77226   0.12843   0.00000  Uiso   1.00
O392   O     0.83334   0.89441   0.20490   0.00000  Uiso   1.00
O393   O     0.75725   0.83333   0.19595   0.00000  Uiso   1.00
O394   O     0.90942   0.83334   0.13739   0.00000  Uiso   1.00
O395   O     0.75725   0.83334   0.11950   0.00000  Uiso   1.00
O396   O     0.90942   0.83333   0.21383   0.00000  Uiso   1.00
Zn397  Zn    0.83333   0.83333   0.21771   0.00000  Uiso   1.00
Zn398  Zn    0.83333   0.83334   0.11563   0.00000  Uiso   1.00
Cl399  Cl    0.98136   0.80416   0.09635   0.00000  Uiso   1.00
Cl400  Cl    0.68531   0.86251   0.23698   0.00000  Uiso   1.00
Cl401  Cl    0.77598   0.95107   0.07692   0.00000  Uiso   1.00
Cl402  Cl    0.89068   0.71560   0.25642   0.00000  Uiso   1.00
Cl403  Cl    0.90939   0.89521   0.06860   0.00000  Uiso   1.00
Cl404  Cl    0.75727   0.77146   0.26474   0.00000  Uiso   1.00
S405   S     0.91612   0.89896   0.29988   0.00000  Uiso   1.00
O406   O     0.90542   0.94081   0.31747   0.00000  Uiso   1.00
O407   O     0.96813   0.88874   0.32464   0.00000  Uiso   1.00
O408   O     0.92281   0.90496   0.24571   0.00000  Uiso   1.00
H409   H     0.94902   0.92926   0.24589   0.00000  Uiso   1.00
S410   S     0.75055   0.76771   0.03346   0.00000  Uiso   1.00
O411   O     0.69853   0.77793   0.00869   0.00000  Uiso   1.00
O412   O     0.76124   0.72586   0.01586   0.00000  Uiso   1.00
O413   O     0.74385   0.76171   0.08762   0.00000  Uiso   1.00
H414   H     0.71765   0.73740   0.08745   0.00000  Uiso   1.00
C415   C     0.16866   0.08694   0.50012   0.00000  Uiso   1.00
C416   C     0.16467   0.24640   0.49988   0.00000  Uiso   1.00
C417   C     0.06725   0.16674   0.48815   0.00000  Uiso   1.00
C418   C     0.26609   0.16659   0.51185   0.00000  Uiso   1.00
C419   C     0.01215   0.16201   0.48231   0.00000  Uiso   1.00
C420   C     0.32118   0.17132   0.51769   0.00000  Uiso   1.00
C421   C     0.14779   0.02006   0.46063   0.00000  Uiso   1.00
C422   C     0.18554   0.31327   0.53937   0.00000  Uiso   1.00
C423   C     0.14320   0.31062   0.46023   0.00000  Uiso   1.00
C424   C     0.19013   0.02271   0.53977   0.00000  Uiso   1.00
C425   C     0.16331   0.29054   0.49980   0.00000  Uiso   1.00
C426   C     0.17003   0.04279   0.50020   0.00000  Uiso   1.00
C427   C     0.20023   0.19385   0.36337   0.00000  Uiso   1.00
C428   C     0.13310   0.13949   0.63663   0.00000  Uiso   1.00
C429   C     0.20100   0.19431   0.64895   0.00000  Uiso   1.00
C430   C     0.13234   0.13902   0.35105   0.00000  Uiso   1.00
H431   H     0.13281   0.03535   0.43008   0.00000  Uiso   1.00
H432   H     0.20052   0.29798   0.56992   0.00000  Uiso   1.00
N433   N     0.16665   0.16666   0.61907   0.00000  Uiso   1.00
N434   N     0.16668   0.16668   0.38093   0.00000  Uiso   1.00
O435   O     0.16666   0.10558   0.53821   0.00000  Uiso   1.00
O436   O     0.16667   0.22775   0.46179   0.00000  Uiso   1.00
O437   O     0.16666   0.10559   0.46176   0.00000  Uiso   1.00
O438   O     0.16667   0.22774   0.53824   0.00000  Uiso   1.00
O439   O     0.09058   0.16666   0.52928   0.00000  Uiso   1.00
O440   O     0.24275   0.16667   0.47072   0.00000  Uiso   1.00
O441   O     0.09058   0.16667   0.45284   0.00000  Uiso   1.00
O442   O     0.24275   0.16666   0.54716   0.00000  Uiso   1.00
Zn443  Zn    0.16667   0.16666   0.55104   0.00000  Uiso   1.00
Zn444  Zn    0.16667   0.16667   0.44896   0.00000  Uiso   1.00
Cl445  Cl    0.31469   0.13749   0.42969   0.00000  Uiso   1.00
Cl446  Cl    0.01864   0.19584   0.57032   0.00000  Uiso   1.00
Cl447  Cl    0.10931   0.28440   0.41025   0.00000  Uiso   1.00
Cl448  Cl    0.22402   0.04893   0.58975   0.00000  Uiso   1.00
Cl449  Cl    0.24273   0.22855   0.40193   0.00000  Uiso   1.00
Cl450  Cl    0.09061   0.10479   0.59807   0.00000  Uiso   1.00
S451   S     0.24945   0.23229   0.63321   0.00000  Uiso   1.00
O452   O     0.23876   0.27414   0.65080   0.00000  Uiso   1.00
O453   O     0.30147   0.22207   0.65797   0.00000  Uiso   1.00
O454   O     0.25614   0.23829   0.57904   0.00000  Uiso   1.00
H455   H     0.28236   0.26260   0.57922   0.00000  Uiso   1.00
S456   S     0.08388   0.10104   0.36679   0.00000  Uiso   1.00
O457   O     0.03186   0.11126   0.34203   0.00000  Uiso   1.00
O458   O     0.09458   0.05919   0.34920   0.00000  Uiso   1.00
O459   O     0.07719   0.09504   0.42096   0.00000  Uiso   1.00
H460   H     0.05098   0.07073   0.42078   0.00000  Uiso   1.00
C461   C     0.50200   0.08694   0.50012   0.00000  Uiso   1.00
C462   C     0.49800   0.24640   0.49988   0.00000  Uiso   1.00
C463   C     0.40058   0.16674   0.48815   0.00000  Uiso   1.00
C464   C     0.59942   0.16659   0.51185   0.00000  Uiso   1.00
C465   C     0.34549   0.16201   0.48231   0.00000  Uiso   1.00
C466   C     0.65451   0.17132   0.51769   0.00000  Uiso   1.00
C467   C     0.48112   0.02006   0.46063   0.00000  Uiso   1.00
C468   C     0.51888   0.31327   0.53937   0.00000  Uiso   1.00
C469   C     0.47653   0.31062   0.46023   0.00000  Uiso   1.00
C470   C     0.52346   0.02271   0.53977   0.00000  Uiso   1.00
C471   C     0.49664   0.29054   0.49980   0.00000  Uiso   1.00
C472   C     0.50336   0.04279   0.50020   0.00000  Uiso   1.00
C473   C     0.53356   0.19385   0.36337   0.00000  Uiso   1.00
C474   C     0.46644   0.13949   0.63663   0.00000  Uiso   1.00
C475   C     0.53433   0.19431   0.64895   0.00000  Uiso   1.00
C476   C     0.46567   0.13902   0.35105   0.00000  Uiso   1.00
H477   H     0.46614   0.03535   0.43008   0.00000  Uiso   1.00
H478   H     0.53385   0.29798   0.56992   0.00000  Uiso   1.00
N479   N     0.49999   0.16666   0.61907   0.00000  Uiso   1.00
N480   N     0.50001   0.16668   0.38093   0.00000  Uiso   1.00
O481   O     0.50000   0.10558   0.53821   0.00000  Uiso   1.00
O482   O     0.50000   0.22775   0.46179   0.00000  Uiso   1.00
O483   O     0.50000   0.10559   0.46176   0.00000  Uiso   1.00
O484   O     0.50000   0.22774   0.53824   0.00000  Uiso   1.00
O485   O     0.42392   0.16666   0.52928   0.00000  Uiso   1.00
O486   O     0.57608   0.16667   0.47072   0.00000  Uiso   1.00
O487   O     0.42392   0.16667   0.45284   0.00000  Uiso   1.00
O488   O     0.57608   0.16666   0.54716   0.00000  Uiso   1.00
Zn489  Zn    0.50000   0.16666   0.55104   0.00000  Uiso   1.00
Zn490  Zn    0.50000   0.16667   0.44896   0.00000  Uiso   1.00
Cl491  Cl    0.64802   0.13749   0.42969   0.00000  Uiso   1.00
Cl492  Cl    0.35198   0.19584   0.57032   0.00000  Uiso   1.00
Cl493  Cl    0.44264   0.28440   0.41025   0.00000  Uiso   1.00
Cl494  Cl    0.55735   0.04893   0.58975   0.00000  Uiso   1.00
Cl495  Cl    0.57606   0.22855   0.40193   0.00000  Uiso   1.00
Cl496  Cl    0.42394   0.10479   0.59807   0.00000  Uiso   1.00
S497   S     0.58278   0.23229   0.63321   0.00000  Uiso   1.00
O498   O     0.57209   0.27414   0.65080   0.00000  Uiso   1.00
O499   O     0.63480   0.22207   0.65797   0.00000  Uiso   1.00
O500   O     0.58948   0.23829   0.57904   0.00000  Uiso   1.00
H501   H     0.61569   0.26260   0.57922   0.00000  Uiso   1.00
S502   S     0.41722   0.10104   0.36679   0.00000  Uiso   1.00
O503   O     0.36520   0.11126   0.34203   0.00000  Uiso   1.00
O504   O     0.42791   0.05919   0.34920   0.00000  Uiso   1.00
O505   O     0.41052   0.09504   0.42096   0.00000  Uiso   1.00
H506   H     0.38431   0.07073   0.42078   0.00000  Uiso   1.00
C507   C     0.83533   0.08694   0.50012   0.00000  Uiso   1.00
C508   C     0.83134   0.24640   0.49988   0.00000  Uiso   1.00
C509   C     0.73391   0.16674   0.48815   0.00000  Uiso   1.00
C510   C     0.93275   0.16659   0.51185   0.00000  Uiso   1.00
C511   C     0.67882   0.16201   0.48231   0.00000  Uiso   1.00
C512   C     0.98784   0.17132   0.51769   0.00000  Uiso   1.00
C513   C     0.81445   0.02006   0.46063   0.00000  Uiso   1.00
C514   C     0.85221   0.31327   0.53937   0.00000  Uiso   1.00
C515   C     0.80987   0.31062   0.46023   0.00000  Uiso   1.00
C516   C     0.85680   0.02271   0.53977   0.00000  Uiso   1.00
C517   C     0.82997   0.29054   0.49980   0.00000  Uiso   1.00
C518   C     0.83669   0.04279   0.50020   0.00000  Uiso   1.00
C519   C     0.86690   0.19385   0.36337   0.00000  Uiso   1.00
C520   C     0.79977   0.13949   0.63663   0.00000  Uiso   1.00
C521   C     0.86766   0.19431   0.64895   0.00000  Uiso   1.00
C522   C     0.79900   0.13902   0.35105   0.00000  Uiso   1.00
H523   H     0.79948   0.03535   0.43008   0.00000  Uiso   1.00
H524   H     0.86719   0.29798   0.56992   0.00000  Uiso   1.00
N525   N     0.83332   0.16666   0.61907   0.00000  Uiso   1.00
N526   N     0.83335   0.16668   0.38093   0.00000  Uiso   1.00
O527   O     0.83333   0.10558   0.53821   0.00000  Uiso   1.00
O528   O     0.83334   0.22775   0.46179   0.00000  Uiso   1.00
O529   O     0.83333   0.10559   0.46176   0.00000  Uiso   1.00
O530   O     0.83334   0.22774   0.53824   0.00000  Uiso   1.00
O531   O     0.75725   0.16666   0.52928   0.00000  Uiso   1.00
O532   O     0.90942   0.16667   0.47072   0.00000  Uiso   1.00
O533   O     0.75725   0.16667   0.45284   0.00000  Uiso   1.00
O534   O     0.90942   0.16666   0.54716   0.00000  Uiso   1.00
Zn535  Zn    0.83333   0.16666   0.55104   0.00000  Uiso   1.00
Zn536  Zn    0.83333   0.16667   0.44896   0.00000  Uiso   1.00
Cl537  Cl    0.98136   0.13749   0.42969   0.00000  Uiso   1.00
Cl538  Cl    0.68531   0.19584   0.57032   0.00000  Uiso   1.00
Cl539  Cl    0.77598   0.28440   0.41025   0.00000  Uiso   1.00
Cl540  Cl    0.89068   0.04893   0.58975   0.00000  Uiso   1.00
Cl541  Cl    0.90939   0.22855   0.40193   0.00000  Uiso   1.00
Cl542  Cl    0.75727   0.10479   0.59807   0.00000  Uiso   1.00
S543   S     0.91612   0.23229   0.63321   0.00000  Uiso   1.00
O544   O     0.90542   0.27414   0.65080   0.00000  Uiso   1.00
O545   O     0.96813   0.22207   0.65797   0.00000  Uiso   1.00
O546   O     0.92281   0.23829   0.57904   0.00000  Uiso   1.00
H547   H     0.94902   0.26260   0.57922   0.00000  Uiso   1.00
S548   S     0.75055   0.10104   0.36679   0.00000  Uiso   1.00
O549   O     0.69853   0.11126   0.34203   0.00000  Uiso   1.00
O550   O     0.76124   0.05919   0.34920   0.00000  Uiso   1.00
O551   O     0.74385   0.09504   0.42096   0.00000  Uiso   1.00
H552   H     0.71765   0.07073   0.42078   0.00000  Uiso   1.00
C553   C     0.16866   0.42027   0.50012   0.00000  Uiso   1.00
C554   C     0.16467   0.57973   0.49988   0.00000  Uiso   1.00
C555   C     0.06725   0.50008   0.48815   0.00000  Uiso   1.00
C556   C     0.26609   0.49992   0.51185   0.00000  Uiso   1.00
C557   C     0.01215   0.49535   0.48231   0.00000  Uiso   1.00
C558   C     0.32118   0.50465   0.51769   0.00000  Uiso   1.00
C559   C     0.14779   0.35339   0.46063   0.00000  Uiso   1.00
C560   C     0.18554   0.64661   0.53937   0.00000  Uiso   1.00
C561   C     0.14320   0.64396   0.46023   0.00000  Uiso   1.00
C562   C     0.19013   0.35604   0.53977   0.00000  Uiso   1.00
C563   C     0.16331   0.62388   0.49980   0.00000  Uiso   1.00
C564   C     0.17003   0.37612   0.50020   0.00000  Uiso   1.00
C565   C     0.20023   0.52718   0.36337   0.00000  Uiso   1.00
C566   C     0.13310   0.47282   0.63663   0.00000  Uiso   1.00
C567   C     0.20100   0.52765   0.64895   0.00000  Uiso   1.00
C568   C     0.13234   0.47236   0.35105   0.00000  Uiso   1.00
H569   H     0.13281   0.36869   0.43008   0.00000  Uiso   1.00
H570   H     0.20052   0.63131   0.56992   0.00000  Uiso   1.00
N571   N     0.16665   0.49999   0.61907   0.00000  Uiso   1.00
N572   N     0.16668   0.50001   0.38093   0.00000  Uiso   1.00
O573   O     0.16666   0.43892   0.53821   0.00000  Uiso   1.00
O574   O     0.16667   0.56108   0.46179   0.00000  Uiso   1.00
O575   O     0.16666   0.43893   0.46176   0.00000  Uiso   1.00
O576   O     0.16667   0.56107   0.53824   0.00000  Uiso   1.00
O577   O     0.09058   0.50000   0.52928   0.00000  Uiso   1.00
O578   O     0.24275   0.50000   0.47072   0.00000  Uiso   1.00
O579   O     0.09058   0.50000   0.45284   0.00000  Uiso   1.00
O580   O     0.24275   0.50000   0.54716   0.00000  Uiso   1.00
Zn581  Zn    0.16667   0.49999   0.55104   0.00000  Uiso   1.00
Zn582  Zn    0.16667   0.50001   0.44896   0.00000  Uiso   1.00
Cl583  Cl    0.31469   0.47082   0.42969   0.00000  Uiso   1.00
Cl584  Cl    0.01864   0.52918   0.57032   0.00000  Uiso   1.00
Cl585  Cl    0.10931   0.61774   0.41025   0.00000  Uiso   1.00
Cl586  Cl    0.22402   0.38226   0.58975   0.00000  Uiso   1.00
Cl587  Cl    0.24273   0.56188   0.40193   0.00000  Uiso   1.00
Cl588  Cl    0.09061   0.43812   0.59807   0.00000  Uiso   1.00
S589   S     0.24945   0.56563   0.63321   0.00000  Uiso   1.00
O590   O     0.23876   0.60748   0.65080   0.00000  Uiso   1.00
O591   O     0.30147   0.55541   0.65797   0.00000  Uiso   1.00
O592   O     0.25614   0.57163   0.57904   0.00000  Uiso   1.00
H593   H     0.28236   0.59593   0.57922   0.00000  Uiso   1.00
S594   S     0.08388   0.43438   0.36679   0.00000  Uiso   1.00
O595   O     0.03186   0.44460   0.34203   0.00000  Uiso   1.00
O596   O     0.09458   0.39253   0.34920   0.00000  Uiso   1.00
O597   O     0.07719   0.42837   0.42096   0.00000  Uiso   1.00
H598   H     0.05098   0.40407   0.42078   0.00000  Uiso   1.00
C599   C     0.50200   0.42027   0.50012   0.00000  Uiso   1.00
C600   C     0.49800   0.57973   0.49988   0.00000  Uiso   1.00
C601   C     0.40058   0.50008   0.48815   0.00000  Uiso   1.00
C602   C     0.59942   0.49992   0.51185   0.00000  Uiso   1.00
C603   C     0.34549   0.49535   0.48231   0.00000  Uiso   1.00
C604   C     0.65451   0.50465   0.51769   0.00000  Uiso   1.00
C605   C     0.48112   0.35339   0.46063   0.00000  Uiso   1.00
C606   C     0.51888   0.64661   0.53937   0.00000  Uiso   1.00
C607   C     0.47653   0.64396   0.46023   0.00000  Uiso   1.00
C608   C     0.52346   0.35604   0.53977   0.00000  Uiso   1.00
C609   C     0.49664   0.62388   0.49980   0.00000  Uiso   1.00
C610   C     0.50336   0.37612   0.50020   0.00000  Uiso   1.00
C611   C     0.53356   0.52718   0.36337   0.00000  Uiso   1.00
C612   C     0.46644   0.47282   0.63663   0.00000  Uiso   1.00
C613   C     0.53433   0.52765   0.64895   0.00000  Uiso   1.00
C614   C     0.46567   0.47236   0.35105   0.00000  Uiso   1.00
H615   H     0.46614   0.36869   0.43008   0.00000  Uiso   1.00
H616   H     0.53385   0.63131   0.56992   0.00000  Uiso   1.00
N617   N     0.49999   0.49999   0.61907   0.00000  Uiso   1.00
N618   N     0.50001   0.50001   0.38093   0.00000  Uiso   1.00
O619   O     0.50000   0.43892   0.53821   0.00000  Uiso   1.00
O620   O     0.50000   0.56108   0.46179   0.00000  Uiso   1.00
O621   O     0.50000   0.43893   0.46176   0.00000  Uiso   1.00
O622   O     0.50000   0.56107   0.53824   0.00000  Uiso   1.00
O623   O     0.42392   0.50000   0.52928   0.00000  Uiso   1.00
O624   O     0.57608   0.50000   0.47072   0.00000  Uiso   1.00
O625   O     0.42392   0.50000   0.45284   0.00000  Uiso   1.00
O626   O     0.57608   0.50000   0.54716   0.00000  Uiso   1.00
Zn627  Zn    0.50000   0.49999   0.55104   0.00000  Uiso   1.00
Zn628  Zn    0.50000   0.50001   0.44896   0.00000  Uiso   1.00
Cl629  Cl    0.64802   0.47082   0.42969   0.00000  Uiso   1.00
Cl630  Cl    0.35198   0.52918   0.57032   0.00000  Uiso   1.00
Cl631  Cl    0.44264   0.61774   0.41025   0.00000  Uiso   1.00
Cl632  Cl    0.55735   0.38226   0.58975   0.00000  Uiso   1.00
Cl633  Cl    0.57606   0.56188   0.40193   0.00000  Uiso   1.00
Cl634  Cl    0.42394   0.43812   0.59807   0.00000  Uiso   1.00
S635   S     0.58278   0.56563   0.63321   0.00000  Uiso   1.00
O636   O     0.57209   0.60748   0.65080   0.00000  Uiso   1.00
O637   O     0.63480   0.55541   0.65797   0.00000  Uiso   1.00
O638   O     0.58948   0.57163   0.57904   0.00000  Uiso   1.00
H639   H     0.61569   0.59593   0.57922   0.00000  Uiso   1.00
S640   S     0.41722   0.43438   0.36679   0.00000  Uiso   1.00
O641   O     0.36520   0.44460   0.34203   0.00000  Uiso   1.00
O642   O     0.42791   0.39253   0.34920   0.00000  Uiso   1.00
O643   O     0.41052   0.42837   0.42096   0.00000  Uiso   1.00
H644   H     0.38431   0.40407   0.42078   0.00000  Uiso   1.00
C645   C     0.83533   0.42027   0.50012   0.00000  Uiso   1.00
C646   C     0.83134   0.57973   0.49988   0.00000  Uiso   1.00
C647   C     0.73391   0.50008   0.48815   0.00000  Uiso   1.00
C648   C     0.93275   0.49992   0.51185   0.00000  Uiso   1.00
C649   C     0.67882   0.49535   0.48231   0.00000  Uiso   1.00
C650   C     0.98784   0.50465   0.51769   0.00000  Uiso   1.00
C651   C     0.81445   0.35339   0.46063   0.00000  Uiso   1.00
C652   C     0.85221   0.64661   0.53937   0.00000  Uiso   1.00
C653   C     0.80987   0.64396   0.46023   0.00000  Uiso   1.00
C654   C     0.85680   0.35604   0.53977   0.00000  Uiso   1.00
C655   C     0.82997   0.62388   0.49980   0.00000  Uiso   1.00
C656   C     0.83669   0.37612   0.50020   0.00000  Uiso   1.00
C657   C     0.86690   0.52718   0.36337   0.00000  Uiso   1.00
C658   C     0.79977   0.47282   0.63663   0.00000  Uiso   1.00
C659   C     0.86766   0.52765   0.64895   0.00000  Uiso   1.00
C660   C     0.79900   0.47236   0.35105   0.00000  Uiso   1.00
H661   H     0.79948   0.36869   0.43008   0.00000  Uiso   1.00
H662   H     0.86719   0.63131   0.56992   0.00000  Uiso   1.00
N663   N     0.83332   0.49999   0.61907   0.00000  Uiso   1.00
N664   N     0.83335   0.50001   0.38093   0.00000  Uiso   1.00
O665   O     0.83333   0.43892   0.53821   0.00000  Uiso   1.00
O666   O     0.83334   0.56108   0.46179   0.00000  Uiso   1.00
O667   O     0.83333   0.43893   0.46176   0.00000  Uiso   1.00
O668   O     0.83334   0.56107   0.53824   0.00000  Uiso   1.00
O669   O     0.75725   0.50000   0.52928   0.00000  Uiso   1.00
O670   O     0.90942   0.50000   0.47072   0.00000  Uiso   1.00
O671   O     0.75725   0.50000   0.45284   0.00000  Uiso   1.00
O672   O     0.90942   0.50000   0.54716   0.00000  Uiso   1.00
Zn673  Zn    0.83333   0.49999   0.55104   0.00000  Uiso   1.00
Zn674  Zn    0.83333   0.50001   0.44896   0.00000  Uiso   1.00
Cl675  Cl    0.98136   0.47082   0.42969   0.00000  Uiso   1.00
Cl676  Cl    0.68531   0.52918   0.57032   0.00000  Uiso   1.00
Cl677  Cl    0.77598   0.61774   0.41025   0.00000  Uiso   1.00
Cl678  Cl    0.89068   0.38226   0.58975   0.00000  Uiso   1.00
Cl679  Cl    0.90939   0.56188   0.40193   0.00000  Uiso   1.00
Cl680  Cl    0.75727   0.43812   0.59807   0.00000  Uiso   1.00
S681   S     0.91612   0.56563   0.63321   0.00000  Uiso   1.00
O682   O     0.90542   0.60748   0.65080   0.00000  Uiso   1.00
O683   O     0.96813   0.55541   0.65797   0.00000  Uiso   1.00
O684   O     0.92281   0.57163   0.57904   0.00000  Uiso   1.00
H685   H     0.94902   0.59593   0.57922   0.00000  Uiso   1.00
S686   S     0.75055   0.43438   0.36679   0.00000  Uiso   1.00
O687   O     0.69853   0.44460   0.34203   0.00000  Uiso   1.00
O688   O     0.76124   0.39253   0.34920   0.00000  Uiso   1.00
O689   O     0.74385   0.42837   0.42096   0.00000  Uiso   1.00
H690   H     0.71765   0.40407   0.42078   0.00000  Uiso   1.00
C691   C     0.16866   0.75360   0.50012   0.00000  Uiso   1.00
C692   C     0.16467   0.91306   0.49988   0.00000  Uiso   1.00
C693   C     0.06725   0.83341   0.48815   0.00000  Uiso   1.00
C694   C     0.26609   0.83326   0.51185   0.00000  Uiso   1.00
C695   C     0.01215   0.82868   0.48231   0.00000  Uiso   1.00
C696   C     0.32118   0.83799   0.51769   0.00000  Uiso   1.00
C697   C     0.14779   0.68673   0.46063   0.00000  Uiso   1.00
C698   C     0.18554   0.97994   0.53937   0.00000  Uiso   1.00
C699   C     0.14320   0.97729   0.46023   0.00000  Uiso   1.00
C700   C     0.19013   0.68938   0.53977   0.00000  Uiso   1.00
C701   C     0.16331   0.95721   0.49980   0.00000  Uiso   1.00
C702   C     0.17003   0.70946   0.50020   0.00000  Uiso   1.00
C703   C     0.20023   0.86051   0.36337   0.00000  Uiso   1.00
C704   C     0.13310   0.80615   0.63663   0.00000  Uiso   1.00
C705   C     0.20100   0.86098   0.64895   0.00000  Uiso   1.00
C706   C     0.13234   0.80569   0.35105   0.00000  Uiso   1.00
H707   H     0.13281   0.70202   0.43008   0.00000  Uiso   1.00
H708   H     0.20052   0.96465   0.56992   0.00000  Uiso   1.00
N709   N     0.16665   0.83332   0.61907   0.00000  Uiso   1.00
N710   N     0.16668   0.83334   0.38093   0.00000  Uiso   1.00
O711   O     0.16666   0.77225   0.53821   0.00000  Uiso   1.00
O712   O     0.16667   0.89442   0.46179   0.00000  Uiso   1.00
O713   O     0.16666   0.77226   0.46176   0.00000  Uiso   1.00
O714   O     0.16667   0.89441   0.53824   0.00000  Uiso   1.00
O715   O     0.09058   0.83333   0.52928   0.00000  Uiso   1.00
O716   O     0.24275   0.83334   0.47072   0.00000  Uiso   1.00
O717   O     0.09058   0.83334   0.45284   0.00000  Uiso   1.00
O718   O     0.24275   0.83333   0.54716   0.00000  Uiso   1.00
Zn719  Zn    0.16667   0.83333   0.55104   0.00000  Uiso   1.00
Zn720  Zn    0.16667   0.83334   0.44896   0.00000  Uiso   1.00
Cl721  Cl    0.31469   0.80416   0.42969   0.00000  Uiso   1.00
Cl722  Cl    0.01864   0.86251   0.57032   0.00000  Uiso   1.00
Cl723  Cl    0.10931   0.95107   0.41025   0.00000  Uiso   1.00
Cl724  Cl    0.22402   0.71560   0.58975   0.00000  Uiso   1.00
Cl725  Cl    0.24273   0.89521   0.40193   0.00000  Uiso   1.00
Cl726  Cl    0.09061   0.77146   0.59807   0.00000  Uiso   1.00
S727   S     0.24945   0.89896   0.63321   0.00000  Uiso   1.00
O728   O     0.23876   0.94081   0.65080   0.00000  Uiso   1.00
O729   O     0.30147   0.88874   0.65797   0.00000  Uiso   1.00
O730   O     0.25614   0.90496   0.57904   0.00000  Uiso   1.00
H731   H     0.28236   0.92926   0.57922   0.00000  Uiso   1.00
S732   S     0.08388   0.76771   0.36679   0.00000  Uiso   1.00
O733   O     0.03186   0.77793   0.34203   0.00000  Uiso   1.00
O734   O     0.09458   0.72586   0.34920   0.00000  Uiso   1.00
O735   O     0.07719   0.76171   0.42096   0.00000  Uiso   1.00
H736   H     0.05098   0.73740   0.42078   0.00000  Uiso   1.00
C737   C     0.50200   0.75360   0.50012   0.00000  Uiso   1.00
C738   C     0.49800   0.91306   0.49988   0.00000  Uiso   1.00
C739   C     0.40058   0.83341   0.48815   0.00000  Uiso   1.00
C740   C     0.59942   0.83326   0.51185   0.00000  Uiso   1.00
C741   C     0.34549   0.82868   0.48231   0.00000  Uiso   1.00
C742   C     0.65451   0.83799   0.51769   0.00000  Uiso   1.00
C743   C     0.48112   0.68673   0.46063   0.00000  Uiso   1.00
C744   C     0.51888   0.97994   0.53937   0.00000  Uiso   1.00
C745   C     0.47653   0.97729   0.46023   0.00000  Uiso   1.00
C746   C     0.52346   0.68938   0.53977   0.00000  Uiso   1.00
C747   C     0.49664   0.95721   0.49980   0.00000  Uiso   1.00
C748   C     0.50336   0.70946   0.50020   0.00000  Uiso   1.00
C749   C     0.53356   0.86051   0.36337   0.00000  Uiso   1.00
C750   C     0.46644   0.80615   0.63663   0.00000  Uiso   1.00
C751   C     0.53433   0.86098   0.64895   0.00000  Uiso   1.00
C752   C     0.46567   0.80569   0.35105   0.00000  Uiso   1.00
H753   H     0.46614   0.70202   0.43008   0.00000  Uiso   1.00
H754   H     0.53385   0.96465   0.56992   0.00000  Uiso   1.00
N755   N     0.49999   0.83332   0.61907   0.00000  Uiso   1.00
N756   N     0.50001   0.83334   0.38093   0.00000  Uiso   1.00
O757   O     0.50000   0.77225   0.53821   0.00000  Uiso   1.00
O758   O     0.50000   0.89442   0.46179   0.00000  Uiso   1.00
O759   O     0.50000   0.77226   0.46176   0.00000  Uiso   1.00
O760   O     0.50000   0.89441   0.53824   0.00000  Uiso   1.00
O761   O     0.42392   0.83333   0.52928   0.00000  Uiso   1.00
O762   O     0.57608   0.83334   0.47072   0.00000  Uiso   1.00
O763   O     0.42392   0.83334   0.45284   0.00000  Uiso   1.00
O764   O     0.57608   0.83333   0.54716   0.00000  Uiso   1.00
Zn765  Zn    0.50000   0.83333   0.55104   0.00000  Uiso   1.00
Zn766  Zn    0.50000   0.83334   0.44896   0.00000  Uiso   1.00
Cl767  Cl    0.64802   0.80416   0.42969   0.00000  Uiso   1.00
Cl768  Cl    0.35198   0.86251   0.57032   0.00000  Uiso   1.00
Cl769  Cl    0.44264   0.95107   0.41025   0.00000  Uiso   1.00
Cl770  Cl    0.55735   0.71560   0.58975   0.00000  Uiso   1.00
Cl771  Cl    0.57606   0.89521   0.40193   0.00000  Uiso   1.00
Cl772  Cl    0.42394   0.77146   0.59807   0.00000  Uiso   1.00
S773   S     0.58278   0.89896   0.63321   0.00000  Uiso   1.00
O774   O     0.57209   0.94081   0.65080   0.00000  Uiso   1.00
O775   O     0.63480   0.88874   0.65797   0.00000  Uiso   1.00
O776   O     0.58948   0.90496   0.57904   0.00000  Uiso   1.00
H777   H     0.61569   0.92926   0.57922   0.00000  Uiso   1.00
S778   S     0.41722   0.76771   0.36679   0.00000  Uiso   1.00
O779   O     0.36520   0.77793   0.34203   0.00000  Uiso   1.00
O780   O     0.42791   0.72586   0.34920   0.00000  Uiso   1.00
O781   O     0.41052   0.76171   0.42096   0.00000  Uiso   1.00
H782   H     0.38431   0.73740   0.42078   0.00000  Uiso   1.00
C783   C     0.83533   0.75360   0.50012   0.00000  Uiso   1.00
C784   C     0.83134   0.91306   0.49988   0.00000  Uiso   1.00
C785   C     0.73391   0.83341   0.48815   0.00000  Uiso   1.00
C786   C     0.93275   0.83326   0.51185   0.00000  Uiso   1.00
C787   C     0.67882   0.82868   0.48231   0.00000  Uiso   1.00
C788   C     0.98784   0.83799   0.51769   0.00000  Uiso   1.00
C789   C     0.81445   0.68673   0.46063   0.00000  Uiso   1.00
C790   C     0.85221   0.97994   0.53937   0.00000  Uiso   1.00
C791   C     0.80987   0.97729   0.46023   0.00000  Uiso   1.00
C792   C     0.85680   0.68938   0.53977   0.00000  Uiso   1.00
C793   C     0.82997   0.95721   0.49980   0.00000  Uiso   1.00
C794   C     0.83669   0.70946   0.50020   0.00000  Uiso   1.00
C795   C     0.86690   0.86051   0.36337   0.00000  Uiso   1.00
C796   C     0.79977   0.80615   0.63663   0.00000  Uiso   1.00
C797   C     0.86766   0.86098   0.64895   0.00000  Uiso   1.00
C798   C     0.79900   0.80569   0.35105   0.00000  Uiso   1.00
H799   H     0.79948   0.70202   0.43008   0.00000  Uiso   1.00
H800   H     0.86719   0.96465   0.56992   0.00000  Uiso   1.00
N801   N     0.83332   0.83332   0.61907   0.00000  Uiso   1.00
N802   N     0.83335   0.83334   0.38093   0.00000  Uiso   1.00
O803   O     0.83333   0.77225   0.53821   0.00000  Uiso   1.00
O804   O     0.83334   0.89442   0.46179   0.00000  Uiso   1.00
O805   O     0.83333   0.77226   0.46176   0.00000  Uiso   1.00
O806   O     0.83334   0.89441   0.53824   0.00000  Uiso   1.00
O807   O     0.75725   0.83333   0.52928   0.00000  Uiso   1.00
O808   O     0.90942   0.83334   0.47072   0.00000  Uiso   1.00
O809   O     0.75725   0.83334   0.45284   0.00000  Uiso   1.00
O810   O     0.90942   0.83333   0.54716   0.00000  Uiso   1.00
Zn811  Zn    0.83333   0.83333   0.55104   0.00000  Uiso   1.00
Zn812  Zn    0.83333   0.83334   0.44896   0.00000  Uiso   1.00
Cl813  Cl    0.98136   0.80416   0.42969   0.00000  Uiso   1.00
Cl814  Cl    0.68531   0.86251   0.57032   0.00000  Uiso   1.00
Cl815  Cl    0.77598   0.95107   0.41025   0.00000  Uiso   1.00
Cl816  Cl    0.89068   0.71560   0.58975   0.00000  Uiso   1.00
Cl817  Cl    0.90939   0.89521   0.40193   0.00000  Uiso   1.00
Cl818  Cl    0.75727   0.77146   0.59807   0.00000  Uiso   1.00
S819   S     0.91612   0.89896   0.63321   0.00000  Uiso   1.00
O820   O     0.90542   0.94081   0.65080   0.00000  Uiso   1.00
O821   O     0.96813   0.88874   0.65797   0.00000  Uiso   1.00
O822   O     0.92281   0.90496   0.57904   0.00000  Uiso   1.00
H823   H     0.94902   0.92926   0.57922   0.00000  Uiso   1.00
S824   S     0.75055   0.76771   0.36679   0.00000  Uiso   1.00
O825   O     0.69853   0.77793   0.34203   0.00000  Uiso   1.00
O826   O     0.76124   0.72586   0.34920   0.00000  Uiso   1.00
O827   O     0.74385   0.76171   0.42096   0.00000  Uiso   1.00
H828   H     0.71765   0.73740   0.42078   0.00000  Uiso   1.00
C829   C     0.16866   0.08694   0.83345   0.00000  Uiso   1.00
C830   C     0.16467   0.24640   0.83321   0.00000  Uiso   1.00
C831   C     0.06725   0.16674   0.82148   0.00000  Uiso   1.00
C832   C     0.26609   0.16659   0.84518   0.00000  Uiso   1.00
C833   C     0.01215   0.16201   0.81564   0.00000  Uiso   1.00
C834   C     0.32118   0.17132   0.85102   0.00000  Uiso   1.00
C835   C     0.14779   0.02006   0.79396   0.00000  Uiso   1.00
C836   C     0.18554   0.31327   0.87271   0.00000  Uiso   1.00
C837   C     0.14320   0.31062   0.79356   0.00000  Uiso   1.00
C838   C     0.19013   0.02271   0.87310   0.00000  Uiso   1.00
C839   C     0.16331   0.29054   0.83314   0.00000  Uiso   1.00
C840   C     0.17003   0.04279   0.83353   0.00000  Uiso   1.00
C841   C     0.20023   0.19385   0.69670   0.00000  Uiso   1.00
C842   C     0.13310   0.13949   0.96996   0.00000  Uiso   1.00
C843   C     0.20100   0.19431   0.98228   0.00000  Uiso   1.00
C844   C     0.13234   0.13902   0.68438   0.00000  Uiso   1.00
H845   H     0.13281   0.03535   0.76341   0.00000  Uiso   1.00
H846   H     0.20052   0.29798   0.90325   0.00000  Uiso   1.00
N847   N     0.16665   0.16666   0.95240   0.00000  Uiso   1.00
N848   N     0.16668   0.16668   0.71427   0.00000  Uiso   1.00
O849   O     0.16666   0.10558   0.87154   0.00000  Uiso   1.00
O850   O     0.16667   0.22775   0.79513   0.00000  Uiso   1.00
O851   O     0.16666   0.10559   0.79510   0.00000  Uiso   1.00
O852   O     0.16667   0.22774   0.87157   0.00000  Uiso   1.00
O853   O     0.09058   0.16666   0.86261   0.00000  Uiso   1.00
O854   O     0.24275   0.16667   0.80405   0.00000  Uiso   1.00
O855   O     0.09058   0.16667   0.78617   0.00000  Uiso   1.00
O856   O     0.24275   0.16666   0.88050   0.00000  Uiso   1.00
Zn857  Zn    0.16667   0.16666   0.88437   0.00000  Uiso   1.00
Zn858  Zn    0.16667   0.16667   0.78229   0.00000  Uiso   1.00
Cl859  Cl    0.31469   0.13749   0.76302   0.00000  Uiso   1.00
Cl860  Cl    0.01864   0.19584   0.90365   0.00000  Uiso   1.00
Cl861  Cl    0.10931   0.28440   0.74358   0.00000  Uiso   1.00
Cl862  Cl    0.22402   0.04893   0.92309   0.00000  Uiso   1.00
Cl863  Cl    0.24273   0.22855   0.73526   0.00000  Uiso   1.00
Cl864  Cl    0.09061   0.10479   0.93140   0.00000  Uiso   1.00
S865   S     0.24945   0.23229   0.96654   0.00000  Uiso   1.00
O866   O     0.23876   0.27414   0.98414   0.00000  Uiso   1.00
O867   O     0.30147   0.22207   0.99131   0.00000  Uiso   1.00
O868   O     0.25614   0.23829   0.91238   0.00000  Uiso   1.00
H869   H     0.28236   0.26260   0.91255   0.00000  Uiso   1.00
S870   S     0.08388   0.10104   0.70012   0.00000  Uiso   1.00
O871   O     0.03186   0.11126   0.67536   0.00000  Uiso   1.00
O872   O     0.09458   0.05919   0.68253   0.00000  Uiso   1.00
O873   O     0.07719   0.09504   0.75429   0.00000  Uiso   1.00
H874   H     0.05098   0.07073   0.75411   0.00000  Uiso   1.00
C875   C     0.50200   0.08694   0.83345   0.00000  Uiso   1.00
C876   C     0.49800   0.24640   0.83321   0.00000  Uiso   1.00
C877   C     0.40058   0.16674   0.82148   0.00000  Uiso   1.00
C878   C     0.59942   0.16659   0.84518   0.00000  Uiso   1.00
C879   C     0.34549   0.16201   0.81564   0.00000  Uiso   1.00
C880   C     0.65451   0.17132   0.85102   0.00000  Uiso   1.00
C881   C     0.48112   0.02006   0.79396   0.00000  Uiso   1.00
C882   C     0.51888   0.31327   0.87271   0.00000  Uiso   1.00
C883   C     0.47653   0.31062   0.79356   0.00000  Uiso   1.00
C884   C     0.52346   0.02271   0.87310   0.00000  Uiso   1.00
C885   C     0.49664   0.29054   0.83314   0.00000  Uiso   1.00
C886   C     0.50336   0.04279   0.83353   0.00000  Uiso   1.00
C887   C     0.53356   0.19385   0.69670   0.00000  Uiso   1.00
C888   C     0.46644   0.13949   0.96996   0.00000  Uiso   1.00
C889   C     0.53433   0.19431   0.98228   0.00000  Uiso   1.00
C890   C     0.46567   0.13902   0.68438   0.00000  Uiso   1.00
H891   H     0.46614   0.03535   0.76341   0.00000  Uiso   1.00
H892   H     0.53385   0.29798   0.90325   0.00000  Uiso   1.00
N893   N     0.49999   0.16666   0.95240   0.00000  Uiso   1.00
N894   N     0.50001   0.16668   0.71427   0.00000  Uiso   1.00
O895   O     0.50000   0.10558   0.87154   0.00000  Uiso   1.00
O896   O     0.50000   0.22775   0.79513   0.00000  Uiso   1.00
O897   O     0.50000   0.10559   0.79510   0.00000  Uiso   1.00
O898   O     0.50000   0.22774   0.87157   0.00000  Uiso   1.00
O899   O     0.42392   0.16666   0.86261   0.00000  Uiso   1.00
O900   O     0.57608   0.16667   0.80405   0.00000  Uiso   1.00
O901   O     0.42392   0.16667   0.78617   0.00000  Uiso   1.00
O902   O     0.57608   0.16666   0.88050   0.00000  Uiso   1.00
Zn903  Zn    0.50000   0.16666   0.88437   0.00000  Uiso   1.00
Zn904  Zn    0.50000   0.16667   0.78229   0.00000  Uiso   1.00
Cl905  Cl    0.64802   0.13749   0.76302   0.00000  Uiso   1.00
Cl906  Cl    0.35198   0.19584   0.90365   0.00000  Uiso   1.00
Cl907  Cl    0.44264   0.28440   0.74358   0.00000  Uiso   1.00
Cl908  Cl    0.55735   0.04893   0.92309   0.00000  Uiso   1.00
Cl909  Cl    0.57606   0.22855   0.73526   0.00000  Uiso   1.00
Cl910  Cl    0.42394   0.10479   0.93140   0.00000  Uiso   1.00
S911   S     0.58278   0.23229   0.96654   0.00000  Uiso   1.00
O912   O     0.57209   0.27414   0.98414   0.00000  Uiso   1.00
O913   O     0.63480   0.22207   0.99131   0.00000  Uiso   1.00
O914   O     0.58948   0.23829   0.91238   0.00000  Uiso   1.00
H915   H     0.61569   0.26260   0.91255   0.00000  Uiso   1.00
S916   S     0.41722   0.10104   0.70012   0.00000  Uiso   1.00
O917   O     0.36520   0.11126   0.67536   0.00000  Uiso   1.00
O918   O     0.42791   0.05919   0.68253   0.00000  Uiso   1.00
O919   O     0.41052   0.09504   0.75429   0.00000  Uiso   1.00
H920   H     0.38431   0.07073   0.75411   0.00000  Uiso   1.00
C921   C     0.83533   0.08694   0.83345   0.00000  Uiso   1.00
C922   C     0.83134   0.24640   0.83321   0.00000  Uiso   1.00
C923   C     0.73391   0.16674   0.82148   0.00000  Uiso   1.00
C924   C     0.93275   0.16659   0.84518   0.00000  Uiso   1.00
C925   C     0.67882   0.16201   0.81564   0.00000  Uiso   1.00
C926   C     0.98784   0.17132   0.85102   0.00000  Uiso   1.00
C927   C     0.81445   0.02006   0.79396   0.00000  Uiso   1.00
C928   C     0.85221   0.31327   0.87271   0.00000  Uiso   1.00
C929   C     0.80987   0.31062   0.79356   0.00000  Uiso   1.00
C930   C     0.85680   0.02271   0.87310   0.00000  Uiso   1.00
C931   C     0.82997   0.29054   0.83314   0.00000  Uiso   1.00
C932   C     0.83669   0.04279   0.83353   0.00000  Uiso   1.00
C933   C     0.86690   0.19385   0.69670   0.00000  Uiso   1.00
C934   C     0.79977   0.13949   0.96996   0.00000  Uiso   1.00
C935   C     0.86766   0.19431   0.98228   0.00000  Uiso   1.00
C936   C     0.79900   0.13902   0.68438   0.00000  Uiso   1.00
H937   H     0.79948   0.03535   0.76341   0.00000  Uiso   1.00
H938   H     0.86719   0.29798   0.90325   0.00000  Uiso   1.00
N939   N     0.83332   0.16666   0.95240   0.00000  Uiso   1.00
N940   N     0.83335   0.16668   0.71427   0.00000  Uiso   1.00
O941   O     0.83333   0.10558   0.87154   0.00000  Uiso   1.00
O942   O     0.83334   0.22775   0.79513   0.00000  Uiso   1.00
O943   O     0.83333   0.10559   0.79510   0.00000  Uiso   1.00
O944   O     0.83334   0.22774   0.87157   0.00000  Uiso   1.00
O945   O     0.75725   0.16666   0.86261   0.00000  Uiso   1.00
O946   O     0.90942   0.16667   0.80405   0.00000  Uiso   1.00
O947   O     0.75725   0.16667   0.78617   0.00000  Uiso   1.00
O948   O     0.90942   0.16666   0.88050   0.00000  Uiso   1.00
Zn949  Zn    0.83333   0.16666   0.88437   0.00000  Uiso   1.00
Zn950  Zn    0.83333   0.16667   0.78229   0.00000  Uiso   1.00
Cl951  Cl    0.98136   0.13749   0.76302   0.00000  Uiso   1.00
Cl952  Cl    0.68531   0.19584   0.90365   0.00000  Uiso   1.00
Cl953  Cl    0.77598   0.28440   0.74358   0.00000  Uiso   1.00
Cl954  Cl    0.89068   0.04893   0.92309   0.00000  Uiso   1.00
Cl955  Cl    0.90939   0.22855   0.73526   0.00000  Uiso   1.00
Cl956  Cl    0.75727   0.10479   0.93140   0.00000  Uiso   1.00
S957   S     0.91612   0.23229   0.96654   0.00000  Uiso   1.00
O958   O     0.90542   0.27414   0.98414   0.00000  Uiso   1.00
O959   O     0.96813   0.22207   0.99131   0.00000  Uiso   1.00
O960   O     0.92281   0.23829   0.91238   0.00000  Uiso   1.00
H961   H     0.94902   0.26260   0.91255   0.00000  Uiso   1.00
S962   S     0.75055   0.10104   0.70012   0.00000  Uiso   1.00
O963   O     0.69853   0.11126   0.67536   0.00000  Uiso   1.00
O964   O     0.76124   0.05919   0.68253   0.00000  Uiso   1.00
O965   O     0.74385   0.09504   0.75429   0.00000  Uiso   1.00
H966   H     0.71765   0.07073   0.75411   0.00000  Uiso   1.00
C967   C     0.16866   0.42027   0.83345   0.00000  Uiso   1.00
C968   C     0.16467   0.57973   0.83321   0.00000  Uiso   1.00
C969   C     0.06725   0.50008   0.82148   0.00000  Uiso   1.00
C970   C     0.26609   0.49992   0.84518   0.00000  Uiso   1.00
C971   C     0.01215   0.49535   0.81564   0.00000  Uiso   1.00
C972   C     0.32118   0.50465   0.85102   0.00000  Uiso   1.00
C973   C     0.14779   0.35339   0.79396   0.00000  Uiso   1.00
C974   C     0.18554   0.64661   0.87271   0.00000  Uiso   1.00
C975   C     0.14320   0.64396   0.79356   0.00000  Uiso   1.00
C976   C     0.19013   0.35604   0.87310   0.00000  Uiso   1.00
C977   C     0.16331   0.62388   0.83314   0.00000  Uiso   1.00
C978   C     0.17003   0.37612   0.83353   0.00000  Uiso   1.00
C979   C     0.20023   0.52718   0.69670   0.00000  Uiso   1.00
C980   C     0.13310   0.47282   0.96996   0.00000  Uiso   1.00
C981   C     0.20100   0.52765   0.98228   0.00000  Uiso   1.00
C982   C     0.13234   0.47236   0.68438   0.00000  Uiso   1.00
H983   H     0.13281   0.36869   0.76341   0.00000  Uiso   1.00
H984   H     0.20052   0.63131   0.90325   0.00000  Uiso   1.00
N985   N     0.16665   0.49999   0.95240   0.00000  Uiso   1.00
N986   N     0.16668   0.50001   0.71427   0.00000  Uiso   1.00
O987   O     0.16666   0.43892   0.87154   0.00000  Uiso   1.00
O988   O     0.16667   0.56108   0.79513   0.00000  Uiso   1.00
O989   O     0.16666   0.43893   0.79510   0.00000  Uiso   1.00
O990   O     0.16667   0.56107   0.87157   0.00000  Uiso   1.00
O991   O     0.09058   0.50000   0.86261   0.00000  Uiso   1.00
O992   O     0.24275   0.50000   0.80405   0.00000  Uiso   1.00
O993   O     0.09058   0.50000   0.78617   0.00000  Uiso   1.00
O994   O     0.24275   0.50000   0.88050   0.00000  Uiso   1.00
Zn995  Zn    0.16667   0.49999   0.88437   0.00000  Uiso   1.00
Zn996  Zn    0.16667   0.50001   0.78229   0.00000  Uiso   1.00
Cl997  Cl    0.31469   0.47082   0.76302   0.00000  Uiso   1.00
Cl998  Cl    0.01864   0.52918   0.90365   0.00000  Uiso   1.00
Cl999  Cl    0.10931   0.61774   0.74358   0.00000  Uiso   1.00
Cl1000 Cl    0.22402   0.38226   0.92309   0.00000  Uiso   1.00
Cl1001 Cl    0.24273   0.56188   0.73526   0.00000  Uiso   1.00
Cl1002 Cl    0.09061   0.43812   0.93140   0.00000  Uiso   1.00
S1003  S     0.24945   0.56563   0.96654   0.00000  Uiso   1.00
O1004  O     0.23876   0.60748   0.98414   0.00000  Uiso   1.00
O1005  O     0.30147   0.55541   0.99131   0.00000  Uiso   1.00
O1006  O     0.25614   0.57163   0.91238   0.00000  Uiso   1.00
H1007  H     0.28236   0.59593   0.91255   0.00000  Uiso   1.00
S1008  S     0.08388   0.43438   0.70012   0.00000  Uiso   1.00
O1009  O     0.03186   0.44460   0.67536   0.00000  Uiso   1.00
O1010  O     0.09458   0.39253   0.68253   0.00000  Uiso   1.00
O1011  O     0.07719   0.42837   0.75429   0.00000  Uiso   1.00
H1012  H     0.05098   0.40407   0.75411   0.00000  Uiso   1.00
C1013  C     0.50200   0.42027   0.83345   0.00000  Uiso   1.00
C1014  C     0.49800   0.57973   0.83321   0.00000  Uiso   1.00
C1015  C     0.40058   0.50008   0.82148   0.00000  Uiso   1.00
C1016  C     0.59942   0.49992   0.84518   0.00000  Uiso   1.00
C1017  C     0.34549   0.49535   0.81564   0.00000  Uiso   1.00
C1018  C     0.65451   0.50465   0.85102   0.00000  Uiso   1.00
C1019  C     0.48112   0.35339   0.79396   0.00000  Uiso   1.00
C1020  C     0.51888   0.64661   0.87271   0.00000  Uiso   1.00
C1021  C     0.47653   0.64396   0.79356   0.00000  Uiso   1.00
C1022  C     0.52346   0.35604   0.87310   0.00000  Uiso   1.00
C1023  C     0.49664   0.62388   0.83314   0.00000  Uiso   1.00
C1024  C     0.50336   0.37612   0.83353   0.00000  Uiso   1.00
C1025  C     0.53356   0.52718   0.69670   0.00000  Uiso   1.00
C1026  C     0.46644   0.47282   0.96996   0.00000  Uiso   1.00
C1027  C     0.53433   0.52765   0.98228   0.00000  Uiso   1.00
C1028  C     0.46567   0.47236   0.68438   0.00000  Uiso   1.00
H1029  H     0.46614   0.36869   0.76341   0.00000  Uiso   1.00
H1030  H     0.53385   0.63131   0.90325   0.00000  Uiso   1.00
N1031  N     0.49999   0.49999   0.95240   0.00000  Uiso   1.00
N1032  N     0.50001   0.50001   0.71427   0.00000  Uiso   1.00
O1033  O     0.50000   0.43892   0.87154   0.00000  Uiso   1.00
O1034  O     0.50000   0.56108   0.79513   0.00000  Uiso   1.00
O1035  O     0.50000   0.43893   0.79510   0.00000  Uiso   1.00
O1036  O     0.50000   0.56107   0.87157   0.00000  Uiso   1.00
O1037  O     0.42392   0.50000   0.86261   0.00000  Uiso   1.00
O1038  O     0.57608   0.50000   0.80405   0.00000  Uiso   1.00
O1039  O     0.42392   0.50000   0.78617   0.00000  Uiso   1.00
O1040  O     0.57608   0.50000   0.88050   0.00000  Uiso   1.00
Zn1041 Zn    0.50000   0.49999   0.88437   0.00000  Uiso   1.00
Zn1042 Zn    0.50000   0.50001   0.78229   0.00000  Uiso   1.00
Cl1043 Cl    0.64802   0.47082   0.76302   0.00000  Uiso   1.00
Cl1044 Cl    0.35198   0.52918   0.90365   0.00000  Uiso   1.00
Cl1045 Cl    0.44264   0.61774   0.74358   0.00000  Uiso   1.00
Cl1046 Cl    0.55735   0.38226   0.92309   0.00000  Uiso   1.00
Cl1047 Cl    0.57606   0.56188   0.73526   0.00000  Uiso   1.00
Cl1048 Cl    0.42394   0.43812   0.93140   0.00000  Uiso   1.00
S1049  S     0.58278   0.56563   0.96654   0.00000  Uiso   1.00
O1050  O     0.57209   0.60748   0.98414   0.00000  Uiso   1.00
O1051  O     0.63480   0.55541   0.99131   0.00000  Uiso   1.00
O1052  O     0.58948   0.57163   0.91238   0.00000  Uiso   1.00
H1053  H     0.61569   0.59593   0.91255   0.00000  Uiso   1.00
S1054  S     0.41722   0.43438   0.70012   0.00000  Uiso   1.00
O1055  O     0.36520   0.44460   0.67536   0.00000  Uiso   1.00
O1056  O     0.42791   0.39253   0.68253   0.00000  Uiso   1.00
O1057  O     0.41052   0.42837   0.75429   0.00000  Uiso   1.00
H1058  H     0.38431   0.40407   0.75411   0.00000  Uiso   1.00
C1059  C     0.83533   0.42027   0.83345   0.00000  Uiso   1.00
C1060  C     0.83134   0.57973   0.83321   0.00000  Uiso   1.00
C1061  C     0.73391   0.50008   0.82148   0.00000  Uiso   1.00
C1062  C     0.93275   0.49992   0.84518   0.00000  Uiso   1.00
C1063  C     0.67882   0.49535   0.81564   0.00000  Uiso   1.00
C1064  C     0.98784   0.50465   0.85102   0.00000  Uiso   1.00
C1065  C     0.81445   0.35339   0.79396   0.00000  Uiso   1.00
C1066  C     0.85221   0.64661   0.87271   0.00000  Uiso   1.00
C1067  C     0.80987   0.64396   0.79356   0.00000  Uiso   1.00
C1068  C     0.85680   0.35604   0.87310   0.00000  Uiso   1.00
C1069  C     0.82997   0.62388   0.83314   0.00000  Uiso   1.00
C1070  C     0.83669   0.37612   0.83353   0.00000  Uiso   1.00
C1071  C     0.86690   0.52718   0.69670   0.00000  Uiso   1.00
C1072  C     0.79977   0.47282   0.96996   0.00000  Uiso   1.00
C1073  C     0.86766   0.52765   0.98228   0.00000  Uiso   1.00
C1074  C     0.79900   0.47236   0.68438   0.00000  Uiso   1.00
H1075  H     0.79948   0.36869   0.76341   0.00000  Uiso   1.00
H1076  H     0.86719   0.63131   0.90325   0.00000  Uiso   1.00
N1077  N     0.83332   0.49999   0.95240   0.00000  Uiso   1.00
N1078  N     0.83335   0.50001   0.71427   0.00000  Uiso   1.00
O1079  O     0.83333   0.43892   0.87154   0.00000  Uiso   1.00
O1080  O     0.83334   0.56108   0.79513   0.00000  Uiso   1.00
O1081  O     0.83333   0.43893   0.79510   0.00000  Uiso   1.00
O1082  O     0.83334   0.56107   0.87157   0.00000  Uiso   1.00
O1083  O     0.75725   0.50000   0.86261   0.00000  Uiso   1.00
O1084  O     0.90942   0.50000   0.80405   0.00000  Uiso   1.00
O1085  O     0.75725   0.50000   0.78617   0.00000  Uiso   1.00
O1086  O     0.90942   0.50000   0.88050   0.00000  Uiso   1.00
Zn1087 Zn    0.83333   0.49999   0.88437   0.00000  Uiso   1.00
Zn1088 Zn    0.83333   0.50001   0.78229   0.00000  Uiso   1.00
Cl1089 Cl    0.98136   0.47082   0.76302   0.00000  Uiso   1.00
Cl1090 Cl    0.68531   0.52918   0.90365   0.00000  Uiso   1.00
Cl1091 Cl    0.77598   0.61774   0.74358   0.00000  Uiso   1.00
Cl1092 Cl    0.89068   0.38226   0.92309   0.00000  Uiso   1.00
Cl1093 Cl    0.90939   0.56188   0.73526   0.00000  Uiso   1.00
Cl1094 Cl    0.75727   0.43812   0.93140   0.00000  Uiso   1.00
S1095  S     0.91612   0.56563   0.96654   0.00000  Uiso   1.00
O1096  O     0.90542   0.60748   0.98414   0.00000  Uiso   1.00
O1097  O     0.96813   0.55541   0.99131   0.00000  Uiso   1.00
O1098  O     0.92281   0.57163   0.91238   0.00000  Uiso   1.00
H1099  H     0.94902   0.59593   0.91255   0.00000  Uiso   1.00
S1100  S     0.75055   0.43438   0.70012   0.00000  Uiso   1.00
O1101  O     0.69853   0.44460   0.67536   0.00000  Uiso   1.00
O1102  O     0.76124   0.39253   0.68253   0.00000  Uiso   1.00
O1103  O     0.74385   0.42837   0.75429   0.00000  Uiso   1.00
H1104  H     0.71765   0.40407   0.75411   0.00000  Uiso   1.00
C1105  C     0.16866   0.75360   0.83345   0.00000  Uiso   1.00
C1106  C     0.16467   0.91306   0.83321   0.00000  Uiso   1.00
C1107  C     0.06725   0.83341   0.82148   0.00000  Uiso   1.00
C1108  C     0.26609   0.83326   0.84518   0.00000  Uiso   1.00
C1109  C     0.01215   0.82868   0.81564   0.00000  Uiso   1.00
C1110  C     0.32118   0.83799   0.85102   0.00000  Uiso   1.00
C1111  C     0.14779   0.68673   0.79396   0.00000  Uiso   1.00
C1112  C     0.18554   0.97994   0.87271   0.00000  Uiso   1.00
C1113  C     0.14320   0.97729   0.79356   0.00000  Uiso   1.00
C1114  C     0.19013   0.68938   0.87310   0.00000  Uiso   1.00
C1115  C     0.16331   0.95721   0.83314   0.00000  Uiso   1.00
C1116  C     0.17003   0.70946   0.83353   0.00000  Uiso   1.00
C1117  C     0.20023   0.86051   0.69670   0.00000  Uiso   1.00
C1118  C     0.13310   0.80615   0.96996   0.00000  Uiso   1.00
C1119  C     0.20100   0.86098   0.98228   0.00000  Uiso   1.00
C1120  C     0.13234   0.80569   0.68438   0.00000  Uiso   1.00
H1121  H     0.13281   0.70202   0.76341   0.00000  Uiso   1.00
H1122  H     0.20052   0.96465   0.90325   0.00000  Uiso   1.00
N1123  N     0.16665   0.83332   0.95240   0.00000  Uiso   1.00
N1124  N     0.16668   0.83334   0.71427   0.00000  Uiso   1.00
O1125  O     0.16666   0.77225   0.87154   0.00000  Uiso   1.00
O1126  O     0.16667   0.89442   0.79513   0.00000  Uiso   1.00
O1127  O     0.16666   0.77226   0.79510   0.00000  Uiso   1.00
O1128  O     0.16667   0.89441   0.87157   0.00000  Uiso   1.00
O1129  O     0.09058   0.83333   0.86261   0.00000  Uiso   1.00
O1130  O     0.24275   0.83334   0.80405   0.00000  Uiso   1.00
O1131  O     0.09058   0.83334   0.78617   0.00000  Uiso   1.00
O1132  O     0.24275   0.83333   0.88050   0.00000  Uiso   1.00
Zn1133 Zn    0.16667   0.83333   0.88437   0.00000  Uiso   1.00
Zn1134 Zn    0.16667   0.83334   0.78229   0.00000  Uiso   1.00
Cl1135 Cl    0.31469   0.80416   0.76302   0.00000  Uiso   1.00
Cl1136 Cl    0.01864   0.86251   0.90365   0.00000  Uiso   1.00
Cl1137 Cl    0.10931   0.95107   0.74358   0.00000  Uiso   1.00
Cl1138 Cl    0.22402   0.71560   0.92309   0.00000  Uiso   1.00
Cl1139 Cl    0.24273   0.89521   0.73526   0.00000  Uiso   1.00
Cl1140 Cl    0.09061   0.77146   0.93140   0.00000  Uiso   1.00
S1141  S     0.24945   0.89896   0.96654   0.00000  Uiso   1.00
O1142  O     0.23876   0.94081   0.98414   0.00000  Uiso   1.00
O1143  O     0.30147   0.88874   0.99131   0.00000  Uiso   1.00
O1144  O     0.25614   0.90496   0.91238   0.00000  Uiso   1.00
H1145  H     0.28236   0.92926   0.91255   0.00000  Uiso   1.00
S1146  S     0.08388   0.76771   0.70012   0.00000  Uiso   1.00
O1147  O     0.03186   0.77793   0.67536   0.00000  Uiso   1.00
O1148  O     0.09458   0.72586   0.68253   0.00000  Uiso   1.00
O1149  O     0.07719   0.76171   0.75429   0.00000  Uiso   1.00
H1150  H     0.05098   0.73740   0.75411   0.00000  Uiso   1.00
C1151  C     0.50200   0.75360   0.83345   0.00000  Uiso   1.00
C1152  C     0.49800   0.91306   0.83321   0.00000  Uiso   1.00
C1153  C     0.40058   0.83341   0.82148   0.00000  Uiso   1.00
C1154  C     0.59942   0.83326   0.84518   0.00000  Uiso   1.00
C1155  C     0.34549   0.82868   0.81564   0.00000  Uiso   1.00
C1156  C     0.65451   0.83799   0.85102   0.00000  Uiso   1.00
C1157  C     0.48112   0.68673   0.79396   0.00000  Uiso   1.00
C1158  C     0.51888   0.97994   0.87271   0.00000  Uiso   1.00
C1159  C     0.47653   0.97729   0.79356   0.00000  Uiso   1.00
C1160  C     0.52346   0.68938   0.87310   0.00000  Uiso   1.00
C1161  C     0.49664   0.95721   0.83314   0.00000  Uiso   1.00
C1162  C     0.50336   0.70946   0.83353   0.00000  Uiso   1.00
C1163  C     0.53356   0.86051   0.69670   0.00000  Uiso   1.00
C1164  C     0.46644   0.80615   0.96996   0.00000  Uiso   1.00
C1165  C     0.53433   0.86098   0.98228   0.00000  Uiso   1.00
C1166  C     0.46567   0.80569   0.68438   0.00000  Uiso   1.00
H1167  H     0.46614   0.70202   0.76341   0.00000  Uiso   1.00
H1168  H     0.53385   0.96465   0.90325   0.00000  Uiso   1.00
N1169  N     0.49999   0.83332   0.95240   0.00000  Uiso   1.00
N1170  N     0.50001   0.83334   0.71427   0.00000  Uiso   1.00
O1171  O     0.50000   0.77225   0.87154   0.00000  Uiso   1.00
O1172  O     0.50000   0.89442   0.79513   0.00000  Uiso   1.00
O1173  O     0.50000   0.77226   0.79510   0.00000  Uiso   1.00
O1174  O     0.50000   0.89441   0.87157   0.00000  Uiso   1.00
O1175  O     0.42392   0.83333   0.86261   0.00000  Uiso   1.00
O1176  O     0.57608   0.83334   0.80405   0.00000  Uiso   1.00
O1177  O     0.42392   0.83334   0.78617   0.00000  Uiso   1.00
O1178  O     0.57608   0.83333   0.88050   0.00000  Uiso   1.00
Zn1179 Zn    0.50000   0.83333   0.88437   0.00000  Uiso   1.00
Zn1180 Zn    0.50000   0.83334   0.78229   0.00000  Uiso   1.00
Cl1181 Cl    0.64802   0.80416   0.76302   0.00000  Uiso   1.00
Cl1182 Cl    0.35198   0.86251   0.90365   0.00000  Uiso   1.00
Cl1183 Cl    0.44264   0.95107   0.74358   0.00000  Uiso   1.00
Cl1184 Cl    0.55735   0.71560   0.92309   0.00000  Uiso   1.00
Cl1185 Cl    0.57606   0.89521   0.73526   0.00000  Uiso   1.00
Cl1186 Cl    0.42394   0.77146   0.93140   0.00000  Uiso   1.00
S1187  S     0.58278   0.89896   0.96654   0.00000  Uiso   1.00
O1188  O     0.57209   0.94081   0.98414   0.00000  Uiso   1.00
O1189  O     0.63480   0.88874   0.99131   0.00000  Uiso   1.00
O1190  O     0.58948   0.90496   0.91238   0.00000  Uiso   1.00
H1191  H     0.61569   0.92926   0.91255   0.00000  Uiso   1.00
S1192  S     0.41722   0.76771   0.70012   0.00000  Uiso   1.00
O1193  O     0.36520   0.77793   0.67536   0.00000  Uiso   1.00
O1194  O     0.42791   0.72586   0.68253   0.00000  Uiso   1.00
O1195  O     0.41052   0.76171   0.75429   0.00000  Uiso   1.00
H1196  H     0.38431   0.73740   0.75411   0.00000  Uiso   1.00
C1197  C     0.83533   0.75360   0.83345   0.00000  Uiso   1.00
C1198  C     0.83134   0.91306   0.83321   0.00000  Uiso   1.00
C1199  C     0.73391   0.83341   0.82148   0.00000  Uiso   1.00
C1200  C     0.93275   0.83326   0.84518   0.00000  Uiso   1.00
C1201  C     0.67882   0.82868   0.81564   0.00000  Uiso   1.00
C1202  C     0.98784   0.83799   0.85102   0.00000  Uiso   1.00
C1203  C     0.81445   0.68673   0.79396   0.00000  Uiso   1.00
C1204  C     0.85221   0.97994   0.87271   0.00000  Uiso   1.00
C1205  C     0.80987   0.97729   0.79356   0.00000  Uiso   1.00
C1206  C     0.85680   0.68938   0.87310   0.00000  Uiso   1.00
C1207  C     0.82997   0.95721   0.83314   0.00000  Uiso   1.00
C1208  C     0.83669   0.70946   0.83353   0.00000  Uiso   1.00
C1209  C     0.86690   0.86051   0.69670   0.00000  Uiso   1.00
C1210  C     0.79977   0.80615   0.96996   0.00000  Uiso   1.00
C1211  C     0.86766   0.86098   0.98228   0.00000  Uiso   1.00
C1212  C     0.79900   0.80569   0.68438   0.00000  Uiso   1.00
H1213  H     0.79948   0.70202   0.76341   0.00000  Uiso   1.00
H1214  H     0.86719   0.96465   0.90325   0.00000  Uiso   1.00
N1215  N     0.83332   0.83332   0.95240   0.00000  Uiso   1.00
N1216  N     0.83335   0.83334   0.71427   0.00000  Uiso   1.00
O1217  O     0.83333   0.77225   0.87154   0.00000  Uiso   1.00
O1218  O     0.83334   0.89442   0.79513   0.00000  Uiso   1.00
O1219  O     0.83333   0.77226   0.79510   0.00000  Uiso   1.00
O1220  O     0.83334   0.89441   0.87157   0.00000  Uiso   1.00
O1221  O     0.75725   0.83333   0.86261   0.00000  Uiso   1.00
O1222  O     0.90942   0.83334   0.80405   0.00000  Uiso   1.00
O1223  O     0.75725   0.83334   0.78617   0.00000  Uiso   1.00
O1224  O     0.90942   0.83333   0.88050   0.00000  Uiso   1.00
Zn1225 Zn    0.83333   0.83333   0.88437   0.00000  Uiso   1.00
Zn1226 Zn    0.83333   0.83334   0.78229   0.00000  Uiso   1.00
Cl1227 Cl    0.98136   0.80416   0.76302   0.00000  Uiso   1.00
Cl1228 Cl    0.68531   0.86251   0.90365   0.00000  Uiso   1.00
Cl1229 Cl    0.77598   0.95107   0.74358   0.00000  Uiso   1.00
Cl1230 Cl    0.89068   0.71560   0.92309   0.00000  Uiso   1.00
Cl1231 Cl    0.90939   0.89521   0.73526   0.00000  Uiso   1.00
Cl1232 Cl    0.75727   0.77146   0.93140   0.00000  Uiso   1.00
S1233  S     0.91612   0.89896   0.96654   0.00000  Uiso   1.00
O1234  O     0.90542   0.94081   0.98414   0.00000  Uiso   1.00
O1235  O     0.96813   0.88874   0.99131   0.00000  Uiso   1.00
O1236  O     0.92281   0.90496   0.91238   0.00000  Uiso   1.00
H1237  H     0.94902   0.92926   0.91255   0.00000  Uiso   1.00
S1238  S     0.75055   0.76771   0.70012   0.00000  Uiso   1.00
O1239  O     0.69853   0.77793   0.67536   0.00000  Uiso   1.00
O1240  O     0.76124   0.72586   0.68253   0.00000  Uiso   1.00
O1241  O     0.74385   0.76171   0.75429   0.00000  Uiso   1.00
H1242  H     0.71765   0.73740   0.75411   0.00000  Uiso   1.00
loop_
_geom_bond_atom_site_label_1
_geom_bond_atom_site_label_2
_geom_bond_distance
_geom_bond_site_symmetry_2
_ccdc_geom_bond_type
C1     O21     1.290   .     A
C1     O23     1.298   .     A
C1     C12     1.425   .     S
C2     O22     1.290   .     A
C2     C11     1.425   .     S
C2     O24     1.298   .     A
C3     O27     1.301   .     A
C3     O25     1.281   .     A
C3     C5      1.414   .     S
C4     O26     1.281   .     A
C4     O28     1.301   .     A
C4     C6      1.414   .     S
C5     C98     1.361   1_455 S
C5     Cl123   1.784   1_455 S
C6     C51     1.361   .     S
C6     Cl78    1.784   .     S
C7     C12     1.395   .     A
C7     H17     1.078   .     S
C7     C285    1.371   1_545 S
C8     H18     1.078   .     S
C8     C11     1.395   .     A
C8     C148    1.371   .     S
C9     C11     1.406   .     A
C9     Cl33    1.768   .     S
C9     C145    1.371   .     S
C10    C12     1.406   .     A
C10    Cl34    1.768   .     S
C10    C284    1.371   1_545 S
C13    N20     1.353   .     A
C13    Cl35    1.769   .     S
C13    C843    1.431   1_554 S
C14    Cl36    1.769   .     S
C14    N19     1.353   .     A
C14    C430    1.431   .     S
C15    N19     1.402   .     A
C15    S37     1.801   .     S
C15    C427    1.431   .     S
C16    N20     1.402   .     A
C16    S42     1.801   .     S
C16    C842    1.431   1_554 S
N19    Zn29    2.033   .     S
N20    Zn30    2.033   .     S
O21    Zn29    1.997   .     S
O22    Zn30    1.997   .     S
O23    Zn30    2.009   .     S
O24    Zn29    2.009   .     S
O25    Zn29    1.987   .     S
O26    Zn30    1.987   .     S
O27    Zn30    2.007   .     S
O28    Zn29    2.007   .     S
Cl31   C51     1.784   .     S
Cl32   C98     1.784   1_455 S
S37    O38     1.504   .     D
S37    O39     1.504   .     D
S37    O40     1.668   .     S
O40    H41     0.991   .     S
S42    O44     1.504   .     D
S42    O43     1.504   .     D
S42    O45     1.668   .     S
O45    H46     0.991   .     S
C47    O67     1.290   .     A
C47    O69     1.298   .     A
C47    C58     1.425   .     S
C48    O68     1.290   .     A
C48    C57     1.425   .     S
C48    O70     1.298   .     A
C49    O73     1.301   .     A
C49    O71     1.281   .     A
C49    C51     1.414   .     S
C50    O72     1.281   .     A
C50    O74     1.301   .     A
C50    C52     1.414   .     S
C52    C97     1.361   .     S
C52    Cl124   1.784   .     S
C53    C58     1.395   .     A
C53    H63     1.078   .     S
C53    C331    1.371   1_545 S
C54    H64     1.078   .     S
C54    C57     1.395   .     A
C54    C194    1.371   .     S
C55    C57     1.406   .     A
C55    Cl79    1.768   .     S
C55    C191    1.371   .     S
C56    C58     1.406   .     A
C56    Cl80    1.768   .     S
C56    C330    1.371   1_545 S
C59    N66     1.353   .     A
C59    Cl81    1.769   .     S
C59    C889    1.431   1_554 S
C60    Cl82    1.769   .     S
C60    N65     1.353   .     A
C60    C476    1.431   .     S
C61    N65     1.402   .     A
C61    S83     1.801   .     S
C61    C473    1.431   .     S
C62    N66     1.402   .     A
C62    S88     1.801   .     S
C62    C888    1.431   1_554 S
N65    Zn75    2.033   .     S
N66    Zn76    2.033   .     S
O67    Zn75    1.997   .     S
O68    Zn76    1.997   .     S
O69    Zn76    2.009   .     S
O70    Zn75    2.009   .     S
O71    Zn75    1.987   .     S
O72    Zn76    1.987   .     S
O73    Zn76    2.007   .     S
O74    Zn75    2.007   .     S
Cl77   C97     1.784   .     S
S83    O84     1.504   .     D
S83    O85     1.504   .     D
S83    O86     1.668   .     S
O86    H87     0.991   .     S
S88    O90     1.504   .     D
S88    O89     1.504   .     D
S88    O91     1.668   .     S
O91    H92     0.991   .     S
C93    O113    1.290   .     A
C93    O115    1.298   .     A
C93    C104    1.425   .     S
C94    O114    1.290   .     A
C94    C103    1.425   .     S
C94    O116    1.298   .     A
C95    O119    1.301   .     A
C95    O117    1.281   .     A
C95    C97     1.414   .     S
C96    O118    1.281   .     A
C96    O120    1.301   .     A
C96    C98     1.414   .     S
C98    C5      1.361   1_655 S
C98    Cl32    1.784   1_655 S
C99    C104    1.395   .     A
C99    H109    1.078   .     S
C99    C377    1.371   1_545 S
C100   H110    1.078   .     S
C100   C103    1.395   .     A
C100   C240    1.371   .     S
C101   C103    1.406   .     A
C101   Cl125   1.768   .     S
C101   C237    1.371   .     S
C102   C104    1.406   .     A
C102   Cl126   1.768   .     S
C102   C376    1.371   1_545 S
C105   N112    1.353   .     A
C105   Cl127   1.769   .     S
C105   C935    1.431   1_554 S
C106   Cl128   1.769   .     S
C106   N111    1.353   .     A
C106   C522    1.431   .     S
C107   N111    1.402   .     A
C107   S129    1.801   .     S
C107   C519    1.431   .     S
C108   N112    1.402   .     A
C108   S134    1.801   .     S
C108   C934    1.431   1_554 S
N111   Zn121   2.033   .     S
N112   Zn122   2.033   .     S
O113   Zn121   1.997   .     S
O114   Zn122   1.997   .     S
O115   Zn122   2.009   .     S
O116   Zn121   2.009   .     S
O117   Zn121   1.987   .     S
O118   Zn122   1.987   .     S
O119   Zn122   2.007   .     S
O120   Zn121   2.007   .     S
Cl123  C5      1.784   1_655 S
S129   O130    1.504   .     D
S129   O131    1.504   .     D
S129   O132    1.668   .     S
O132   H133    0.991   .     S
S134   O136    1.504   .     D
S134   O135    1.504   .     D
S134   O137    1.668   .     S
O137   H138    0.991   .     S
C139   O159    1.290   .     A
C139   O161    1.298   .     A
C139   C150    1.425   .     S
C140   O160    1.290   .     A
C140   C149    1.425   .     S
C140   O162    1.298   .     A
C141   O165    1.301   .     A
C141   O163    1.281   .     A
C141   C143    1.414   .     S
C142   O164    1.281   .     A
C142   O166    1.301   .     A
C142   C144    1.414   .     S
C143   C236    1.361   1_455 S
C143   Cl261   1.784   1_455 S
C144   C189    1.361   .     S
C144   Cl216   1.784   .     S
C145   C150    1.395   .     A
C145   H155    1.078   .     S
C146   H156    1.078   .     S
C146   C149    1.395   .     A
C146   C286    1.371   .     S
C147   C149    1.406   .     A
C147   Cl171   1.768   .     S
C147   C283    1.371   .     S
C148   C150    1.406   .     A
C148   Cl172   1.768   .     S
C151   N158    1.353   .     A
C151   Cl173   1.769   .     S
C151   C981    1.431   1_554 S
C152   Cl174   1.769   .     S
C152   N157    1.353   .     A
C152   C568    1.431   .     S
C153   N157    1.402   .     A
C153   S175    1.801   .     S
C153   C565    1.431   .     S
C154   N158    1.402   .     A
C154   S180    1.801   .     S
C154   C980    1.431   1_554 S
N157   Zn167   2.033   .     S
N158   Zn168   2.033   .     S
O159   Zn167   1.997   .     S
O160   Zn168   1.997   .     S
O161   Zn168   2.009   .     S
O162   Zn167   2.009   .     S
O163   Zn167   1.987   .     S
O164   Zn168   1.987   .     S
O165   Zn168   2.007   .     S
O166   Zn167   2.007   .     S
Cl169  C189    1.784   .     S
Cl170  C236    1.784   1_455 S
S175   O176    1.504   .     D
S175   O177    1.504   .     D
S175   O178    1.668   .     S
O178   H179    0.991   .     S
S180   O182    1.504   .     D
S180   O181    1.504   .     D
S180   O183    1.668   .     S
O183   H184    0.991   .     S
C185   O205    1.290   .     A
C185   O207    1.298   .     A
C185   C196    1.425   .     S
C186   O206    1.290   .     A
C186   C195    1.425   .     S
C186   O208    1.298   .     A
C187   O211    1.301   .     A
C187   O209    1.281   .     A
C187   C189    1.414   .     S
C188   O210    1.281   .     A
C188   O212    1.301   .     A
C188   C190    1.414   .     S
C190   C235    1.361   .     S
C190   Cl262   1.784   .     S
C191   C196    1.395   .     A
C191   H201    1.078   .     S
C192   H202    1.078   .     S
C192   C195    1.395   .     A
C192   C332    1.371   .     S
C193   C195    1.406   .     A
C193   Cl217   1.768   .     S
C193   C329    1.371   .     S
C194   C196    1.406   .     A
C194   Cl218   1.768   .     S
C197   N204    1.353   .     A
C197   Cl219   1.769   .     S
C197   C1027   1.431   1_554 S
C198   Cl220   1.769   .     S
C198   N203    1.353   .     A
C198   C614    1.431   .     S
C199   N203    1.402   .     A
C199   S221    1.801   .     S
C199   C611    1.431   .     S
C200   N204    1.402   .     A
C200   S226    1.801   .     S
C200   C1026   1.431   1_554 S
N203   Zn213   2.033   .     S
N204   Zn214   2.033   .     S
O205   Zn213   1.997   .     S
O206   Zn214   1.997   .     S
O207   Zn214   2.009   .     S
O208   Zn213   2.009   .     S
O209   Zn213   1.987   .     S
O210   Zn214   1.987   .     S
O211   Zn214   2.007   .     S
O212   Zn213   2.007   .     S
Cl215  C235    1.784   .     S
S221   O222    1.504   .     D
S221   O223    1.504   .     D
S221   O224    1.668   .     S
O224   H225    0.991   .     S
S226   O228    1.504   .     D
S226   O227    1.504   .     D
S226   O229    1.668   .     S
O229   H230    0.991   .     S
C231   O251    1.290   .     A
C231   O253    1.298   .     A
C231   C242    1.425   .     S
C232   O252    1.290   .     A
C232   C241    1.425   .     S
C232   O254    1.298   .     A
C233   O257    1.301   .     A
C233   O255    1.281   .     A
C233   C235    1.414   .     S
C234   O256    1.281   .     A
C234   O258    1.301   .     A
C234   C236    1.414   .     S
C236   C143    1.361   1_655 S
C236   Cl170   1.784   1_655 S
C237   C242    1.395   .     A
C237   H247    1.078   .     S
C238   H248    1.078   .     S
C238   C241    1.395   .     A
C238   C378    1.371   .     S
C239   C241    1.406   .     A
C239   Cl263   1.768   .     S
C239   C375    1.371   .     S
C240   C242    1.406   .     A
C240   Cl264   1.768   .     S
C243   N250    1.353   .     A
C243   Cl265   1.769   .     S
C243   C1073   1.431   1_554 S
C244   Cl266   1.769   .     S
C244   N249    1.353   .     A
C244   C660    1.431   .     S
C245   N249    1.402   .     A
C245   S267    1.801   .     S
C245   C657    1.431   .     S
C246   N250    1.402   .     A
C246   S272    1.801   .     S
C246   C1072   1.431   1_554 S
N249   Zn259   2.033   .     S
N250   Zn260   2.033   .     S
O251   Zn259   1.997   .     S
O252   Zn260   1.997   .     S
O253   Zn260   2.009   .     S
O254   Zn259   2.009   .     S
O255   Zn259   1.987   .     S
O256   Zn260   1.987   .     S
O257   Zn260   2.007   .     S
O258   Zn259   2.007   .     S
Cl261  C143    1.784   1_655 S
S267   O268    1.504   .     D
S267   O269    1.504   .     D
S267   O270    1.668   .     S
O270   H271    0.991   .     S
S272   O274    1.504   .     D
S272   O273    1.504   .     D
S272   O275    1.668   .     S
O275   H276    0.991   .     S
C277   O297    1.290   .     A
C277   O299    1.298   .     A
C277   C288    1.425   .     S
C278   O298    1.290   .     A
C278   C287    1.425   .     S
C278   O300    1.298   .     A
C279   O303    1.301   .     A
C279   O301    1.281   .     A
C279   C281    1.414   .     S
C280   O302    1.281   .     A
C280   O304    1.301   .     A
C280   C282    1.414   .     S
C281   C374    1.361   1_455 S
C281   Cl399   1.784   1_455 S
C282   C327    1.361   .     S
C282   Cl354   1.784   .     S
C283   C288    1.395   .     A
C283   H293    1.078   .     S
C284   H294    1.078   .     S
C284   C287    1.395   .     A
C284   C10     1.371   1_565 S
C285   C287    1.406   .     A
C285   Cl309   1.768   .     S
C285   C7      1.371   1_565 S
C286   C288    1.406   .     A
C286   Cl310   1.768   .     S
C289   N296    1.353   .     A
C289   Cl311   1.769   .     S
C289   C1119   1.431   1_554 S
C290   Cl312   1.769   .     S
C290   N295    1.353   .     A
C290   C706    1.431   .     S
C291   N295    1.402   .     A
C291   S313    1.801   .     S
C291   C703    1.431   .     S
C292   N296    1.402   .     A
C292   S318    1.801   .     S
C292   C1118   1.431   1_554 S
N295   Zn305   2.033   .     S
N296   Zn306   2.033   .     S
O297   Zn305   1.997   .     S
O298   Zn306   1.997   .     S
O299   Zn306   2.009   .     S
O300   Zn305   2.009   .     S
O301   Zn305   1.987   .     S
O302   Zn306   1.987   .     S
O303   Zn306   2.007   .     S
O304   Zn305   2.007   .     S
Cl307  C327    1.784   .     S
Cl308  C374    1.784   1_455 S
S313   O314    1.504   .     D
S313   O315    1.504   .     D
S313   O316    1.668   .     S
O316   H317    0.991   .     S
S318   O320    1.504   .     D
S318   O319    1.504   .     D
S318   O321    1.668   .     S
O321   H322    0.991   .     S
C323   O343    1.290   .     A
C323   O345    1.298   .     A
C323   C334    1.425   .     S
C324   O344    1.290   .     A
C324   C333    1.425   .     S
C324   O346    1.298   .     A
C325   O349    1.301   .     A
C325   O347    1.281   .     A
C325   C327    1.414   .     S
C326   O348    1.281   .     A
C326   O350    1.301   .     A
C326   C328    1.414   .     S
C328   C373    1.361   .     S
C328   Cl400   1.784   .     S
C329   C334    1.395   .     A
C329   H339    1.078   .     S
C330   H340    1.078   .     S
C330   C333    1.395   .     A
C330   C56     1.371   1_565 S
C331   C333    1.406   .     A
C331   Cl355   1.768   .     S
C331   C53     1.371   1_565 S
C332   C334    1.406   .     A
C332   Cl356   1.768   .     S
C335   N342    1.353   .     A
C335   Cl357   1.769   .     S
C335   C1165   1.431   1_554 S
C336   Cl358   1.769   .     S
C336   N341    1.353   .     A
C336   C752    1.431   .     S
C337   N341    1.402   .     A
C337   S359    1.801   .     S
C337   C749    1.431   .     S
C338   N342    1.402   .     A
C338   S364    1.801   .     S
C338   C1164   1.431   1_554 S
N341   Zn351   2.033   .     S
N342   Zn352   2.033   .     S
O343   Zn351   1.997   .     S
O344   Zn352   1.997   .     S
O345   Zn352   2.009   .     S
O346   Zn351   2.009   .     S
O347   Zn351   1.987   .     S
O348   Zn352   1.987   .     S
O349   Zn352   2.007   .     S
O350   Zn351   2.007   .     S
Cl353  C373    1.784   .     S
S359   O360    1.504   .     D
S359   O361    1.504   .     D
S359   O362    1.668   .     S
O362   H363    0.991   .     S
S364   O366    1.504   .     D
S364   O365    1.504   .     D
S364   O367    1.668   .     S
O367   H368    0.991   .     S
C369   O389    1.290   .     A
C369   O391    1.298   .     A
C369   C380    1.425   .     S
C370   O390    1.290   .     A
C370   C379    1.425   .     S
C370   O392    1.298   .     A
C371   O395    1.301   .     A
C371   O393    1.281   .     A
C371   C373    1.414   .     S
C372   O394    1.281   .     A
C372   O396    1.301   .     A
C372   C374    1.414   .     S
C374   C281    1.361   1_655 S
C374   Cl308   1.784   1_655 S
C375   C380    1.395   .     A
C375   H385    1.078   .     S
C376   H386    1.078   .     S
C376   C379    1.395   .     A
C376   C102    1.371   1_565 S
C377   C379    1.406   .     A
C377   Cl401   1.768   .     S
C377   C99     1.371   1_565 S
C378   C380    1.406   .     A
C378   Cl402   1.768   .     S
C381   N388    1.353   .     A
C381   Cl403   1.769   .     S
C381   C1211   1.431   1_554 S
C382   Cl404   1.769   .     S
C382   N387    1.353   .     A
C382   C798    1.431   .     S
C383   N387    1.402   .     A
C383   S405    1.801   .     S
C383   C795    1.431   .     S
C384   N388    1.402   .     A
C384   S410    1.801   .     S
C384   C1210   1.431   1_554 S
N387   Zn397   2.033   .     S
N388   Zn398   2.033   .     S
O389   Zn397   1.997   .     S
O390   Zn398   1.997   .     S
O391   Zn398   2.009   .     S
O392   Zn397   2.009   .     S
O393   Zn397   1.987   .     S
O394   Zn398   1.987   .     S
O395   Zn398   2.007   .     S
O396   Zn397   2.007   .     S
Cl399  C281    1.784   1_655 S
S405   O406    1.504   .     D
S405   O407    1.504   .     D
S405   O408    1.668   .     S
O408   H409    0.991   .     S
S410   O412    1.504   .     D
S410   O411    1.504   .     D
S410   O413    1.668   .     S
O413   H414    0.991   .     S
C415   O435    1.290   .     A
C415   O437    1.298   .     A
C415   C426    1.425   .     S
C416   O436    1.290   .     A
C416   C425    1.425   .     S
C416   O438    1.298   .     A
C417   O441    1.301   .     A
C417   O439    1.281   .     A
C417   C419    1.414   .     S
C418   O440    1.281   .     A
C418   O442    1.301   .     A
C418   C420    1.414   .     S
C419   C512    1.361   1_455 S
C419   Cl537   1.784   1_455 S
C420   C465    1.361   .     S
C420   Cl492   1.784   .     S
C421   C426    1.395   .     A
C421   H431    1.078   .     S
C421   C699    1.371   1_545 S
C422   H432    1.078   .     S
C422   C425    1.395   .     A
C422   C562    1.371   .     S
C423   C425    1.406   .     A
C423   Cl447   1.768   .     S
C423   C559    1.371   .     S
C424   C426    1.406   .     A
C424   Cl448   1.768   .     S
C424   C698    1.371   1_545 S
C427   N434    1.353   .     A
C427   Cl449   1.769   .     S
C428   Cl450   1.769   .     S
C428   N433    1.353   .     A
C428   C844    1.431   .     S
C429   N433    1.402   .     A
C429   S451    1.801   .     S
C429   C841    1.431   .     S
C430   N434    1.402   .     A
C430   S456    1.801   .     S
N433   Zn443   2.033   .     S
N434   Zn444   2.033   .     S
O435   Zn443   1.997   .     S
O436   Zn444   1.997   .     S
O437   Zn444   2.009   .     S
O438   Zn443   2.009   .     S
O439   Zn443   1.987   .     S
O440   Zn444   1.987   .     S
O441   Zn444   2.007   .     S
O442   Zn443   2.007   .     S
Cl445  C465    1.784   .     S
Cl446  C512    1.784   1_455 S
S451   O452    1.504   .     D
S451   O453    1.504   .     D
S451   O454    1.668   .     S
O454   H455    0.991   .     S
S456   O458    1.504   .     D
S456   O457    1.504   .     D
S456   O459    1.668   .     S
O459   H460    0.991   .     S
C461   O481    1.290   .     A
C461   O483    1.298   .     A
C461   C472    1.425   .     S
C462   O482    1.290   .     A
C462   C471    1.425   .     S
C462   O484    1.298   .     A
C463   O487    1.301   .     A
C463   O485    1.281   .     A
C463   C465    1.414   .     S
C464   O486    1.281   .     A
C464   O488    1.301   .     A
C464   C466    1.414   .     S
C466   C511    1.361   .     S
C466   Cl538   1.784   .     S
C467   C472    1.395   .     A
C467   H477    1.078   .     S
C467   C745    1.371   1_545 S
C468   H478    1.078   .     S
C468   C471    1.395   .     A
C468   C608    1.371   .     S
C469   C471    1.406   .     A
C469   Cl493   1.768   .     S
C469   C605    1.371   .     S
C470   C472    1.406   .     A
C470   Cl494   1.768   .     S
C470   C744    1.371   1_545 S
C473   N480    1.353   .     A
C473   Cl495   1.769   .     S
C474   Cl496   1.769   .     S
C474   N479    1.353   .     A
C474   C890    1.431   .     S
C475   N479    1.402   .     A
C475   S497    1.801   .     S
C475   C887    1.431   .     S
C476   N480    1.402   .     A
C476   S502    1.801   .     S
N479   Zn489   2.033   .     S
N480   Zn490   2.033   .     S
O481   Zn489   1.997   .     S
O482   Zn490   1.997   .     S
O483   Zn490   2.009   .     S
O484   Zn489   2.009   .     S
O485   Zn489   1.987   .     S
O486   Zn490   1.987   .     S
O487   Zn490   2.007   .     S
O488   Zn489   2.007   .     S
Cl491  C511    1.784   .     S
S497   O498    1.504   .     D
S497   O499    1.504   .     D
S497   O500    1.668   .     S
O500   H501    0.991   .     S
S502   O504    1.504   .     D
S502   O503    1.504   .     D
S502   O505    1.668   .     S
O505   H506    0.991   .     S
C507   O527    1.290   .     A
C507   O529    1.298   .     A
C507   C518    1.425   .     S
C508   O528    1.290   .     A
C508   C517    1.425   .     S
C508   O530    1.298   .     A
C509   O533    1.301   .     A
C509   O531    1.281   .     A
C509   C511    1.414   .     S
C510   O532    1.281   .     A
C510   O534    1.301   .     A
C510   C512    1.414   .     S
C512   C419    1.361   1_655 S
C512   Cl446   1.784   1_655 S
C513   C518    1.395   .     A
C513   H523    1.078   .     S
C513   C791    1.371   1_545 S
C514   H524    1.078   .     S
C514   C517    1.395   .     A
C514   C654    1.371   .     S
C515   C517    1.406   .     A
C515   Cl539   1.768   .     S
C515   C651    1.371   .     S
C516   C518    1.406   .     A
C516   Cl540   1.768   .     S
C516   C790    1.371   1_545 S
C519   N526    1.353   .     A
C519   Cl541   1.769   .     S
C520   Cl542   1.769   .     S
C520   N525    1.353   .     A
C520   C936    1.431   .     S
C521   N525    1.402   .     A
C521   S543    1.801   .     S
C521   C933    1.431   .     S
C522   N526    1.402   .     A
C522   S548    1.801   .     S
N525   Zn535   2.033   .     S
N526   Zn536   2.033   .     S
O527   Zn535   1.997   .     S
O528   Zn536   1.997   .     S
O529   Zn536   2.009   .     S
O530   Zn535   2.009   .     S
O531   Zn535   1.987   .     S
O532   Zn536   1.987   .     S
O533   Zn536   2.007   .     S
O534   Zn535   2.007   .     S
Cl537  C419    1.784   1_655 S
S543   O544    1.504   .     D
S543   O545    1.504   .     D
S543   O546    1.668   .     S
O546   H547    0.991   .     S
S548   O550    1.504   .     D
S548   O549    1.504   .     D
S548   O551    1.668   .     S
O551   H552    0.991   .     S
C553   O573    1.290   .     A
C553   O575    1.298   .     A
C553   C564    1.425   .     S
C554   O574    1.290   .     A
C554   C563    1.425   .     S
C554   O576    1.298   .     A
C555   O579    1.301   .     A
C555   O577    1.281   .     A
C555   C557    1.414   .     S
C556   O578    1.281   .     A
C556   O580    1.301   .     A
C556   C558    1.414   .     S
C557   C650    1.361   1_455 S
C557   Cl675   1.784   1_455 S
C558   C603    1.361   .     S
C558   Cl630   1.784   .     S
C559   C564    1.395   .     A
C559   H569    1.078   .     S
C560   H570    1.078   .     S
C560   C563    1.395   .     A
C560   C700    1.371   .     S
C561   C563    1.406   .     A
C561   Cl585   1.768   .     S
C561   C697    1.371   .     S
C562   C564    1.406   .     A
C562   Cl586   1.768   .     S
C565   N572    1.353   .     A
C565   Cl587   1.769   .     S
C566   Cl588   1.769   .     S
C566   N571    1.353   .     A
C566   C982    1.431   .     S
C567   N571    1.402   .     A
C567   S589    1.801   .     S
C567   C979    1.431   .     S
C568   N572    1.402   .     A
C568   S594    1.801   .     S
N571   Zn581   2.033   .     S
N572   Zn582   2.033   .     S
O573   Zn581   1.997   .     S
O574   Zn582   1.997   .     S
O575   Zn582   2.009   .     S
O576   Zn581   2.009   .     S
O577   Zn581   1.987   .     S
O578   Zn582   1.987   .     S
O579   Zn582   2.007   .     S
O580   Zn581   2.007   .     S
Cl583  C603    1.784   .     S
Cl584  C650    1.784   1_455 S
S589   O590    1.504   .     D
S589   O591    1.504   .     D
S589   O592    1.668   .     S
O592   H593    0.991   .     S
S594   O596    1.504   .     D
S594   O595    1.504   .     D
S594   O597    1.668   .     S
O597   H598    0.991   .     S
C599   O619    1.290   .     A
C599   O621    1.298   .     A
C599   C610    1.425   .     S
C600   O620    1.290   .     A
C600   C609    1.425   .     S
C600   O622    1.298   .     A
C601   O625    1.301   .     A
C601   O623    1.281   .     A
C601   C603    1.414   .     S
C602   O624    1.281   .     A
C602   O626    1.301   .     A
C602   C604    1.414   .     S
C604   C649    1.361   .     S
C604   Cl676   1.784   .     S
C605   C610    1.395   .     A
C605   H615    1.078   .     S
C606   H616    1.078   .     S
C606   C609    1.395   .     A
C606   C746    1.371   .     S
C607   C609    1.406   .     A
C607   Cl631   1.768   .     S
C607   C743    1.371   .     S
C608   C610    1.406   .     A
C608   Cl632   1.768   .     S
C611   N618    1.353   .     A
C611   Cl633   1.769   .     S
C612   Cl634   1.769   .     S
C612   N617    1.353   .     A
C612   C1028   1.431   .     S
C613   N617    1.402   .     A
C613   S635    1.801   .     S
C613   C1025   1.431   .     S
C614   N618    1.402   .     A
C614   S640    1.801   .     S
N617   Zn627   2.033   .     S
N618   Zn628   2.033   .     S
O619   Zn627   1.997   .     S
O620   Zn628   1.997   .     S
O621   Zn628   2.009   .     S
O622   Zn627   2.009   .     S
O623   Zn627   1.987   .     S
O624   Zn628   1.987   .     S
O625   Zn628   2.007   .     S
O626   Zn627   2.007   .     S
Cl629  C649    1.784   .     S
S635   O636    1.504   .     D
S635   O637    1.504   .     D
S635   O638    1.668   .     S
O638   H639    0.991   .     S
S640   O642    1.504   .     D
S640   O641    1.504   .     D
S640   O643    1.668   .     S
O643   H644    0.991   .     S
C645   O665    1.290   .     A
C645   O667    1.298   .     A
C645   C656    1.425   .     S
C646   O666    1.290   .     A
C646   C655    1.425   .     S
C646   O668    1.298   .     A
C647   O671    1.301   .     A
C647   O669    1.281   .     A
C647   C649    1.414   .     S
C648   O670    1.281   .     A
C648   O672    1.301   .     A
C648   C650    1.414   .     S
C650   C557    1.361   1_655 S
C650   Cl584   1.784   1_655 S
C651   C656    1.395   .     A
C651   H661    1.078   .     S
C652   H662    1.078   .     S
C652   C655    1.395   .     A
C652   C792    1.371   .     S
C653   C655    1.406   .     A
C653   Cl677   1.768   .     S
C653   C789    1.371   .     S
C654   C656    1.406   .     A
C654   Cl678   1.768   .     S
C657   N664    1.353   .     A
C657   Cl679   1.769   .     S
C658   Cl680   1.769   .     S
C658   N663    1.353   .     A
C658   C1074   1.431   .     S
C659   N663    1.402   .     A
C659   S681    1.801   .     S
C659   C1071   1.431   .     S
C660   N664    1.402   .     A
C660   S686    1.801   .     S
N663   Zn673   2.033   .     S
N664   Zn674   2.033   .     S
O665   Zn673   1.997   .     S
O666   Zn674   1.997   .     S
O667   Zn674   2.009   .     S
O668   Zn673   2.009   .     S
O669   Zn673   1.987   .     S
O670   Zn674   1.987   .     S
O671   Zn674   2.007   .     S
O672   Zn673   2.007   .     S
Cl675  C557    1.784   1_655 S
S681   O682    1.504   .     D
S681   O683    1.504   .     D
S681   O684    1.668   .     S
O684   H685    0.991   .     S
S686   O688    1.504   .     D
S686   O687    1.504   .     D
S686   O689    1.668   .     S
O689   H690    0.991   .     S
C691   O711    1.290   .     A
C691   O713    1.298   .     A
C691   C702    1.425   .     S
C692   O712    1.290   .     A
C692   C701    1.425   .     S
C692   O714    1.298   .     A
C693   O717    1.301   .     A
C693   O715    1.281   .     A
C693   C695    1.414   .     S
C694   O716    1.281   .     A
C694   O718    1.301   .     A
C694   C696    1.414   .     S
C695   C788    1.361   1_455 S
C695   Cl813   1.784   1_455 S
C696   C741    1.361   .     S
C696   Cl768   1.784   .     S
C697   C702    1.395   .     A
C697   H707    1.078   .     S
C698   H708    1.078   .     S
C698   C701    1.395   .     A
C698   C424    1.371   1_565 S
C699   C701    1.406   .     A
C699   Cl723   1.768   .     S
C699   C421    1.371   1_565 S
C700   C702    1.406   .     A
C700   Cl724   1.768   .     S
C703   N710    1.353   .     A
C703   Cl725   1.769   .     S
C704   Cl726   1.769   .     S
C704   N709    1.353   .     A
C704   C1120   1.431   .     S
C705   N709    1.402   .     A
C705   S727    1.801   .     S
C705   C1117   1.431   .     S
C706   N710    1.402   .     A
C706   S732    1.801   .     S
N709   Zn719   2.033   .     S
N710   Zn720   2.033   .     S
O711   Zn719   1.997   .     S
O712   Zn720   1.997   .     S
O713   Zn720   2.009   .     S
O714   Zn719   2.009   .     S
O715   Zn719   1.987   .     S
O716   Zn720   1.987   .     S
O717   Zn720   2.007   .     S
O718   Zn719   2.007   .     S
Cl721  C741    1.784   .     S
Cl722  C788    1.784   1_455 S
S727   O728    1.504   .     D
S727   O729    1.504   .     D
S727   O730    1.668   .     S
O730   H731    0.991   .     S
S732   O734    1.504   .     D
S732   O733    1.504   .     D
S732   O735    1.668   .     S
O735   H736    0.991   .     S
C737   O757    1.290   .     A
C737   O759    1.298   .     A
C737   C748    1.425   .     S
C738   O758    1.290   .     A
C738   C747    1.425   .     S
C738   O760    1.298   .     A
C739   O763    1.301   .     A
C739   O761    1.281   .     A
C739   C741    1.414   .     S
C740   O762    1.281   .     A
C740   O764    1.301   .     A
C740   C742    1.414   .     S
C742   C787    1.361   .     S
C742   Cl814   1.784   .     S
C743   C748    1.395   .     A
C743   H753    1.078   .     S
C744   H754    1.078   .     S
C744   C747    1.395   .     A
C744   C470    1.371   1_565 S
C745   C747    1.406   .     A
C745   Cl769   1.768   .     S
C745   C467    1.371   1_565 S
C746   C748    1.406   .     A
C746   Cl770   1.768   .     S
C749   N756    1.353   .     A
C749   Cl771   1.769   .     S
C750   Cl772   1.769   .     S
C750   N755    1.353   .     A
C750   C1166   1.431   .     S
C751   N755    1.402   .     A
C751   S773    1.801   .     S
C751   C1163   1.431   .     S
C752   N756    1.402   .     A
C752   S778    1.801   .     S
N755   Zn765   2.033   .     S
N756   Zn766   2.033   .     S
O757   Zn765   1.997   .     S
O758   Zn766   1.997   .     S
O759   Zn766   2.009   .     S
O760   Zn765   2.009   .     S
O761   Zn765   1.987   .     S
O762   Zn766   1.987   .     S
O763   Zn766   2.007   .     S
O764   Zn765   2.007   .     S
Cl767  C787    1.784   .     S
S773   O774    1.504   .     D
S773   O775    1.504   .     D
S773   O776    1.668   .     S
O776   H777    0.991   .     S
S778   O780    1.504   .     D
S778   O779    1.504   .     D
S778   O781    1.668   .     S
O781   H782    0.991   .     S
C783   O803    1.290   .     A
C783   O805    1.298   .     A
C783   C794    1.425   .     S
C784   O804    1.290   .     A
C784   C793    1.425   .     S
C784   O806    1.298   .     A
C785   O809    1.301   .     A
C785   O807    1.281   .     A
C785   C787    1.414   .     S
C786   O808    1.281   .     A
C786   O810    1.301   .     A
C786   C788    1.414   .     S
C788   C695    1.361   1_655 S
C788   Cl722   1.784   1_655 S
C789   C794    1.395   .     A
C789   H799    1.078   .     S
C790   H800    1.078   .     S
C790   C793    1.395   .     A
C790   C516    1.371   1_565 S
C791   C793    1.406   .     A
C791   Cl815   1.768   .     S
C791   C513    1.371   1_565 S
C792   C794    1.406   .     A
C792   Cl816   1.768   .     S
C795   N802    1.353   .     A
C795   Cl817   1.769   .     S
C796   Cl818   1.769   .     S
C796   N801    1.353   .     A
C796   C1212   1.431   .     S
C797   N801    1.402   .     A
C797   S819    1.801   .     S
C797   C1209   1.431   .     S
C798   N802    1.402   .     A
C798   S824    1.801   .     S
N801   Zn811   2.033   .     S
N802   Zn812   2.033   .     S
O803   Zn811   1.997   .     S
O804   Zn812   1.997   .     S
O805   Zn812   2.009   .     S
O806   Zn811   2.009   .     S
O807   Zn811   1.987   .     S
O808   Zn812   1.987   .     S
O809   Zn812   2.007   .     S
O810   Zn811   2.007   .     S
Cl813  C695    1.784   1_655 S
S819   O820    1.504   .     D
S819   O821    1.504   .     D
S819   O822    1.668   .     S
O822   H823    0.991   .     S
S824   O826    1.504   .     D
S824   O825    1.504   .     D
S824   O827    1.668   .     S
O827   H828    0.991   .     S
C829   O849    1.290   .     A
C829   O851    1.298   .     A
C829   C840    1.425   .     S
C830   O850    1.290   .     A
C830   C839    1.425   .     S
C830   O852    1.298   .     A
C831   O855    1.301   .     A
C831   O853    1.281   .     A
C831   C833    1.414   .     S
C832   O854    1.281   .     A
C832   O856    1.301   .     A
C832   C834    1.414   .     S
C833   C926    1.361   1_455 S
C833   Cl951   1.784   1_455 S
C834   C879    1.361   .     S
C834   Cl906   1.784   .     S
C835   C840    1.395   .     A
C835   H845    1.078   .     S
C835   C1113   1.371   1_545 S
C836   H846    1.078   .     S
C836   C839    1.395   .     A
C836   C976    1.371   .     S
C837   C839    1.406   .     A
C837   Cl861   1.768   .     S
C837   C973    1.371   .     S
C838   C840    1.406   .     A
C838   Cl862   1.768   .     S
C838   C1112   1.371   1_545 S
C841   N848    1.353   .     A
C841   Cl863   1.769   .     S
C842   Cl864   1.769   .     S
C842   N847    1.353   .     A
C842   C16     1.431   1_556 S
C843   N847    1.402   .     A
C843   S865    1.801   .     S
C843   C13     1.431   1_556 S
C844   N848    1.402   .     A
C844   S870    1.801   .     S
N847   Zn857   2.033   .     S
N848   Zn858   2.033   .     S
O849   Zn857   1.997   .     S
O850   Zn858   1.997   .     S
O851   Zn858   2.009   .     S
O852   Zn857   2.009   .     S
O853   Zn857   1.987   .     S
O854   Zn858   1.987   .     S
O855   Zn858   2.007   .     S
O856   Zn857   2.007   .     S
Cl859  C879    1.784   .     S
Cl860  C926    1.784   1_455 S
S865   O866    1.504   .     D
S865   O867    1.504   .     D
S865   O868    1.668   .     S
O868   H869    0.991   .     S
S870   O872    1.504   .     D
S870   O871    1.504   .     D
S870   O873    1.668   .     S
O873   H874    0.991   .     S
C875   O895    1.290   .     A
C875   O897    1.298   .     A
C875   C886    1.425   .     S
C876   O896    1.290   .     A
C876   C885    1.425   .     S
C876   O898    1.298   .     A
C877   O901    1.301   .     A
C877   O899    1.281   .     A
C877   C879    1.414   .     S
C878   O900    1.281   .     A
C878   O902    1.301   .     A
C878   C880    1.414   .     S
C880   C925    1.361   .     S
C880   Cl952   1.784   .     S
C881   C886    1.395   .     A
C881   H891    1.078   .     S
C881   C1159   1.371   1_545 S
C882   H892    1.078   .     S
C882   C885    1.395   .     A
C882   C1022   1.371   .     S
C883   C885    1.406   .     A
C883   Cl907   1.768   .     S
C883   C1019   1.371   .     S
C884   C886    1.406   .     A
C884   Cl908   1.768   .     S
C884   C1158   1.371   1_545 S
C887   N894    1.353   .     A
C887   Cl909   1.769   .     S
C888   Cl910   1.769   .     S
C888   N893    1.353   .     A
C888   C62     1.431   1_556 S
C889   N893    1.402   .     A
C889   S911    1.801   .     S
C889   C59     1.431   1_556 S
C890   N894    1.402   .     A
C890   S916    1.801   .     S
N893   Zn903   2.033   .     S
N894   Zn904   2.033   .     S
O895   Zn903   1.997   .     S
O896   Zn904   1.997   .     S
O897   Zn904   2.009   .     S
O898   Zn903   2.009   .     S
O899   Zn903   1.987   .     S
O900   Zn904   1.987   .     S
O901   Zn904   2.007   .     S
O902   Zn903   2.007   .     S
Cl905  C925    1.784   .     S
S911   O912    1.504   .     D
S911   O913    1.504   .     D
S911   O914    1.668   .     S
O914   H915    0.991   .     S
S916   O918    1.504   .     D
S916   O917    1.504   .     D
S916   O919    1.668   .     S
O919   H920    0.991   .     S
C921   O941    1.290   .     A
C921   O943    1.298   .     A
C921   C932    1.425   .     S
C922   O942    1.290   .     A
C922   C931    1.425   .     S
C922   O944    1.298   .     A
C923   O947    1.301   .     A
C923   O945    1.281   .     A
C923   C925    1.414   .     S
C924   O946    1.281   .     A
C924   O948    1.301   .     A
C924   C926    1.414   .     S
C926   C833    1.361   1_655 S
C926   Cl860   1.784   1_655 S
C927   C932    1.395   .     A
C927   H937    1.078   .     S
C927   C1205   1.371   1_545 S
C928   H938    1.078   .     S
C928   C931    1.395   .     A
C928   C1068   1.371   .     S
C929   C931    1.406   .     A
C929   Cl953   1.768   .     S
C929   C1065   1.371   .     S
C930   C932    1.406   .     A
C930   Cl954   1.768   .     S
C930   C1204   1.371   1_545 S
C933   N940    1.353   .     A
C933   Cl955   1.769   .     S
C934   Cl956   1.769   .     S
C934   N939    1.353   .     A
C934   C108    1.431   1_556 S
C935   N939    1.402   .     A
C935   S957    1.801   .     S
C935   C105    1.431   1_556 S
C936   N940    1.402   .     A
C936   S962    1.801   .     S
N939   Zn949   2.033   .     S
N940   Zn950   2.033   .     S
O941   Zn949   1.997   .     S
O942   Zn950   1.997   .     S
O943   Zn950   2.009   .     S
O944   Zn949   2.009   .     S
O945   Zn949   1.987   .     S
O946   Zn950   1.987   .     S
O947   Zn950   2.007   .     S
O948   Zn949   2.007   .     S
Cl951  C833    1.784   1_655 S
S957   O958    1.504   .     D
S957   O959    1.504   .     D
S957   O960    1.668   .     S
O960   H961    0.991   .     S
S962   O964    1.504   .     D
S962   O963    1.504   .     D
S962   O965    1.668   .     S
O965   H966    0.991   .     S
C967   O987    1.290   .     A
C967   O989    1.298   .     A
C967   C978    1.425   .     S
C968   O988    1.290   .     A
C968   C977    1.425   .     S
C968   O990    1.298   .     A
C969   O993    1.301   .     A
C969   O991    1.281   .     A
C969   C971    1.414   .     S
C970   O992    1.281   .     A
C970   O994    1.301   .     A
C970   C972    1.414   .     S
C971   C1064   1.361   1_455 S
C971   Cl1089  1.784   1_455 S
C972   C1017   1.361   .     S
C972   Cl1044  1.784   .     S
C973   C978    1.395   .     A
C973   H983    1.078   .     S
C974   H984    1.078   .     S
C974   C977    1.395   .     A
C974   C1114   1.371   .     S
C975   C977    1.406   .     A
C975   Cl999   1.768   .     S
C975   C1111   1.371   .     S
C976   C978    1.406   .     A
C976   Cl1000  1.768   .     S
C979   N986    1.353   .     A
C979   Cl1001  1.769   .     S
C980   Cl1002  1.769   .     S
C980   N985    1.353   .     A
C980   C154    1.431   1_556 S
C981   N985    1.402   .     A
C981   S1003   1.801   .     S
C981   C151    1.431   1_556 S
C982   N986    1.402   .     A
C982   S1008   1.801   .     S
N985   Zn995   2.033   .     S
N986   Zn996   2.033   .     S
O987   Zn995   1.997   .     S
O988   Zn996   1.997   .     S
O989   Zn996   2.009   .     S
O990   Zn995   2.009   .     S
O991   Zn995   1.987   .     S
O992   Zn996   1.987   .     S
O993   Zn996   2.007   .     S
O994   Zn995   2.007   .     S
Cl997  C1017   1.784   .     S
Cl998  C1064   1.784   1_455 S
S1003  O1004   1.504   .     D
S1003  O1005   1.504   .     D
S1003  O1006   1.668   .     S
O1006  H1007   0.991   .     S
S1008  O1010   1.504   .     D
S1008  O1009   1.504   .     D
S1008  O1011   1.668   .     S
O1011  H1012   0.991   .     S
C1013  O1033   1.290   .     A
C1013  O1035   1.298   .     A
C1013  C1024   1.425   .     S
C1014  O1034   1.290   .     A
C1014  C1023   1.425   .     S
C1014  O1036   1.298   .     A
C1015  O1039   1.301   .     A
C1015  O1037   1.281   .     A
C1015  C1017   1.414   .     S
C1016  O1038   1.281   .     A
C1016  O1040   1.301   .     A
C1016  C1018   1.414   .     S
C1018  C1063   1.361   .     S
C1018  Cl1090  1.784   .     S
C1019  C1024   1.395   .     A
C1019  H1029   1.078   .     S
C1020  H1030   1.078   .     S
C1020  C1023   1.395   .     A
C1020  C1160   1.371   .     S
C1021  C1023   1.406   .     A
C1021  Cl1045  1.768   .     S
C1021  C1157   1.371   .     S
C1022  C1024   1.406   .     A
C1022  Cl1046  1.768   .     S
C1025  N1032   1.353   .     A
C1025  Cl1047  1.769   .     S
C1026  Cl1048  1.769   .     S
C1026  N1031   1.353   .     A
C1026  C200    1.431   1_556 S
C1027  N1031   1.402   .     A
C1027  S1049   1.801   .     S
C1027  C197    1.431   1_556 S
C1028  N1032   1.402   .     A
C1028  S1054   1.801   .     S
N1031  Zn1041  2.033   .     S
N1032  Zn1042  2.033   .     S
O1033  Zn1041  1.997   .     S
O1034  Zn1042  1.997   .     S
O1035  Zn1042  2.009   .     S
O1036  Zn1041  2.009   .     S
O1037  Zn1041  1.987   .     S
O1038  Zn1042  1.987   .     S
O1039  Zn1042  2.007   .     S
O1040  Zn1041  2.007   .     S
Cl1043 C1063   1.784   .     S
S1049  O1050   1.504   .     D
S1049  O1051   1.504   .     D
S1049  O1052   1.668   .     S
O1052  H1053   0.991   .     S
S1054  O1056   1.504   .     D
S1054  O1055   1.504   .     D
S1054  O1057   1.668   .     S
O1057  H1058   0.991   .     S
C1059  O1079   1.290   .     A
C1059  O1081   1.298   .     A
C1059  C1070   1.425   .     S
C1060  O1080   1.290   .     A
C1060  C1069   1.425   .     S
C1060  O1082   1.298   .     A
C1061  O1085   1.301   .     A
C1061  O1083   1.281   .     A
C1061  C1063   1.414   .     S
C1062  O1084   1.281   .     A
C1062  O1086   1.301   .     A
C1062  C1064   1.414   .     S
C1064  C971    1.361   1_655 S
C1064  Cl998   1.784   1_655 S
C1065  C1070   1.395   .     A
C1065  H1075   1.078   .     S
C1066  H1076   1.078   .     S
C1066  C1069   1.395   .     A
C1066  C1206   1.371   .     S
C1067  C1069   1.406   .     A
C1067  Cl1091  1.768   .     S
C1067  C1203   1.371   .     S
C1068  C1070   1.406   .     A
C1068  Cl1092  1.768   .     S
C1071  N1078   1.353   .     A
C1071  Cl1093  1.769   .     S
C1072  Cl1094  1.769   .     S
C1072  N1077   1.353   .     A
C1072  C246    1.431   1_556 S
C1073  N1077   1.402   .     A
C1073  S1095   1.801   .     S
C1073  C243    1.431   1_556 S
C1074  N1078   1.402   .     A
C1074  S1100   1.801   .     S
N1077  Zn1087  2.033   .     S
N1078  Zn1088  2.033   .     S
O1079  Zn1087  1.997   .     S
O1080  Zn1088  1.997   .     S
O1081  Zn1088  2.009   .     S
O1082  Zn1087  2.009   .     S
O1083  Zn1087  1.987   .     S
O1084  Zn1088  1.987   .     S
O1085  Zn1088  2.007   .     S
O1086  Zn1087  2.007   .     S
Cl1089 C971    1.784   1_655 S
S1095  O1096   1.504   .     D
S1095  O1097   1.504   .     D
S1095  O1098   1.668   .     S
O1098  H1099   0.991   .     S
S1100  O1102   1.504   .     D
S1100  O1101   1.504   .     D
S1100  O1103   1.668   .     S
O1103  H1104   0.991   .     S
C1105  O1125   1.290   .     A
C1105  O1127   1.298   .     A
C1105  C1116   1.425   .     S
C1106  O1126   1.290   .     A
C1106  C1115   1.425   .     S
C1106  O1128   1.298   .     A
C1107  O1131   1.301   .     A
C1107  O1129   1.281   .     A
C1107  C1109   1.414   .     S
C1108  O1130   1.281   .     A
C1108  O1132   1.301   .     A
C1108  C1110   1.414   .     S
C1109  C1202   1.361   1_455 S
C1109  Cl1227  1.784   1_455 S
C1110  C1155   1.361   .     S
C1110  Cl1182  1.784   .     S
C1111  C1116   1.395   .     A
C1111  H1121   1.078   .     S
C1112  H1122   1.078   .     S
C1112  C1115   1.395   .     A
C1112  C838    1.371   1_565 S
C1113  C1115   1.406   .     A
C1113  Cl1137  1.768   .     S
C1113  C835    1.371   1_565 S
C1114  C1116   1.406   .     A
C1114  Cl1138  1.768   .     S
C1117  N1124   1.353   .     A
C1117  Cl1139  1.769   .     S
C1118  Cl1140  1.769   .     S
C1118  N1123   1.353   .     A
C1118  C292    1.431   1_556 S
C1119  N1123   1.402   .     A
C1119  S1141   1.801   .     S
C1119  C289    1.431   1_556 S
C1120  N1124   1.402   .     A
C1120  S1146   1.801   .     S
N1123  Zn1133  2.033   .     S
N1124  Zn1134  2.033   .     S
O1125  Zn1133  1.997   .     S
O1126  Zn1134  1.997   .     S
O1127  Zn1134  2.009   .     S
O1128  Zn1133  2.009   .     S
O1129  Zn1133  1.987   .     S
O1130  Zn1134  1.987   .     S
O1131  Zn1134  2.007   .     S
O1132  Zn1133  2.007   .     S
Cl1135 C1155   1.784   .     S
Cl1136 C1202   1.784   1_455 S
S1141  O1142   1.504   .     D
S1141  O1143   1.504   .     D
S1141  O1144   1.668   .     S
O1144  H1145   0.991   .     S
S1146  O1148   1.504   .     D
S1146  O1147   1.504   .     D
S1146  O1149   1.668   .     S
O1149  H1150   0.991   .     S
C1151  O1171   1.290   .     A
C1151  O1173   1.298   .     A
C1151  C1162   1.425   .     S
C1152  O1172   1.290   .     A
C1152  C1161   1.425   .     S
C1152  O1174   1.298   .     A
C1153  O1177   1.301   .     A
C1153  O1175   1.281   .     A
C1153  C1155   1.414   .     S
C1154  O1176   1.281   .     A
C1154  O1178   1.301   .     A
C1154  C1156   1.414   .     S
C1156  C1201   1.361   .     S
C1156  Cl1228  1.784   .     S
C1157  C1162   1.395   .     A
C1157  H1167   1.078   .     S
C1158  H1168   1.078   .     S
C1158  C1161   1.395   .     A
C1158  C884    1.371   1_565 S
C1159  C1161   1.406   .     A
C1159  Cl1183  1.768   .     S
C1159  C881    1.371   1_565 S
C1160  C1162   1.406   .     A
C1160  Cl1184  1.768   .     S
C1163  N1170   1.353   .     A
C1163  Cl1185  1.769   .     S
C1164  Cl1186  1.769   .     S
C1164  N1169   1.353   .     A
C1164  C338    1.431   1_556 S
C1165  N1169   1.402   .     A
C1165  S1187   1.801   .     S
C1165  C335    1.431   1_556 S
C1166  N1170   1.402   .     A
C1166  S1192   1.801   .     S
N1169  Zn1179  2.033   .     S
N1170  Zn1180  2.033   .     S
O1171  Zn1179  1.997   .     S
O1172  Zn1180  1.997   .     S
O1173  Zn1180  2.009   .     S
O1174  Zn1179  2.009   .     S
O1175  Zn1179  1.987   .     S
O1176  Zn1180  1.987   .     S
O1177  Zn1180  2.007   .     S
O1178  Zn1179  2.007   .     S
Cl1181 C1201   1.784   .     S
S1187  O1188   1.504   .     D
S1187  O1189   1.504   .     D
S1187  O1190   1.668   .     S
O1190  H1191   0.991   .     S
S1192  O1194   1.504   .     D
S1192  O1193   1.504   .     D
S1192  O1195   1.668   .     S
O1195  H1196   0.991   .     S
C1197  O1217   1.290   .     A
C1197  O1219   1.298   .     A
C1197  C1208   1.425   .     S
C1198  O1218   1.290   .     A
C1198  C1207   1.425   .     S
C1198  O1220   1.298   .     A
C1199  O1223   1.301   .     A
C1199  O1221   1.281   .     A
C1199  C1201   1.414   .     S
C1200  O1222   1.281   .     A
C1200  O1224   1.301   .     A
C1200  C1202   1.414   .     S
C1202  C1109   1.361   1_655 S
C1202  Cl1136  1.784   1_655 S
C1203  C1208   1.395   .     A
C1203  H1213   1.078   .     S
C1204  H1214   1.078   .     S
C1204  C1207   1.395   .     A
C1204  C930    1.371   1_565 S
C1205  C1207   1.406   .     A
C1205  Cl1229  1.768   .     S
C1205  C927    1.371   1_565 S
C1206  C1208   1.406   .     A
C1206  Cl1230  1.768   .     S
C1209  N1216   1.353   .     A
C1209  Cl1231  1.769   .     S
C1210  Cl1232  1.769   .     S
C1210  N1215   1.353   .     A
C1210  C384    1.431   1_556 S
C1211  N1215   1.402   .     A
C1211  S1233   1.801   .     S
C1211  C381    1.431   1_556 S
C1212  N1216   1.402   .     A
C1212  S1238   1.801   .     S
N1215  Zn1225  2.033   .     S
N1216  Zn1226  2.033   .     S
O1217  Zn1225  1.997   .     S
O1218  Zn1226  1.997   .     S
O1219  Zn1226  2.009   .     S
O1220  Zn1225  2.009   .     S
O1221  Zn1225  1.987   .     S
O1222  Zn1226  1.987   .     S
O1223  Zn1226  2.007   .     S
O1224  Zn1225  2.007   .     S
Cl1227 C1109   1.784   1_655 S
S1233  O1234   1.504   .     D
S1233  O1235   1.504   .     D
S1233  O1236   1.668   .     S
O1236  H1237   0.991   .     S
S1238  O1240   1.504   .     D
S1238  O1239   1.504   .     D
S1238  O1241   1.668   .     S
O1241  H1242   0.991   .     S
