data_str_m3_o2_o5_pcu_sym.20
_audit_creation_date              2020-01-03
_audit_creation_method            'Materials Studio'
_symmetry_space_group_name_H-M    'P1'
_symmetry_Int_Tables_number       1
_symmetry_cell_setting            triclinic
loop_
_symmetry_equiv_pos_as_xyz
  x,y,z
_cell_length_a                    29.9822
_cell_length_b                    28.3693
_cell_length_c                    26.8282
_cell_angle_alpha                 89.7966
_cell_angle_beta                  90.0284
_cell_angle_gamma                 89.9143
loop_
_atom_site_label
_atom_site_type_symbol
_atom_site_fract_x
_atom_site_fract_y
_atom_site_fract_z
_atom_site_U_iso_or_equiv
_atom_site_adp_type
_atom_site_occupancy
C1     C     0.16421   0.25002   0.16659   0.00000  Uiso   1.00
C2     C     0.21634   0.44755   0.14240   0.00000  Uiso   1.00
C3     C     0.24995   0.25005   0.07283   0.00000  Uiso   1.00
C4     C     0.24998   0.24994   0.26050   0.00000  Uiso   1.00
C5     C     0.25017   0.02667   0.16663   0.00000  Uiso   1.00
C6     C     0.25015   0.47331   0.16663   0.00000  Uiso   1.00
C7     C     0.24992   0.25007   0.02176   0.00000  Uiso   1.00
C8     C     0.24993   0.24992   0.31157   0.00000  Uiso   1.00
C9     C     0.04749   0.24683   0.12139   0.00000  Uiso   1.00
C10    C     0.45329   0.22373   0.20231   0.00000  Uiso   1.00
C11    C     0.45310   0.27629   0.13075   0.00000  Uiso   1.00
C12    C     0.33596   0.24997   0.16667   0.00000  Uiso   1.00
C13    C     0.04752   0.25327   0.21170   0.00000  Uiso   1.00
C14    C     0.09373   0.24758   0.12080   0.00000  Uiso   1.00
C15    C     0.40708   0.22413   0.20365   0.00000  Uiso   1.00
C16    C     0.40688   0.27570   0.12944   0.00000  Uiso   1.00
C17    C     0.09375   0.25233   0.21231   0.00000  Uiso   1.00
C18    C     0.11660   0.25003   0.16655   0.00000  Uiso   1.00
C19    C     0.38383   0.24992   0.16658   0.00000  Uiso   1.00
C20    C     0.02450   0.25012   0.16654   0.00000  Uiso   1.00
C21    C     0.47617   0.25007   0.16655   0.00000  Uiso   1.00
C22    C     0.11772   0.24613   0.07122   0.00000  Uiso   1.00
C23    C     0.23286   0.10235   0.12705   0.00000  Uiso   1.00
C24    C     0.13081   0.29563   0.05418   0.00000  Uiso   1.00
C25    C     0.38426   0.19813   0.24608   0.00000  Uiso   1.00
C26    C     0.38311   0.14516   0.23641   0.00000  Uiso   1.00
C27    C     0.38382   0.30134   0.08684   0.00000  Uiso   1.00
C28    C     0.38195   0.35433   0.09628   0.00000  Uiso   1.00
C29    C     0.11776   0.25315   0.26191   0.00000  Uiso   1.00
C30    C     0.13069   0.20339   0.27849   0.00000  Uiso   1.00
C31    C     0.28311   0.39759   0.19057   0.00000  Uiso   1.00
C32    C     0.26713   0.10207   0.20631   0.00000  Uiso   1.00
C33    C     0.21696   0.39796   0.14278   0.00000  Uiso   1.00
C34    C     0.23274   0.05276   0.12621   0.00000  Uiso   1.00
C35    C     0.28390   0.44719   0.19089   0.00000  Uiso   1.00
C36    C     0.26750   0.05246   0.20709   0.00000  Uiso   1.00
H37    H     0.21926   0.12175   0.09575   0.00000  Uiso   1.00
H38    H     0.31119   0.46480   0.20948   0.00000  Uiso   1.00
H39    H     0.28069   0.03460   0.23962   0.00000  Uiso   1.00
H40    H     0.18907   0.46543   0.12382   0.00000  Uiso   1.00
H41    H     0.15030   0.31403   0.08325   0.00000  Uiso   1.00
H42    H     0.15181   0.29344   0.02025   0.00000  Uiso   1.00
H43    H     0.10047   0.31665   0.04560   0.00000  Uiso   1.00
H44    H     0.14781   0.22335   0.07360   0.00000  Uiso   1.00
H45    H     0.09584   0.23023   0.04241   0.00000  Uiso   1.00
H46    H     0.36555   0.12712   0.26750   0.00000  Uiso   1.00
H47    H     0.36518   0.13760   0.20112   0.00000  Uiso   1.00
H48    H     0.30921   0.37810   0.20941   0.00000  Uiso   1.00
H49    H     0.41752   0.13082   0.23393   0.00000  Uiso   1.00
H50    H     0.40259   0.20474   0.28141   0.00000  Uiso   1.00
H51    H     0.34984   0.21111   0.25260   0.00000  Uiso   1.00
H52    H     0.36403   0.37201   0.06516   0.00000  Uiso   1.00
H53    H     0.36401   0.36183   0.13155   0.00000  Uiso   1.00
H54    H     0.41617   0.36909   0.09862   0.00000  Uiso   1.00
H55    H     0.40229   0.29482   0.05159   0.00000  Uiso   1.00
H56    H     0.34960   0.28792   0.08028   0.00000  Uiso   1.00
H57    H     0.15023   0.18504   0.24935   0.00000  Uiso   1.00
H58    H     0.15156   0.20516   0.31257   0.00000  Uiso   1.00
H59    H     0.28051   0.12125   0.23769   0.00000  Uiso   1.00
H60    H     0.10026   0.18251   0.28675   0.00000  Uiso   1.00
H61    H     0.14792   0.27574   0.25979   0.00000  Uiso   1.00
H62    H     0.09592   0.26893   0.29084   0.00000  Uiso   1.00
H63    H     0.19077   0.37880   0.12402   0.00000  Uiso   1.00
H64    H     0.02938   0.24375   0.08658   0.00000  Uiso   1.00
H65    H     0.47149   0.20301   0.22962   0.00000  Uiso   1.00
H66    H     0.47115   0.29702   0.10339   0.00000  Uiso   1.00
H67    H     0.02943   0.25629   0.24652   0.00000  Uiso   1.00
H68    H     0.21960   0.03513   0.09367   0.00000  Uiso   1.00
N69    N     0.25000   0.12623   0.16667   0.00000  Uiso   1.00
N70    N     0.25000   0.37376   0.16667   0.00000  Uiso   1.00
O71    O     0.18453   0.28974   0.16667   0.00000  Uiso   1.00
O72    O     0.31547   0.21026   0.16666   0.00000  Uiso   1.00
O73    O     0.31547   0.28974   0.16666   0.00000  Uiso   1.00
O74    O     0.18453   0.21026   0.16667   0.00000  Uiso   1.00
O75    O     0.25000   0.28973   0.09511   0.00000  Uiso   1.00
O76    O     0.25000   0.21027   0.23822   0.00000  Uiso   1.00
O77    O     0.25000   0.28973   0.23822   0.00000  Uiso   1.00
O78    O     0.25000   0.21027   0.09511   0.00000  Uiso   1.00
Zn79   Zn    0.25000   0.30307   0.16667   0.00000  Uiso   1.00
Zn80   Zn    0.25000   0.19693   0.16667   0.00000  Uiso   1.00
C81    C     0.66421   0.25002   0.16659   0.00000  Uiso   1.00
C82    C     0.71634   0.44755   0.14240   0.00000  Uiso   1.00
C83    C     0.74995   0.25005   0.07283   0.00000  Uiso   1.00
C84    C     0.74998   0.24994   0.26050   0.00000  Uiso   1.00
C85    C     0.75017   0.02667   0.16663   0.00000  Uiso   1.00
C86    C     0.75015   0.47331   0.16663   0.00000  Uiso   1.00
C87    C     0.74992   0.25007   0.02176   0.00000  Uiso   1.00
C88    C     0.74993   0.24992   0.31157   0.00000  Uiso   1.00
C89    C     0.54749   0.24683   0.12139   0.00000  Uiso   1.00
C90    C     0.95329   0.22373   0.20231   0.00000  Uiso   1.00
C91    C     0.95310   0.27629   0.13075   0.00000  Uiso   1.00
C92    C     0.83596   0.24997   0.16667   0.00000  Uiso   1.00
C93    C     0.54752   0.25327   0.21170   0.00000  Uiso   1.00
C94    C     0.59373   0.24758   0.12080   0.00000  Uiso   1.00
C95    C     0.90708   0.22413   0.20365   0.00000  Uiso   1.00
C96    C     0.90688   0.27570   0.12944   0.00000  Uiso   1.00
C97    C     0.59375   0.25233   0.21231   0.00000  Uiso   1.00
C98    C     0.61660   0.25003   0.16655   0.00000  Uiso   1.00
C99    C     0.88383   0.24992   0.16658   0.00000  Uiso   1.00
C100   C     0.52450   0.25012   0.16654   0.00000  Uiso   1.00
C101   C     0.97617   0.25007   0.16655   0.00000  Uiso   1.00
C102   C     0.61772   0.24613   0.07122   0.00000  Uiso   1.00
C103   C     0.73286   0.10235   0.12705   0.00000  Uiso   1.00
C104   C     0.63081   0.29563   0.05418   0.00000  Uiso   1.00
C105   C     0.88426   0.19813   0.24608   0.00000  Uiso   1.00
C106   C     0.88311   0.14516   0.23641   0.00000  Uiso   1.00
C107   C     0.88382   0.30134   0.08684   0.00000  Uiso   1.00
C108   C     0.88195   0.35433   0.09628   0.00000  Uiso   1.00
C109   C     0.61776   0.25315   0.26191   0.00000  Uiso   1.00
C110   C     0.63069   0.20339   0.27849   0.00000  Uiso   1.00
C111   C     0.78311   0.39759   0.19057   0.00000  Uiso   1.00
C112   C     0.76713   0.10207   0.20631   0.00000  Uiso   1.00
C113   C     0.71696   0.39796   0.14278   0.00000  Uiso   1.00
C114   C     0.73274   0.05276   0.12621   0.00000  Uiso   1.00
C115   C     0.78390   0.44719   0.19089   0.00000  Uiso   1.00
C116   C     0.76750   0.05246   0.20709   0.00000  Uiso   1.00
H117   H     0.71926   0.12175   0.09575   0.00000  Uiso   1.00
H118   H     0.81119   0.46480   0.20948   0.00000  Uiso   1.00
H119   H     0.78069   0.03460   0.23962   0.00000  Uiso   1.00
H120   H     0.68907   0.46543   0.12382   0.00000  Uiso   1.00
H121   H     0.65030   0.31403   0.08325   0.00000  Uiso   1.00
H122   H     0.65181   0.29344   0.02025   0.00000  Uiso   1.00
H123   H     0.60047   0.31665   0.04560   0.00000  Uiso   1.00
H124   H     0.64781   0.22335   0.07360   0.00000  Uiso   1.00
H125   H     0.59584   0.23023   0.04241   0.00000  Uiso   1.00
H126   H     0.86555   0.12712   0.26750   0.00000  Uiso   1.00
H127   H     0.86518   0.13760   0.20112   0.00000  Uiso   1.00
H128   H     0.80921   0.37810   0.20941   0.00000  Uiso   1.00
H129   H     0.91752   0.13082   0.23393   0.00000  Uiso   1.00
H130   H     0.90259   0.20474   0.28141   0.00000  Uiso   1.00
H131   H     0.84984   0.21111   0.25260   0.00000  Uiso   1.00
H132   H     0.86403   0.37201   0.06516   0.00000  Uiso   1.00
H133   H     0.86401   0.36183   0.13155   0.00000  Uiso   1.00
H134   H     0.91617   0.36909   0.09862   0.00000  Uiso   1.00
H135   H     0.90229   0.29482   0.05159   0.00000  Uiso   1.00
H136   H     0.84960   0.28792   0.08028   0.00000  Uiso   1.00
H137   H     0.65023   0.18504   0.24935   0.00000  Uiso   1.00
H138   H     0.65156   0.20516   0.31257   0.00000  Uiso   1.00
H139   H     0.78051   0.12125   0.23769   0.00000  Uiso   1.00
H140   H     0.60026   0.18251   0.28675   0.00000  Uiso   1.00
H141   H     0.64792   0.27574   0.25979   0.00000  Uiso   1.00
H142   H     0.59592   0.26893   0.29084   0.00000  Uiso   1.00
H143   H     0.69077   0.37880   0.12402   0.00000  Uiso   1.00
H144   H     0.52938   0.24375   0.08658   0.00000  Uiso   1.00
H145   H     0.97149   0.20301   0.22962   0.00000  Uiso   1.00
H146   H     0.97115   0.29702   0.10339   0.00000  Uiso   1.00
H147   H     0.52943   0.25629   0.24652   0.00000  Uiso   1.00
H148   H     0.71960   0.03513   0.09367   0.00000  Uiso   1.00
N149   N     0.75000   0.12623   0.16667   0.00000  Uiso   1.00
N150   N     0.75000   0.37376   0.16667   0.00000  Uiso   1.00
O151   O     0.68453   0.28974   0.16667   0.00000  Uiso   1.00
O152   O     0.81547   0.21026   0.16666   0.00000  Uiso   1.00
O153   O     0.81547   0.28974   0.16666   0.00000  Uiso   1.00
O154   O     0.68453   0.21026   0.16667   0.00000  Uiso   1.00
O155   O     0.75000   0.28973   0.09511   0.00000  Uiso   1.00
O156   O     0.75000   0.21027   0.23822   0.00000  Uiso   1.00
O157   O     0.75000   0.28973   0.23822   0.00000  Uiso   1.00
O158   O     0.75000   0.21027   0.09511   0.00000  Uiso   1.00
Zn159  Zn    0.75000   0.30307   0.16667   0.00000  Uiso   1.00
Zn160  Zn    0.75000   0.19693   0.16667   0.00000  Uiso   1.00
C161   C     0.16421   0.75002   0.16659   0.00000  Uiso   1.00
C162   C     0.21634   0.94755   0.14240   0.00000  Uiso   1.00
C163   C     0.24995   0.75005   0.07283   0.00000  Uiso   1.00
C164   C     0.24998   0.74994   0.26050   0.00000  Uiso   1.00
C165   C     0.25017   0.52667   0.16663   0.00000  Uiso   1.00
C166   C     0.25015   0.97331   0.16663   0.00000  Uiso   1.00
C167   C     0.24992   0.75007   0.02176   0.00000  Uiso   1.00
C168   C     0.24993   0.74992   0.31157   0.00000  Uiso   1.00
C169   C     0.04749   0.74683   0.12139   0.00000  Uiso   1.00
C170   C     0.45329   0.72373   0.20231   0.00000  Uiso   1.00
C171   C     0.45310   0.77629   0.13075   0.00000  Uiso   1.00
C172   C     0.33596   0.74997   0.16667   0.00000  Uiso   1.00
C173   C     0.04752   0.75327   0.21170   0.00000  Uiso   1.00
C174   C     0.09373   0.74758   0.12080   0.00000  Uiso   1.00
C175   C     0.40708   0.72413   0.20365   0.00000  Uiso   1.00
C176   C     0.40688   0.77570   0.12944   0.00000  Uiso   1.00
C177   C     0.09375   0.75233   0.21231   0.00000  Uiso   1.00
C178   C     0.11660   0.75003   0.16655   0.00000  Uiso   1.00
C179   C     0.38383   0.74992   0.16658   0.00000  Uiso   1.00
C180   C     0.02450   0.75012   0.16654   0.00000  Uiso   1.00
C181   C     0.47617   0.75007   0.16655   0.00000  Uiso   1.00
C182   C     0.11772   0.74613   0.07122   0.00000  Uiso   1.00
C183   C     0.23286   0.60235   0.12705   0.00000  Uiso   1.00
C184   C     0.13081   0.79563   0.05418   0.00000  Uiso   1.00
C185   C     0.38426   0.69813   0.24608   0.00000  Uiso   1.00
C186   C     0.38311   0.64516   0.23641   0.00000  Uiso   1.00
C187   C     0.38382   0.80134   0.08684   0.00000  Uiso   1.00
C188   C     0.38195   0.85433   0.09628   0.00000  Uiso   1.00
C189   C     0.11776   0.75315   0.26191   0.00000  Uiso   1.00
C190   C     0.13069   0.70339   0.27849   0.00000  Uiso   1.00
C191   C     0.28311   0.89759   0.19057   0.00000  Uiso   1.00
C192   C     0.26713   0.60207   0.20631   0.00000  Uiso   1.00
C193   C     0.21696   0.89796   0.14278   0.00000  Uiso   1.00
C194   C     0.23274   0.55276   0.12621   0.00000  Uiso   1.00
C195   C     0.28390   0.94719   0.19089   0.00000  Uiso   1.00
C196   C     0.26750   0.55246   0.20709   0.00000  Uiso   1.00
H197   H     0.21926   0.62175   0.09575   0.00000  Uiso   1.00
H198   H     0.31119   0.96480   0.20948   0.00000  Uiso   1.00
H199   H     0.28069   0.53460   0.23962   0.00000  Uiso   1.00
H200   H     0.18907   0.96543   0.12382   0.00000  Uiso   1.00
H201   H     0.15030   0.81403   0.08325   0.00000  Uiso   1.00
H202   H     0.15181   0.79344   0.02025   0.00000  Uiso   1.00
H203   H     0.10047   0.81665   0.04560   0.00000  Uiso   1.00
H204   H     0.14781   0.72335   0.07360   0.00000  Uiso   1.00
H205   H     0.09584   0.73023   0.04241   0.00000  Uiso   1.00
H206   H     0.36555   0.62712   0.26750   0.00000  Uiso   1.00
H207   H     0.36518   0.63760   0.20112   0.00000  Uiso   1.00
H208   H     0.30921   0.87810   0.20941   0.00000  Uiso   1.00
H209   H     0.41752   0.63082   0.23393   0.00000  Uiso   1.00
H210   H     0.40259   0.70474   0.28141   0.00000  Uiso   1.00
H211   H     0.34984   0.71111   0.25260   0.00000  Uiso   1.00
H212   H     0.36403   0.87201   0.06516   0.00000  Uiso   1.00
H213   H     0.36401   0.86183   0.13155   0.00000  Uiso   1.00
H214   H     0.41617   0.86909   0.09862   0.00000  Uiso   1.00
H215   H     0.40229   0.79482   0.05159   0.00000  Uiso   1.00
H216   H     0.34960   0.78792   0.08028   0.00000  Uiso   1.00
H217   H     0.15023   0.68504   0.24935   0.00000  Uiso   1.00
H218   H     0.15156   0.70516   0.31257   0.00000  Uiso   1.00
H219   H     0.28051   0.62125   0.23769   0.00000  Uiso   1.00
H220   H     0.10026   0.68251   0.28675   0.00000  Uiso   1.00
H221   H     0.14792   0.77574   0.25979   0.00000  Uiso   1.00
H222   H     0.09592   0.76893   0.29084   0.00000  Uiso   1.00
H223   H     0.19077   0.87880   0.12402   0.00000  Uiso   1.00
H224   H     0.02938   0.74375   0.08658   0.00000  Uiso   1.00
H225   H     0.47149   0.70301   0.22962   0.00000  Uiso   1.00
H226   H     0.47115   0.79702   0.10339   0.00000  Uiso   1.00
H227   H     0.02943   0.75629   0.24652   0.00000  Uiso   1.00
H228   H     0.21960   0.53513   0.09367   0.00000  Uiso   1.00
N229   N     0.25000   0.62623   0.16667   0.00000  Uiso   1.00
N230   N     0.25000   0.87376   0.16667   0.00000  Uiso   1.00
O231   O     0.18453   0.78974   0.16667   0.00000  Uiso   1.00
O232   O     0.31547   0.71026   0.16666   0.00000  Uiso   1.00
O233   O     0.31547   0.78974   0.16666   0.00000  Uiso   1.00
O234   O     0.18453   0.71026   0.16667   0.00000  Uiso   1.00
O235   O     0.25000   0.78973   0.09511   0.00000  Uiso   1.00
O236   O     0.25000   0.71027   0.23822   0.00000  Uiso   1.00
O237   O     0.25000   0.78973   0.23822   0.00000  Uiso   1.00
O238   O     0.25000   0.71027   0.09511   0.00000  Uiso   1.00
Zn239  Zn    0.25000   0.80307   0.16667   0.00000  Uiso   1.00
Zn240  Zn    0.25000   0.69693   0.16667   0.00000  Uiso   1.00
C241   C     0.66421   0.75002   0.16659   0.00000  Uiso   1.00
C242   C     0.71634   0.94755   0.14240   0.00000  Uiso   1.00
C243   C     0.74995   0.75005   0.07283   0.00000  Uiso   1.00
C244   C     0.74998   0.74994   0.26050   0.00000  Uiso   1.00
C245   C     0.75017   0.52667   0.16663   0.00000  Uiso   1.00
C246   C     0.75015   0.97331   0.16663   0.00000  Uiso   1.00
C247   C     0.74992   0.75007   0.02176   0.00000  Uiso   1.00
C248   C     0.74993   0.74992   0.31157   0.00000  Uiso   1.00
C249   C     0.54749   0.74683   0.12139   0.00000  Uiso   1.00
C250   C     0.95329   0.72373   0.20231   0.00000  Uiso   1.00
C251   C     0.95310   0.77629   0.13075   0.00000  Uiso   1.00
C252   C     0.83596   0.74997   0.16667   0.00000  Uiso   1.00
C253   C     0.54752   0.75327   0.21170   0.00000  Uiso   1.00
C254   C     0.59373   0.74758   0.12080   0.00000  Uiso   1.00
C255   C     0.90708   0.72413   0.20365   0.00000  Uiso   1.00
C256   C     0.90688   0.77570   0.12944   0.00000  Uiso   1.00
C257   C     0.59375   0.75233   0.21231   0.00000  Uiso   1.00
C258   C     0.61660   0.75003   0.16655   0.00000  Uiso   1.00
C259   C     0.88383   0.74992   0.16658   0.00000  Uiso   1.00
C260   C     0.52450   0.75012   0.16654   0.00000  Uiso   1.00
C261   C     0.97617   0.75007   0.16655   0.00000  Uiso   1.00
C262   C     0.61772   0.74613   0.07122   0.00000  Uiso   1.00
C263   C     0.73286   0.60235   0.12705   0.00000  Uiso   1.00
C264   C     0.63081   0.79563   0.05418   0.00000  Uiso   1.00
C265   C     0.88426   0.69813   0.24608   0.00000  Uiso   1.00
C266   C     0.88311   0.64516   0.23641   0.00000  Uiso   1.00
C267   C     0.88382   0.80134   0.08684   0.00000  Uiso   1.00
C268   C     0.88195   0.85433   0.09628   0.00000  Uiso   1.00
C269   C     0.61776   0.75315   0.26191   0.00000  Uiso   1.00
C270   C     0.63069   0.70339   0.27849   0.00000  Uiso   1.00
C271   C     0.78311   0.89759   0.19057   0.00000  Uiso   1.00
C272   C     0.76713   0.60207   0.20631   0.00000  Uiso   1.00
C273   C     0.71696   0.89796   0.14278   0.00000  Uiso   1.00
C274   C     0.73274   0.55276   0.12621   0.00000  Uiso   1.00
C275   C     0.78390   0.94719   0.19089   0.00000  Uiso   1.00
C276   C     0.76750   0.55246   0.20709   0.00000  Uiso   1.00
H277   H     0.71926   0.62175   0.09575   0.00000  Uiso   1.00
H278   H     0.81119   0.96480   0.20948   0.00000  Uiso   1.00
H279   H     0.78069   0.53460   0.23962   0.00000  Uiso   1.00
H280   H     0.68907   0.96543   0.12382   0.00000  Uiso   1.00
H281   H     0.65030   0.81403   0.08325   0.00000  Uiso   1.00
H282   H     0.65181   0.79344   0.02025   0.00000  Uiso   1.00
H283   H     0.60047   0.81665   0.04560   0.00000  Uiso   1.00
H284   H     0.64781   0.72335   0.07360   0.00000  Uiso   1.00
H285   H     0.59584   0.73023   0.04241   0.00000  Uiso   1.00
H286   H     0.86555   0.62712   0.26750   0.00000  Uiso   1.00
H287   H     0.86518   0.63760   0.20112   0.00000  Uiso   1.00
H288   H     0.80921   0.87810   0.20941   0.00000  Uiso   1.00
H289   H     0.91752   0.63082   0.23393   0.00000  Uiso   1.00
H290   H     0.90259   0.70474   0.28141   0.00000  Uiso   1.00
H291   H     0.84984   0.71111   0.25260   0.00000  Uiso   1.00
H292   H     0.86403   0.87201   0.06516   0.00000  Uiso   1.00
H293   H     0.86401   0.86183   0.13155   0.00000  Uiso   1.00
H294   H     0.91617   0.86909   0.09862   0.00000  Uiso   1.00
H295   H     0.90229   0.79482   0.05159   0.00000  Uiso   1.00
H296   H     0.84960   0.78792   0.08028   0.00000  Uiso   1.00
H297   H     0.65023   0.68504   0.24935   0.00000  Uiso   1.00
H298   H     0.65156   0.70516   0.31257   0.00000  Uiso   1.00
H299   H     0.78051   0.62125   0.23769   0.00000  Uiso   1.00
H300   H     0.60026   0.68251   0.28675   0.00000  Uiso   1.00
H301   H     0.64792   0.77574   0.25979   0.00000  Uiso   1.00
H302   H     0.59592   0.76893   0.29084   0.00000  Uiso   1.00
H303   H     0.69077   0.87880   0.12402   0.00000  Uiso   1.00
H304   H     0.52938   0.74375   0.08658   0.00000  Uiso   1.00
H305   H     0.97149   0.70301   0.22962   0.00000  Uiso   1.00
H306   H     0.97115   0.79702   0.10339   0.00000  Uiso   1.00
H307   H     0.52943   0.75629   0.24652   0.00000  Uiso   1.00
H308   H     0.71960   0.53513   0.09367   0.00000  Uiso   1.00
N309   N     0.75000   0.62623   0.16667   0.00000  Uiso   1.00
N310   N     0.75000   0.87376   0.16667   0.00000  Uiso   1.00
O311   O     0.68453   0.78974   0.16667   0.00000  Uiso   1.00
O312   O     0.81547   0.71026   0.16666   0.00000  Uiso   1.00
O313   O     0.81547   0.78974   0.16666   0.00000  Uiso   1.00
O314   O     0.68453   0.71026   0.16667   0.00000  Uiso   1.00
O315   O     0.75000   0.78973   0.09511   0.00000  Uiso   1.00
O316   O     0.75000   0.71027   0.23822   0.00000  Uiso   1.00
O317   O     0.75000   0.78973   0.23822   0.00000  Uiso   1.00
O318   O     0.75000   0.71027   0.09511   0.00000  Uiso   1.00
Zn319  Zn    0.75000   0.80307   0.16667   0.00000  Uiso   1.00
Zn320  Zn    0.75000   0.69693   0.16667   0.00000  Uiso   1.00
C321   C     0.16421   0.25002   0.49992   0.00000  Uiso   1.00
C322   C     0.21634   0.44755   0.47574   0.00000  Uiso   1.00
C323   C     0.24995   0.25005   0.40617   0.00000  Uiso   1.00
C324   C     0.24998   0.24994   0.59383   0.00000  Uiso   1.00
C325   C     0.25017   0.02667   0.49996   0.00000  Uiso   1.00
C326   C     0.25015   0.47331   0.49997   0.00000  Uiso   1.00
C327   C     0.24992   0.25007   0.35510   0.00000  Uiso   1.00
C328   C     0.24993   0.24992   0.64490   0.00000  Uiso   1.00
C329   C     0.04749   0.24683   0.45472   0.00000  Uiso   1.00
C330   C     0.45329   0.22373   0.53565   0.00000  Uiso   1.00
C331   C     0.45310   0.27629   0.46409   0.00000  Uiso   1.00
C332   C     0.33596   0.24997   0.50001   0.00000  Uiso   1.00
C333   C     0.04752   0.25327   0.54503   0.00000  Uiso   1.00
C334   C     0.09373   0.24758   0.45413   0.00000  Uiso   1.00
C335   C     0.40708   0.22413   0.53698   0.00000  Uiso   1.00
C336   C     0.40688   0.27570   0.46277   0.00000  Uiso   1.00
C337   C     0.09375   0.25233   0.54564   0.00000  Uiso   1.00
C338   C     0.11660   0.25003   0.49989   0.00000  Uiso   1.00
C339   C     0.38383   0.24992   0.49991   0.00000  Uiso   1.00
C340   C     0.02450   0.25012   0.49987   0.00000  Uiso   1.00
C341   C     0.47617   0.25007   0.49988   0.00000  Uiso   1.00
C342   C     0.11772   0.24613   0.40455   0.00000  Uiso   1.00
C343   C     0.23286   0.10235   0.46038   0.00000  Uiso   1.00
C344   C     0.13081   0.29563   0.38752   0.00000  Uiso   1.00
C345   C     0.38426   0.19813   0.57941   0.00000  Uiso   1.00
C346   C     0.38311   0.14516   0.56974   0.00000  Uiso   1.00
C347   C     0.38382   0.30134   0.42018   0.00000  Uiso   1.00
C348   C     0.38195   0.35433   0.42962   0.00000  Uiso   1.00
C349   C     0.11776   0.25315   0.59525   0.00000  Uiso   1.00
C350   C     0.13069   0.20339   0.61182   0.00000  Uiso   1.00
C351   C     0.28311   0.39759   0.52391   0.00000  Uiso   1.00
C352   C     0.26713   0.10207   0.53965   0.00000  Uiso   1.00
C353   C     0.21696   0.39796   0.47611   0.00000  Uiso   1.00
C354   C     0.23274   0.05276   0.45954   0.00000  Uiso   1.00
C355   C     0.28390   0.44719   0.52422   0.00000  Uiso   1.00
C356   C     0.26750   0.05246   0.54042   0.00000  Uiso   1.00
H357   H     0.21926   0.12175   0.42908   0.00000  Uiso   1.00
H358   H     0.31119   0.46480   0.54282   0.00000  Uiso   1.00
H359   H     0.28069   0.03460   0.57295   0.00000  Uiso   1.00
H360   H     0.18907   0.46543   0.45716   0.00000  Uiso   1.00
H361   H     0.15030   0.31403   0.41658   0.00000  Uiso   1.00
H362   H     0.15181   0.29344   0.35358   0.00000  Uiso   1.00
H363   H     0.10047   0.31665   0.37893   0.00000  Uiso   1.00
H364   H     0.14781   0.22335   0.40694   0.00000  Uiso   1.00
H365   H     0.09584   0.23023   0.37574   0.00000  Uiso   1.00
H366   H     0.36555   0.12712   0.60083   0.00000  Uiso   1.00
H367   H     0.36518   0.13760   0.53445   0.00000  Uiso   1.00
H368   H     0.30921   0.37810   0.54274   0.00000  Uiso   1.00
H369   H     0.41752   0.13082   0.56726   0.00000  Uiso   1.00
H370   H     0.40259   0.20474   0.61475   0.00000  Uiso   1.00
H371   H     0.34984   0.21111   0.58593   0.00000  Uiso   1.00
H372   H     0.36403   0.37201   0.39850   0.00000  Uiso   1.00
H373   H     0.36401   0.36183   0.46489   0.00000  Uiso   1.00
H374   H     0.41617   0.36909   0.43195   0.00000  Uiso   1.00
H375   H     0.40229   0.29482   0.38492   0.00000  Uiso   1.00
H376   H     0.34960   0.28792   0.41362   0.00000  Uiso   1.00
H377   H     0.15023   0.18504   0.58269   0.00000  Uiso   1.00
H378   H     0.15156   0.20516   0.64590   0.00000  Uiso   1.00
H379   H     0.28051   0.12125   0.57102   0.00000  Uiso   1.00
H380   H     0.10026   0.18251   0.62008   0.00000  Uiso   1.00
H381   H     0.14792   0.27574   0.59312   0.00000  Uiso   1.00
H382   H     0.09592   0.26893   0.62418   0.00000  Uiso   1.00
H383   H     0.19077   0.37880   0.45736   0.00000  Uiso   1.00
H384   H     0.02938   0.24375   0.41991   0.00000  Uiso   1.00
H385   H     0.47149   0.20301   0.56296   0.00000  Uiso   1.00
H386   H     0.47115   0.29702   0.43672   0.00000  Uiso   1.00
H387   H     0.02943   0.25629   0.57985   0.00000  Uiso   1.00
H388   H     0.21960   0.03513   0.42700   0.00000  Uiso   1.00
N389   N     0.25000   0.12623   0.50000   0.00000  Uiso   1.00
N390   N     0.25000   0.37376   0.50000   0.00000  Uiso   1.00
O391   O     0.18453   0.28974   0.50000   0.00000  Uiso   1.00
O392   O     0.31547   0.21026   0.50000   0.00000  Uiso   1.00
O393   O     0.31547   0.28974   0.50000   0.00000  Uiso   1.00
O394   O     0.18453   0.21026   0.50000   0.00000  Uiso   1.00
O395   O     0.25000   0.28973   0.42845   0.00000  Uiso   1.00
O396   O     0.25000   0.21027   0.57155   0.00000  Uiso   1.00
O397   O     0.25000   0.28973   0.57155   0.00000  Uiso   1.00
O398   O     0.25000   0.21027   0.42845   0.00000  Uiso   1.00
Zn399  Zn    0.25000   0.30307   0.50000   0.00000  Uiso   1.00
Zn400  Zn    0.25000   0.19693   0.50000   0.00000  Uiso   1.00
C401   C     0.66421   0.25002   0.49992   0.00000  Uiso   1.00
C402   C     0.71634   0.44755   0.47574   0.00000  Uiso   1.00
C403   C     0.74995   0.25005   0.40617   0.00000  Uiso   1.00
C404   C     0.74998   0.24994   0.59383   0.00000  Uiso   1.00
C405   C     0.75017   0.02667   0.49996   0.00000  Uiso   1.00
C406   C     0.75015   0.47331   0.49997   0.00000  Uiso   1.00
C407   C     0.74992   0.25007   0.35510   0.00000  Uiso   1.00
C408   C     0.74993   0.24992   0.64490   0.00000  Uiso   1.00
C409   C     0.54749   0.24683   0.45472   0.00000  Uiso   1.00
C410   C     0.95329   0.22373   0.53565   0.00000  Uiso   1.00
C411   C     0.95310   0.27629   0.46409   0.00000  Uiso   1.00
C412   C     0.83596   0.24997   0.50001   0.00000  Uiso   1.00
C413   C     0.54752   0.25327   0.54503   0.00000  Uiso   1.00
C414   C     0.59373   0.24758   0.45413   0.00000  Uiso   1.00
C415   C     0.90708   0.22413   0.53698   0.00000  Uiso   1.00
C416   C     0.90688   0.27570   0.46277   0.00000  Uiso   1.00
C417   C     0.59375   0.25233   0.54564   0.00000  Uiso   1.00
C418   C     0.61660   0.25003   0.49989   0.00000  Uiso   1.00
C419   C     0.88383   0.24992   0.49991   0.00000  Uiso   1.00
C420   C     0.52450   0.25012   0.49987   0.00000  Uiso   1.00
C421   C     0.97617   0.25007   0.49988   0.00000  Uiso   1.00
C422   C     0.61772   0.24613   0.40455   0.00000  Uiso   1.00
C423   C     0.73286   0.10235   0.46038   0.00000  Uiso   1.00
C424   C     0.63081   0.29563   0.38752   0.00000  Uiso   1.00
C425   C     0.88426   0.19813   0.57941   0.00000  Uiso   1.00
C426   C     0.88311   0.14516   0.56974   0.00000  Uiso   1.00
C427   C     0.88382   0.30134   0.42018   0.00000  Uiso   1.00
C428   C     0.88195   0.35433   0.42962   0.00000  Uiso   1.00
C429   C     0.61776   0.25315   0.59525   0.00000  Uiso   1.00
C430   C     0.63069   0.20339   0.61182   0.00000  Uiso   1.00
C431   C     0.78311   0.39759   0.52391   0.00000  Uiso   1.00
C432   C     0.76713   0.10207   0.53965   0.00000  Uiso   1.00
C433   C     0.71696   0.39796   0.47611   0.00000  Uiso   1.00
C434   C     0.73274   0.05276   0.45954   0.00000  Uiso   1.00
C435   C     0.78390   0.44719   0.52422   0.00000  Uiso   1.00
C436   C     0.76750   0.05246   0.54042   0.00000  Uiso   1.00
H437   H     0.71926   0.12175   0.42908   0.00000  Uiso   1.00
H438   H     0.81119   0.46480   0.54282   0.00000  Uiso   1.00
H439   H     0.78069   0.03460   0.57295   0.00000  Uiso   1.00
H440   H     0.68907   0.46543   0.45716   0.00000  Uiso   1.00
H441   H     0.65030   0.31403   0.41658   0.00000  Uiso   1.00
H442   H     0.65181   0.29344   0.35358   0.00000  Uiso   1.00
H443   H     0.60047   0.31665   0.37893   0.00000  Uiso   1.00
H444   H     0.64781   0.22335   0.40694   0.00000  Uiso   1.00
H445   H     0.59584   0.23023   0.37574   0.00000  Uiso   1.00
H446   H     0.86555   0.12712   0.60083   0.00000  Uiso   1.00
H447   H     0.86518   0.13760   0.53445   0.00000  Uiso   1.00
H448   H     0.80921   0.37810   0.54274   0.00000  Uiso   1.00
H449   H     0.91752   0.13082   0.56726   0.00000  Uiso   1.00
H450   H     0.90259   0.20474   0.61475   0.00000  Uiso   1.00
H451   H     0.84984   0.21111   0.58593   0.00000  Uiso   1.00
H452   H     0.86403   0.37201   0.39850   0.00000  Uiso   1.00
H453   H     0.86401   0.36183   0.46489   0.00000  Uiso   1.00
H454   H     0.91617   0.36909   0.43195   0.00000  Uiso   1.00
H455   H     0.90229   0.29482   0.38492   0.00000  Uiso   1.00
H456   H     0.84960   0.28792   0.41362   0.00000  Uiso   1.00
H457   H     0.65023   0.18504   0.58269   0.00000  Uiso   1.00
H458   H     0.65156   0.20516   0.64590   0.00000  Uiso   1.00
H459   H     0.78051   0.12125   0.57102   0.00000  Uiso   1.00
H460   H     0.60026   0.18251   0.62008   0.00000  Uiso   1.00
H461   H     0.64792   0.27574   0.59312   0.00000  Uiso   1.00
H462   H     0.59592   0.26893   0.62418   0.00000  Uiso   1.00
H463   H     0.69077   0.37880   0.45736   0.00000  Uiso   1.00
H464   H     0.52938   0.24375   0.41991   0.00000  Uiso   1.00
H465   H     0.97149   0.20301   0.56296   0.00000  Uiso   1.00
H466   H     0.97115   0.29702   0.43672   0.00000  Uiso   1.00
H467   H     0.52943   0.25629   0.57985   0.00000  Uiso   1.00
H468   H     0.71960   0.03513   0.42700   0.00000  Uiso   1.00
N469   N     0.75000   0.12623   0.50000   0.00000  Uiso   1.00
N470   N     0.75000   0.37376   0.50000   0.00000  Uiso   1.00
O471   O     0.68453   0.28974   0.50000   0.00000  Uiso   1.00
O472   O     0.81547   0.21026   0.50000   0.00000  Uiso   1.00
O473   O     0.81547   0.28974   0.50000   0.00000  Uiso   1.00
O474   O     0.68453   0.21026   0.50000   0.00000  Uiso   1.00
O475   O     0.75000   0.28973   0.42845   0.00000  Uiso   1.00
O476   O     0.75000   0.21027   0.57155   0.00000  Uiso   1.00
O477   O     0.75000   0.28973   0.57155   0.00000  Uiso   1.00
O478   O     0.75000   0.21027   0.42845   0.00000  Uiso   1.00
Zn479  Zn    0.75000   0.30307   0.50000   0.00000  Uiso   1.00
Zn480  Zn    0.75000   0.19693   0.50000   0.00000  Uiso   1.00
C481   C     0.16421   0.75002   0.49992   0.00000  Uiso   1.00
C482   C     0.21634   0.94755   0.47574   0.00000  Uiso   1.00
C483   C     0.24995   0.75005   0.40617   0.00000  Uiso   1.00
C484   C     0.24998   0.74994   0.59383   0.00000  Uiso   1.00
C485   C     0.25017   0.52667   0.49996   0.00000  Uiso   1.00
C486   C     0.25015   0.97331   0.49997   0.00000  Uiso   1.00
C487   C     0.24992   0.75007   0.35510   0.00000  Uiso   1.00
C488   C     0.24993   0.74992   0.64490   0.00000  Uiso   1.00
C489   C     0.04749   0.74683   0.45472   0.00000  Uiso   1.00
C490   C     0.45329   0.72373   0.53565   0.00000  Uiso   1.00
C491   C     0.45310   0.77629   0.46409   0.00000  Uiso   1.00
C492   C     0.33596   0.74997   0.50001   0.00000  Uiso   1.00
C493   C     0.04752   0.75327   0.54503   0.00000  Uiso   1.00
C494   C     0.09373   0.74758   0.45413   0.00000  Uiso   1.00
C495   C     0.40708   0.72413   0.53698   0.00000  Uiso   1.00
C496   C     0.40688   0.77570   0.46277   0.00000  Uiso   1.00
C497   C     0.09375   0.75233   0.54564   0.00000  Uiso   1.00
C498   C     0.11660   0.75003   0.49989   0.00000  Uiso   1.00
C499   C     0.38383   0.74992   0.49991   0.00000  Uiso   1.00
C500   C     0.02450   0.75012   0.49987   0.00000  Uiso   1.00
C501   C     0.47617   0.75007   0.49988   0.00000  Uiso   1.00
C502   C     0.11772   0.74613   0.40455   0.00000  Uiso   1.00
C503   C     0.23286   0.60235   0.46038   0.00000  Uiso   1.00
C504   C     0.13081   0.79563   0.38752   0.00000  Uiso   1.00
C505   C     0.38426   0.69813   0.57941   0.00000  Uiso   1.00
C506   C     0.38311   0.64516   0.56974   0.00000  Uiso   1.00
C507   C     0.38382   0.80134   0.42018   0.00000  Uiso   1.00
C508   C     0.38195   0.85433   0.42962   0.00000  Uiso   1.00
C509   C     0.11776   0.75315   0.59525   0.00000  Uiso   1.00
C510   C     0.13069   0.70339   0.61182   0.00000  Uiso   1.00
C511   C     0.28311   0.89759   0.52391   0.00000  Uiso   1.00
C512   C     0.26713   0.60207   0.53965   0.00000  Uiso   1.00
C513   C     0.21696   0.89796   0.47611   0.00000  Uiso   1.00
C514   C     0.23274   0.55276   0.45954   0.00000  Uiso   1.00
C515   C     0.28390   0.94719   0.52422   0.00000  Uiso   1.00
C516   C     0.26750   0.55246   0.54042   0.00000  Uiso   1.00
H517   H     0.21926   0.62175   0.42908   0.00000  Uiso   1.00
H518   H     0.31119   0.96480   0.54282   0.00000  Uiso   1.00
H519   H     0.28069   0.53460   0.57295   0.00000  Uiso   1.00
H520   H     0.18907   0.96543   0.45716   0.00000  Uiso   1.00
H521   H     0.15030   0.81403   0.41658   0.00000  Uiso   1.00
H522   H     0.15181   0.79344   0.35358   0.00000  Uiso   1.00
H523   H     0.10047   0.81665   0.37893   0.00000  Uiso   1.00
H524   H     0.14781   0.72335   0.40694   0.00000  Uiso   1.00
H525   H     0.09584   0.73023   0.37574   0.00000  Uiso   1.00
H526   H     0.36555   0.62712   0.60083   0.00000  Uiso   1.00
H527   H     0.36518   0.63760   0.53445   0.00000  Uiso   1.00
H528   H     0.30921   0.87810   0.54274   0.00000  Uiso   1.00
H529   H     0.41752   0.63082   0.56726   0.00000  Uiso   1.00
H530   H     0.40259   0.70474   0.61475   0.00000  Uiso   1.00
H531   H     0.34984   0.71111   0.58593   0.00000  Uiso   1.00
H532   H     0.36403   0.87201   0.39850   0.00000  Uiso   1.00
H533   H     0.36401   0.86183   0.46489   0.00000  Uiso   1.00
H534   H     0.41617   0.86909   0.43195   0.00000  Uiso   1.00
H535   H     0.40229   0.79482   0.38492   0.00000  Uiso   1.00
H536   H     0.34960   0.78792   0.41362   0.00000  Uiso   1.00
H537   H     0.15023   0.68504   0.58269   0.00000  Uiso   1.00
H538   H     0.15156   0.70516   0.64590   0.00000  Uiso   1.00
H539   H     0.28051   0.62125   0.57102   0.00000  Uiso   1.00
H540   H     0.10026   0.68251   0.62008   0.00000  Uiso   1.00
H541   H     0.14792   0.77574   0.59312   0.00000  Uiso   1.00
H542   H     0.09592   0.76893   0.62418   0.00000  Uiso   1.00
H543   H     0.19077   0.87880   0.45736   0.00000  Uiso   1.00
H544   H     0.02938   0.74375   0.41991   0.00000  Uiso   1.00
H545   H     0.47149   0.70301   0.56296   0.00000  Uiso   1.00
H546   H     0.47115   0.79702   0.43672   0.00000  Uiso   1.00
H547   H     0.02943   0.75629   0.57985   0.00000  Uiso   1.00
H548   H     0.21960   0.53513   0.42700   0.00000  Uiso   1.00
N549   N     0.25000   0.62623   0.50000   0.00000  Uiso   1.00
N550   N     0.25000   0.87376   0.50000   0.00000  Uiso   1.00
O551   O     0.18453   0.78974   0.50000   0.00000  Uiso   1.00
O552   O     0.31547   0.71026   0.50000   0.00000  Uiso   1.00
O553   O     0.31547   0.78974   0.50000   0.00000  Uiso   1.00
O554   O     0.18453   0.71026   0.50000   0.00000  Uiso   1.00
O555   O     0.25000   0.78973   0.42845   0.00000  Uiso   1.00
O556   O     0.25000   0.71027   0.57155   0.00000  Uiso   1.00
O557   O     0.25000   0.78973   0.57155   0.00000  Uiso   1.00
O558   O     0.25000   0.71027   0.42845   0.00000  Uiso   1.00
Zn559  Zn    0.25000   0.80307   0.50000   0.00000  Uiso   1.00
Zn560  Zn    0.25000   0.69693   0.50000   0.00000  Uiso   1.00
C561   C     0.66421   0.75002   0.49992   0.00000  Uiso   1.00
C562   C     0.71634   0.94755   0.47574   0.00000  Uiso   1.00
C563   C     0.74995   0.75005   0.40617   0.00000  Uiso   1.00
C564   C     0.74998   0.74994   0.59383   0.00000  Uiso   1.00
C565   C     0.75017   0.52667   0.49996   0.00000  Uiso   1.00
C566   C     0.75015   0.97331   0.49997   0.00000  Uiso   1.00
C567   C     0.74992   0.75007   0.35510   0.00000  Uiso   1.00
C568   C     0.74993   0.74992   0.64490   0.00000  Uiso   1.00
C569   C     0.54749   0.74683   0.45472   0.00000  Uiso   1.00
C570   C     0.95329   0.72373   0.53565   0.00000  Uiso   1.00
C571   C     0.95310   0.77629   0.46409   0.00000  Uiso   1.00
C572   C     0.83596   0.74997   0.50001   0.00000  Uiso   1.00
C573   C     0.54752   0.75327   0.54503   0.00000  Uiso   1.00
C574   C     0.59373   0.74758   0.45413   0.00000  Uiso   1.00
C575   C     0.90708   0.72413   0.53698   0.00000  Uiso   1.00
C576   C     0.90688   0.77570   0.46277   0.00000  Uiso   1.00
C577   C     0.59375   0.75233   0.54564   0.00000  Uiso   1.00
C578   C     0.61660   0.75003   0.49989   0.00000  Uiso   1.00
C579   C     0.88383   0.74992   0.49991   0.00000  Uiso   1.00
C580   C     0.52450   0.75012   0.49987   0.00000  Uiso   1.00
C581   C     0.97617   0.75007   0.49988   0.00000  Uiso   1.00
C582   C     0.61772   0.74613   0.40455   0.00000  Uiso   1.00
C583   C     0.73286   0.60235   0.46038   0.00000  Uiso   1.00
C584   C     0.63081   0.79563   0.38752   0.00000  Uiso   1.00
C585   C     0.88426   0.69813   0.57941   0.00000  Uiso   1.00
C586   C     0.88311   0.64516   0.56974   0.00000  Uiso   1.00
C587   C     0.88382   0.80134   0.42018   0.00000  Uiso   1.00
C588   C     0.88195   0.85433   0.42962   0.00000  Uiso   1.00
C589   C     0.61776   0.75315   0.59525   0.00000  Uiso   1.00
C590   C     0.63069   0.70339   0.61182   0.00000  Uiso   1.00
C591   C     0.78311   0.89759   0.52391   0.00000  Uiso   1.00
C592   C     0.76713   0.60207   0.53965   0.00000  Uiso   1.00
C593   C     0.71696   0.89796   0.47611   0.00000  Uiso   1.00
C594   C     0.73274   0.55276   0.45954   0.00000  Uiso   1.00
C595   C     0.78390   0.94719   0.52422   0.00000  Uiso   1.00
C596   C     0.76750   0.55246   0.54042   0.00000  Uiso   1.00
H597   H     0.71926   0.62175   0.42908   0.00000  Uiso   1.00
H598   H     0.81119   0.96480   0.54282   0.00000  Uiso   1.00
H599   H     0.78069   0.53460   0.57295   0.00000  Uiso   1.00
H600   H     0.68907   0.96543   0.45716   0.00000  Uiso   1.00
H601   H     0.65030   0.81403   0.41658   0.00000  Uiso   1.00
H602   H     0.65181   0.79344   0.35358   0.00000  Uiso   1.00
H603   H     0.60047   0.81665   0.37893   0.00000  Uiso   1.00
H604   H     0.64781   0.72335   0.40694   0.00000  Uiso   1.00
H605   H     0.59584   0.73023   0.37574   0.00000  Uiso   1.00
H606   H     0.86555   0.62712   0.60083   0.00000  Uiso   1.00
H607   H     0.86518   0.63760   0.53445   0.00000  Uiso   1.00
H608   H     0.80921   0.87810   0.54274   0.00000  Uiso   1.00
H609   H     0.91752   0.63082   0.56726   0.00000  Uiso   1.00
H610   H     0.90259   0.70474   0.61475   0.00000  Uiso   1.00
H611   H     0.84984   0.71111   0.58593   0.00000  Uiso   1.00
H612   H     0.86403   0.87201   0.39850   0.00000  Uiso   1.00
H613   H     0.86401   0.86183   0.46489   0.00000  Uiso   1.00
H614   H     0.91617   0.86909   0.43195   0.00000  Uiso   1.00
H615   H     0.90229   0.79482   0.38492   0.00000  Uiso   1.00
H616   H     0.84960   0.78792   0.41362   0.00000  Uiso   1.00
H617   H     0.65023   0.68504   0.58269   0.00000  Uiso   1.00
H618   H     0.65156   0.70516   0.64590   0.00000  Uiso   1.00
H619   H     0.78051   0.62125   0.57102   0.00000  Uiso   1.00
H620   H     0.60026   0.68251   0.62008   0.00000  Uiso   1.00
H621   H     0.64792   0.77574   0.59312   0.00000  Uiso   1.00
H622   H     0.59592   0.76893   0.62418   0.00000  Uiso   1.00
H623   H     0.69077   0.87880   0.45736   0.00000  Uiso   1.00
H624   H     0.52938   0.74375   0.41991   0.00000  Uiso   1.00
H625   H     0.97149   0.70301   0.56296   0.00000  Uiso   1.00
H626   H     0.97115   0.79702   0.43672   0.00000  Uiso   1.00
H627   H     0.52943   0.75629   0.57985   0.00000  Uiso   1.00
H628   H     0.71960   0.53513   0.42700   0.00000  Uiso   1.00
N629   N     0.75000   0.62623   0.50000   0.00000  Uiso   1.00
N630   N     0.75000   0.87376   0.50000   0.00000  Uiso   1.00
O631   O     0.68453   0.78974   0.50000   0.00000  Uiso   1.00
O632   O     0.81547   0.71026   0.50000   0.00000  Uiso   1.00
O633   O     0.81547   0.78974   0.50000   0.00000  Uiso   1.00
O634   O     0.68453   0.71026   0.50000   0.00000  Uiso   1.00
O635   O     0.75000   0.78973   0.42845   0.00000  Uiso   1.00
O636   O     0.75000   0.71027   0.57155   0.00000  Uiso   1.00
O637   O     0.75000   0.78973   0.57155   0.00000  Uiso   1.00
O638   O     0.75000   0.71027   0.42845   0.00000  Uiso   1.00
Zn639  Zn    0.75000   0.80307   0.50000   0.00000  Uiso   1.00
Zn640  Zn    0.75000   0.69693   0.50000   0.00000  Uiso   1.00
C641   C     0.16421   0.25002   0.83325   0.00000  Uiso   1.00
C642   C     0.21634   0.44755   0.80907   0.00000  Uiso   1.00
C643   C     0.24995   0.25005   0.73950   0.00000  Uiso   1.00
C644   C     0.24998   0.24994   0.92717   0.00000  Uiso   1.00
C645   C     0.25017   0.02667   0.83330   0.00000  Uiso   1.00
C646   C     0.25015   0.47331   0.83330   0.00000  Uiso   1.00
C647   C     0.24992   0.25007   0.68843   0.00000  Uiso   1.00
C648   C     0.24993   0.24992   0.97824   0.00000  Uiso   1.00
C649   C     0.04749   0.24683   0.78805   0.00000  Uiso   1.00
C650   C     0.45329   0.22373   0.86898   0.00000  Uiso   1.00
C651   C     0.45310   0.27629   0.79742   0.00000  Uiso   1.00
C652   C     0.33596   0.24997   0.83334   0.00000  Uiso   1.00
C653   C     0.04752   0.25327   0.87837   0.00000  Uiso   1.00
C654   C     0.09373   0.24758   0.78746   0.00000  Uiso   1.00
C655   C     0.40708   0.22413   0.87031   0.00000  Uiso   1.00
C656   C     0.40688   0.27570   0.79611   0.00000  Uiso   1.00
C657   C     0.09375   0.25233   0.87898   0.00000  Uiso   1.00
C658   C     0.11660   0.25003   0.83322   0.00000  Uiso   1.00
C659   C     0.38383   0.24992   0.83325   0.00000  Uiso   1.00
C660   C     0.02450   0.25012   0.83321   0.00000  Uiso   1.00
C661   C     0.47617   0.25007   0.83322   0.00000  Uiso   1.00
C662   C     0.11772   0.24613   0.73788   0.00000  Uiso   1.00
C663   C     0.23286   0.10235   0.79371   0.00000  Uiso   1.00
C664   C     0.13081   0.29563   0.72085   0.00000  Uiso   1.00
C665   C     0.38426   0.19813   0.91275   0.00000  Uiso   1.00
C666   C     0.38311   0.14516   0.90307   0.00000  Uiso   1.00
C667   C     0.38382   0.30134   0.75351   0.00000  Uiso   1.00
C668   C     0.38195   0.35433   0.76295   0.00000  Uiso   1.00
C669   C     0.11776   0.25315   0.92858   0.00000  Uiso   1.00
C670   C     0.13069   0.20339   0.94515   0.00000  Uiso   1.00
C671   C     0.28311   0.39759   0.85724   0.00000  Uiso   1.00
C672   C     0.26713   0.10207   0.87298   0.00000  Uiso   1.00
C673   C     0.21696   0.39796   0.80944   0.00000  Uiso   1.00
C674   C     0.23274   0.05276   0.79287   0.00000  Uiso   1.00
C675   C     0.28390   0.44719   0.85756   0.00000  Uiso   1.00
C676   C     0.26750   0.05246   0.87375   0.00000  Uiso   1.00
H677   H     0.21926   0.12175   0.76242   0.00000  Uiso   1.00
H678   H     0.31119   0.46480   0.87615   0.00000  Uiso   1.00
H679   H     0.28069   0.03460   0.90628   0.00000  Uiso   1.00
H680   H     0.18907   0.46543   0.79049   0.00000  Uiso   1.00
H681   H     0.15030   0.31403   0.74991   0.00000  Uiso   1.00
H682   H     0.15181   0.29344   0.68692   0.00000  Uiso   1.00
H683   H     0.10047   0.31665   0.71227   0.00000  Uiso   1.00
H684   H     0.14781   0.22335   0.74027   0.00000  Uiso   1.00
H685   H     0.09584   0.23023   0.70908   0.00000  Uiso   1.00
H686   H     0.36555   0.12712   0.93416   0.00000  Uiso   1.00
H687   H     0.36518   0.13760   0.86778   0.00000  Uiso   1.00
H688   H     0.30921   0.37810   0.87608   0.00000  Uiso   1.00
H689   H     0.41752   0.13082   0.90060   0.00000  Uiso   1.00
H690   H     0.40259   0.20474   0.94808   0.00000  Uiso   1.00
H691   H     0.34984   0.21111   0.91927   0.00000  Uiso   1.00
H692   H     0.36403   0.37201   0.73183   0.00000  Uiso   1.00
H693   H     0.36401   0.36183   0.79822   0.00000  Uiso   1.00
H694   H     0.41617   0.36909   0.76529   0.00000  Uiso   1.00
H695   H     0.40229   0.29482   0.71825   0.00000  Uiso   1.00
H696   H     0.34960   0.28792   0.74695   0.00000  Uiso   1.00
H697   H     0.15023   0.18504   0.91602   0.00000  Uiso   1.00
H698   H     0.15156   0.20516   0.97924   0.00000  Uiso   1.00
H699   H     0.28051   0.12125   0.90436   0.00000  Uiso   1.00
H700   H     0.10026   0.18251   0.95341   0.00000  Uiso   1.00
H701   H     0.14792   0.27574   0.92645   0.00000  Uiso   1.00
H702   H     0.09592   0.26893   0.95751   0.00000  Uiso   1.00
H703   H     0.19077   0.37880   0.79069   0.00000  Uiso   1.00
H704   H     0.02938   0.24375   0.75325   0.00000  Uiso   1.00
H705   H     0.47149   0.20301   0.89629   0.00000  Uiso   1.00
H706   H     0.47115   0.29702   0.77006   0.00000  Uiso   1.00
H707   H     0.02943   0.25629   0.91318   0.00000  Uiso   1.00
H708   H     0.21960   0.03513   0.76034   0.00000  Uiso   1.00
N709   N     0.25000   0.12623   0.83333   0.00000  Uiso   1.00
N710   N     0.25000   0.37376   0.83333   0.00000  Uiso   1.00
O711   O     0.18453   0.28974   0.83334   0.00000  Uiso   1.00
O712   O     0.31547   0.21026   0.83333   0.00000  Uiso   1.00
O713   O     0.31547   0.28974   0.83333   0.00000  Uiso   1.00
O714   O     0.18453   0.21026   0.83334   0.00000  Uiso   1.00
O715   O     0.25000   0.28973   0.76178   0.00000  Uiso   1.00
O716   O     0.25000   0.21027   0.90489   0.00000  Uiso   1.00
O717   O     0.25000   0.28973   0.90489   0.00000  Uiso   1.00
O718   O     0.25000   0.21027   0.76178   0.00000  Uiso   1.00
Zn719  Zn    0.25000   0.30307   0.83333   0.00000  Uiso   1.00
Zn720  Zn    0.25000   0.19693   0.83333   0.00000  Uiso   1.00
C721   C     0.66421   0.25002   0.83325   0.00000  Uiso   1.00
C722   C     0.71634   0.44755   0.80907   0.00000  Uiso   1.00
C723   C     0.74995   0.25005   0.73950   0.00000  Uiso   1.00
C724   C     0.74998   0.24994   0.92717   0.00000  Uiso   1.00
C725   C     0.75017   0.02667   0.83330   0.00000  Uiso   1.00
C726   C     0.75015   0.47331   0.83330   0.00000  Uiso   1.00
C727   C     0.74992   0.25007   0.68843   0.00000  Uiso   1.00
C728   C     0.74993   0.24992   0.97824   0.00000  Uiso   1.00
C729   C     0.54749   0.24683   0.78805   0.00000  Uiso   1.00
C730   C     0.95329   0.22373   0.86898   0.00000  Uiso   1.00
C731   C     0.95310   0.27629   0.79742   0.00000  Uiso   1.00
C732   C     0.83596   0.24997   0.83334   0.00000  Uiso   1.00
C733   C     0.54752   0.25327   0.87837   0.00000  Uiso   1.00
C734   C     0.59373   0.24758   0.78746   0.00000  Uiso   1.00
C735   C     0.90708   0.22413   0.87031   0.00000  Uiso   1.00
C736   C     0.90688   0.27570   0.79611   0.00000  Uiso   1.00
C737   C     0.59375   0.25233   0.87898   0.00000  Uiso   1.00
C738   C     0.61660   0.25003   0.83322   0.00000  Uiso   1.00
C739   C     0.88383   0.24992   0.83325   0.00000  Uiso   1.00
C740   C     0.52450   0.25012   0.83321   0.00000  Uiso   1.00
C741   C     0.97617   0.25007   0.83322   0.00000  Uiso   1.00
C742   C     0.61772   0.24613   0.73788   0.00000  Uiso   1.00
C743   C     0.73286   0.10235   0.79371   0.00000  Uiso   1.00
C744   C     0.63081   0.29563   0.72085   0.00000  Uiso   1.00
C745   C     0.88426   0.19813   0.91275   0.00000  Uiso   1.00
C746   C     0.88311   0.14516   0.90307   0.00000  Uiso   1.00
C747   C     0.88382   0.30134   0.75351   0.00000  Uiso   1.00
C748   C     0.88195   0.35433   0.76295   0.00000  Uiso   1.00
C749   C     0.61776   0.25315   0.92858   0.00000  Uiso   1.00
C750   C     0.63069   0.20339   0.94515   0.00000  Uiso   1.00
C751   C     0.78311   0.39759   0.85724   0.00000  Uiso   1.00
C752   C     0.76713   0.10207   0.87298   0.00000  Uiso   1.00
C753   C     0.71696   0.39796   0.80944   0.00000  Uiso   1.00
C754   C     0.73274   0.05276   0.79287   0.00000  Uiso   1.00
C755   C     0.78390   0.44719   0.85756   0.00000  Uiso   1.00
C756   C     0.76750   0.05246   0.87375   0.00000  Uiso   1.00
H757   H     0.71926   0.12175   0.76242   0.00000  Uiso   1.00
H758   H     0.81119   0.46480   0.87615   0.00000  Uiso   1.00
H759   H     0.78069   0.03460   0.90628   0.00000  Uiso   1.00
H760   H     0.68907   0.46543   0.79049   0.00000  Uiso   1.00
H761   H     0.65030   0.31403   0.74991   0.00000  Uiso   1.00
H762   H     0.65181   0.29344   0.68692   0.00000  Uiso   1.00
H763   H     0.60047   0.31665   0.71227   0.00000  Uiso   1.00
H764   H     0.64781   0.22335   0.74027   0.00000  Uiso   1.00
H765   H     0.59584   0.23023   0.70908   0.00000  Uiso   1.00
H766   H     0.86555   0.12712   0.93416   0.00000  Uiso   1.00
H767   H     0.86518   0.13760   0.86778   0.00000  Uiso   1.00
H768   H     0.80921   0.37810   0.87608   0.00000  Uiso   1.00
H769   H     0.91752   0.13082   0.90060   0.00000  Uiso   1.00
H770   H     0.90259   0.20474   0.94808   0.00000  Uiso   1.00
H771   H     0.84984   0.21111   0.91927   0.00000  Uiso   1.00
H772   H     0.86403   0.37201   0.73183   0.00000  Uiso   1.00
H773   H     0.86401   0.36183   0.79822   0.00000  Uiso   1.00
H774   H     0.91617   0.36909   0.76529   0.00000  Uiso   1.00
H775   H     0.90229   0.29482   0.71825   0.00000  Uiso   1.00
H776   H     0.84960   0.28792   0.74695   0.00000  Uiso   1.00
H777   H     0.65023   0.18504   0.91602   0.00000  Uiso   1.00
H778   H     0.65156   0.20516   0.97924   0.00000  Uiso   1.00
H779   H     0.78051   0.12125   0.90436   0.00000  Uiso   1.00
H780   H     0.60026   0.18251   0.95341   0.00000  Uiso   1.00
H781   H     0.64792   0.27574   0.92645   0.00000  Uiso   1.00
H782   H     0.59592   0.26893   0.95751   0.00000  Uiso   1.00
H783   H     0.69077   0.37880   0.79069   0.00000  Uiso   1.00
H784   H     0.52938   0.24375   0.75325   0.00000  Uiso   1.00
H785   H     0.97149   0.20301   0.89629   0.00000  Uiso   1.00
H786   H     0.97115   0.29702   0.77006   0.00000  Uiso   1.00
H787   H     0.52943   0.25629   0.91318   0.00000  Uiso   1.00
H788   H     0.71960   0.03513   0.76034   0.00000  Uiso   1.00
N789   N     0.75000   0.12623   0.83333   0.00000  Uiso   1.00
N790   N     0.75000   0.37376   0.83333   0.00000  Uiso   1.00
O791   O     0.68453   0.28974   0.83334   0.00000  Uiso   1.00
O792   O     0.81547   0.21026   0.83333   0.00000  Uiso   1.00
O793   O     0.81547   0.28974   0.83333   0.00000  Uiso   1.00
O794   O     0.68453   0.21026   0.83334   0.00000  Uiso   1.00
O795   O     0.75000   0.28973   0.76178   0.00000  Uiso   1.00
O796   O     0.75000   0.21027   0.90489   0.00000  Uiso   1.00
O797   O     0.75000   0.28973   0.90489   0.00000  Uiso   1.00
O798   O     0.75000   0.21027   0.76178   0.00000  Uiso   1.00
Zn799  Zn    0.75000   0.30307   0.83333   0.00000  Uiso   1.00
Zn800  Zn    0.75000   0.19693   0.83333   0.00000  Uiso   1.00
C801   C     0.16421   0.75002   0.83325   0.00000  Uiso   1.00
C802   C     0.21634   0.94755   0.80907   0.00000  Uiso   1.00
C803   C     0.24995   0.75005   0.73950   0.00000  Uiso   1.00
C804   C     0.24998   0.74994   0.92717   0.00000  Uiso   1.00
C805   C     0.25017   0.52667   0.83330   0.00000  Uiso   1.00
C806   C     0.25015   0.97331   0.83330   0.00000  Uiso   1.00
C807   C     0.24992   0.75007   0.68843   0.00000  Uiso   1.00
C808   C     0.24993   0.74992   0.97824   0.00000  Uiso   1.00
C809   C     0.04749   0.74683   0.78805   0.00000  Uiso   1.00
C810   C     0.45329   0.72373   0.86898   0.00000  Uiso   1.00
C811   C     0.45310   0.77629   0.79742   0.00000  Uiso   1.00
C812   C     0.33596   0.74997   0.83334   0.00000  Uiso   1.00
C813   C     0.04752   0.75327   0.87837   0.00000  Uiso   1.00
C814   C     0.09373   0.74758   0.78746   0.00000  Uiso   1.00
C815   C     0.40708   0.72413   0.87031   0.00000  Uiso   1.00
C816   C     0.40688   0.77570   0.79611   0.00000  Uiso   1.00
C817   C     0.09375   0.75233   0.87898   0.00000  Uiso   1.00
C818   C     0.11660   0.75003   0.83322   0.00000  Uiso   1.00
C819   C     0.38383   0.74992   0.83325   0.00000  Uiso   1.00
C820   C     0.02450   0.75012   0.83321   0.00000  Uiso   1.00
C821   C     0.47617   0.75007   0.83322   0.00000  Uiso   1.00
C822   C     0.11772   0.74613   0.73788   0.00000  Uiso   1.00
C823   C     0.23286   0.60235   0.79371   0.00000  Uiso   1.00
C824   C     0.13081   0.79563   0.72085   0.00000  Uiso   1.00
C825   C     0.38426   0.69813   0.91275   0.00000  Uiso   1.00
C826   C     0.38311   0.64516   0.90307   0.00000  Uiso   1.00
C827   C     0.38382   0.80134   0.75351   0.00000  Uiso   1.00
C828   C     0.38195   0.85433   0.76295   0.00000  Uiso   1.00
C829   C     0.11776   0.75315   0.92858   0.00000  Uiso   1.00
C830   C     0.13069   0.70339   0.94515   0.00000  Uiso   1.00
C831   C     0.28311   0.89759   0.85724   0.00000  Uiso   1.00
C832   C     0.26713   0.60207   0.87298   0.00000  Uiso   1.00
C833   C     0.21696   0.89796   0.80944   0.00000  Uiso   1.00
C834   C     0.23274   0.55276   0.79287   0.00000  Uiso   1.00
C835   C     0.28390   0.94719   0.85756   0.00000  Uiso   1.00
C836   C     0.26750   0.55246   0.87375   0.00000  Uiso   1.00
H837   H     0.21926   0.62175   0.76242   0.00000  Uiso   1.00
H838   H     0.31119   0.96480   0.87615   0.00000  Uiso   1.00
H839   H     0.28069   0.53460   0.90628   0.00000  Uiso   1.00
H840   H     0.18907   0.96543   0.79049   0.00000  Uiso   1.00
H841   H     0.15030   0.81403   0.74991   0.00000  Uiso   1.00
H842   H     0.15181   0.79344   0.68692   0.00000  Uiso   1.00
H843   H     0.10047   0.81665   0.71227   0.00000  Uiso   1.00
H844   H     0.14781   0.72335   0.74027   0.00000  Uiso   1.00
H845   H     0.09584   0.73023   0.70908   0.00000  Uiso   1.00
H846   H     0.36555   0.62712   0.93416   0.00000  Uiso   1.00
H847   H     0.36518   0.63760   0.86778   0.00000  Uiso   1.00
H848   H     0.30921   0.87810   0.87608   0.00000  Uiso   1.00
H849   H     0.41752   0.63082   0.90060   0.00000  Uiso   1.00
H850   H     0.40259   0.70474   0.94808   0.00000  Uiso   1.00
H851   H     0.34984   0.71111   0.91927   0.00000  Uiso   1.00
H852   H     0.36403   0.87201   0.73183   0.00000  Uiso   1.00
H853   H     0.36401   0.86183   0.79822   0.00000  Uiso   1.00
H854   H     0.41617   0.86909   0.76529   0.00000  Uiso   1.00
H855   H     0.40229   0.79482   0.71825   0.00000  Uiso   1.00
H856   H     0.34960   0.78792   0.74695   0.00000  Uiso   1.00
H857   H     0.15023   0.68504   0.91602   0.00000  Uiso   1.00
H858   H     0.15156   0.70516   0.97924   0.00000  Uiso   1.00
H859   H     0.28051   0.62125   0.90436   0.00000  Uiso   1.00
H860   H     0.10026   0.68251   0.95341   0.00000  Uiso   1.00
H861   H     0.14792   0.77574   0.92645   0.00000  Uiso   1.00
H862   H     0.09592   0.76893   0.95751   0.00000  Uiso   1.00
H863   H     0.19077   0.87880   0.79069   0.00000  Uiso   1.00
H864   H     0.02938   0.74375   0.75325   0.00000  Uiso   1.00
H865   H     0.47149   0.70301   0.89629   0.00000  Uiso   1.00
H866   H     0.47115   0.79702   0.77006   0.00000  Uiso   1.00
H867   H     0.02943   0.75629   0.91318   0.00000  Uiso   1.00
H868   H     0.21960   0.53513   0.76034   0.00000  Uiso   1.00
N869   N     0.25000   0.62623   0.83333   0.00000  Uiso   1.00
N870   N     0.25000   0.87376   0.83333   0.00000  Uiso   1.00
O871   O     0.18453   0.78974   0.83334   0.00000  Uiso   1.00
O872   O     0.31547   0.71026   0.83333   0.00000  Uiso   1.00
O873   O     0.31547   0.78974   0.83333   0.00000  Uiso   1.00
O874   O     0.18453   0.71026   0.83334   0.00000  Uiso   1.00
O875   O     0.25000   0.78973   0.76178   0.00000  Uiso   1.00
O876   O     0.25000   0.71027   0.90489   0.00000  Uiso   1.00
O877   O     0.25000   0.78973   0.90489   0.00000  Uiso   1.00
O878   O     0.25000   0.71027   0.76178   0.00000  Uiso   1.00
Zn879  Zn    0.25000   0.80307   0.83333   0.00000  Uiso   1.00
Zn880  Zn    0.25000   0.69693   0.83333   0.00000  Uiso   1.00
C881   C     0.66421   0.75002   0.83325   0.00000  Uiso   1.00
C882   C     0.71634   0.94755   0.80907   0.00000  Uiso   1.00
C883   C     0.74995   0.75005   0.73950   0.00000  Uiso   1.00
C884   C     0.74998   0.74994   0.92717   0.00000  Uiso   1.00
C885   C     0.75017   0.52667   0.83330   0.00000  Uiso   1.00
C886   C     0.75015   0.97331   0.83330   0.00000  Uiso   1.00
C887   C     0.74992   0.75007   0.68843   0.00000  Uiso   1.00
C888   C     0.74993   0.74992   0.97824   0.00000  Uiso   1.00
C889   C     0.54749   0.74683   0.78805   0.00000  Uiso   1.00
C890   C     0.95329   0.72373   0.86898   0.00000  Uiso   1.00
C891   C     0.95310   0.77629   0.79742   0.00000  Uiso   1.00
C892   C     0.83596   0.74997   0.83334   0.00000  Uiso   1.00
C893   C     0.54752   0.75327   0.87837   0.00000  Uiso   1.00
C894   C     0.59373   0.74758   0.78746   0.00000  Uiso   1.00
C895   C     0.90708   0.72413   0.87031   0.00000  Uiso   1.00
C896   C     0.90688   0.77570   0.79611   0.00000  Uiso   1.00
C897   C     0.59375   0.75233   0.87898   0.00000  Uiso   1.00
C898   C     0.61660   0.75003   0.83322   0.00000  Uiso   1.00
C899   C     0.88383   0.74992   0.83325   0.00000  Uiso   1.00
C900   C     0.52450   0.75012   0.83321   0.00000  Uiso   1.00
C901   C     0.97617   0.75007   0.83322   0.00000  Uiso   1.00
C902   C     0.61772   0.74613   0.73788   0.00000  Uiso   1.00
C903   C     0.73286   0.60235   0.79371   0.00000  Uiso   1.00
C904   C     0.63081   0.79563   0.72085   0.00000  Uiso   1.00
C905   C     0.88426   0.69813   0.91275   0.00000  Uiso   1.00
C906   C     0.88311   0.64516   0.90307   0.00000  Uiso   1.00
C907   C     0.88382   0.80134   0.75351   0.00000  Uiso   1.00
C908   C     0.88195   0.85433   0.76295   0.00000  Uiso   1.00
C909   C     0.61776   0.75315   0.92858   0.00000  Uiso   1.00
C910   C     0.63069   0.70339   0.94515   0.00000  Uiso   1.00
C911   C     0.78311   0.89759   0.85724   0.00000  Uiso   1.00
C912   C     0.76713   0.60207   0.87298   0.00000  Uiso   1.00
C913   C     0.71696   0.89796   0.80944   0.00000  Uiso   1.00
C914   C     0.73274   0.55276   0.79287   0.00000  Uiso   1.00
C915   C     0.78390   0.94719   0.85756   0.00000  Uiso   1.00
C916   C     0.76750   0.55246   0.87375   0.00000  Uiso   1.00
H917   H     0.71926   0.62175   0.76242   0.00000  Uiso   1.00
H918   H     0.81119   0.96480   0.87615   0.00000  Uiso   1.00
H919   H     0.78069   0.53460   0.90628   0.00000  Uiso   1.00
H920   H     0.68907   0.96543   0.79049   0.00000  Uiso   1.00
H921   H     0.65030   0.81403   0.74991   0.00000  Uiso   1.00
H922   H     0.65181   0.79344   0.68692   0.00000  Uiso   1.00
H923   H     0.60047   0.81665   0.71227   0.00000  Uiso   1.00
H924   H     0.64781   0.72335   0.74027   0.00000  Uiso   1.00
H925   H     0.59584   0.73023   0.70908   0.00000  Uiso   1.00
H926   H     0.86555   0.62712   0.93416   0.00000  Uiso   1.00
H927   H     0.86518   0.63760   0.86778   0.00000  Uiso   1.00
H928   H     0.80921   0.87810   0.87608   0.00000  Uiso   1.00
H929   H     0.91752   0.63082   0.90060   0.00000  Uiso   1.00
H930   H     0.90259   0.70474   0.94808   0.00000  Uiso   1.00
H931   H     0.84984   0.71111   0.91927   0.00000  Uiso   1.00
H932   H     0.86403   0.87201   0.73183   0.00000  Uiso   1.00
H933   H     0.86401   0.86183   0.79822   0.00000  Uiso   1.00
H934   H     0.91617   0.86909   0.76529   0.00000  Uiso   1.00
H935   H     0.90229   0.79482   0.71825   0.00000  Uiso   1.00
H936   H     0.84960   0.78792   0.74695   0.00000  Uiso   1.00
H937   H     0.65023   0.68504   0.91602   0.00000  Uiso   1.00
H938   H     0.65156   0.70516   0.97924   0.00000  Uiso   1.00
H939   H     0.78051   0.62125   0.90436   0.00000  Uiso   1.00
H940   H     0.60026   0.68251   0.95341   0.00000  Uiso   1.00
H941   H     0.64792   0.77574   0.92645   0.00000  Uiso   1.00
H942   H     0.59592   0.76893   0.95751   0.00000  Uiso   1.00
H943   H     0.69077   0.87880   0.79069   0.00000  Uiso   1.00
H944   H     0.52938   0.74375   0.75325   0.00000  Uiso   1.00
H945   H     0.97149   0.70301   0.89629   0.00000  Uiso   1.00
H946   H     0.97115   0.79702   0.77006   0.00000  Uiso   1.00
H947   H     0.52943   0.75629   0.91318   0.00000  Uiso   1.00
H948   H     0.71960   0.53513   0.76034   0.00000  Uiso   1.00
N949   N     0.75000   0.62623   0.83333   0.00000  Uiso   1.00
N950   N     0.75000   0.87376   0.83333   0.00000  Uiso   1.00
O951   O     0.68453   0.78974   0.83334   0.00000  Uiso   1.00
O952   O     0.81547   0.71026   0.83333   0.00000  Uiso   1.00
O953   O     0.81547   0.78974   0.83333   0.00000  Uiso   1.00
O954   O     0.68453   0.71026   0.83334   0.00000  Uiso   1.00
O955   O     0.75000   0.78973   0.76178   0.00000  Uiso   1.00
O956   O     0.75000   0.71027   0.90489   0.00000  Uiso   1.00
O957   O     0.75000   0.78973   0.90489   0.00000  Uiso   1.00
O958   O     0.75000   0.71027   0.76178   0.00000  Uiso   1.00
Zn959  Zn    0.75000   0.80307   0.83333   0.00000  Uiso   1.00
Zn960  Zn    0.75000   0.69693   0.83333   0.00000  Uiso   1.00
loop_
_geom_bond_atom_site_label_1
_geom_bond_atom_site_label_2
_geom_bond_distance
_geom_bond_site_symmetry_2
_ccdc_geom_bond_type
C1     C18     1.427   .     S
C1     O71     1.282   .     A
C1     O74     1.281   .     A
C2     C6      1.410   .     A
C2     C33     1.407   .     A
C2     H40     1.082   .     S
C3     C7      1.370   .     S
C3     O75     1.276   .     A
C3     O78     1.275   .     A
C4     C8      1.370   .     S
C4     O77     1.275   .     A
C4     O76     1.276   .     A
C5     C36     1.411   .     A
C5     C34     1.410   .     A
C5     C166    1.514   1_545 S
C6     C35     1.411   .     A
C6     C165    1.514   .     S
C7     C648    1.168   1_554 S
C8     C327    1.168   .     S
C9     H64     1.084   .     S
C9     C14     1.386   .     A
C9     C20     1.397   .     A
C10    C15     1.386   .     A
C10    C21     1.395   .     A
C10    H65     1.084   .     S
C11    H66     1.084   .     S
C11    C21     1.395   .     A
C11    C16     1.386   .     A
C12    O72     1.284   .     A
C12    O73     1.284   .     A
C12    C19     1.435   .     S
C13    H67     1.084   .     S
C13    C20     1.397   .     A
C13    C17     1.386   .     A
C14    C18     1.408   .     A
C14    C22     1.513   .     S
C15    C19     1.415   .     A
C15    C25     1.518   .     S
C16    C27     1.518   .     S
C16    C19     1.415   .     A
C17    C29     1.513   .     S
C17    C18     1.408   .     A
C20    C101    1.449   1_455 S
C21    C100    1.449   .     S
C22    H44     1.111   .     S
C22    C24     1.527   .     S
C22    H45     1.111   .     S
C23    N69     1.363   .     A
C23    H37     1.082   .     S
C23    C34     1.407   .     A
C24    H42     1.109   .     S
C24    H41     1.107   .     S
C24    H43     1.111   .     S
C25    H50     1.112   .     S
C25    C26     1.526   .     S
C25    H51     1.109   .     S
C26    H49     1.111   .     S
C26    H47     1.110   .     S
C26    H46     1.110   .     S
C27    H56     1.109   .     S
C27    H55     1.112   .     S
C27    C28     1.526   .     S
C28    H54     1.111   .     S
C28    H53     1.110   .     S
C28    H52     1.110   .     S
C29    H61     1.110   .     S
C29    C30     1.528   .     S
C29    H62     1.111   .     S
C30    H57     1.108   .     S
C30    H60     1.111   .     S
C30    H58     1.109   .     S
C31    C35     1.408   .     A
C31    N70     1.363   .     A
C31    H48     1.082   .     S
C32    C36     1.407   .     A
C32    N69     1.363   .     A
C32    H59     1.081   .     S
C33    H63     1.081   .     S
C33    N70     1.363   .     A
C34    H68     1.082   .     S
C35    H38     1.082   .     S
C36    H39     1.082   .     S
N69    Zn80    2.006   .     S
N70    Zn79    2.006   .     S
O71    Zn79    2.000   .     S
O72    Zn80    2.000   .     S
O73    Zn79    1.998   .     S
O74    Zn80    1.998   .     S
O75    Zn79    1.958   .     S
O76    Zn80    1.958   .     S
O77    Zn79    1.955   .     S
O78    Zn80    1.955   .     S
C81    C98     1.427   .     S
C81    O151    1.282   .     A
C81    O154    1.281   .     A
C82    C86     1.410   .     A
C82    C113    1.407   .     A
C82    H120    1.082   .     S
C83    C87     1.370   .     S
C83    O155    1.276   .     A
C83    O158    1.275   .     A
C84    C88     1.370   .     S
C84    O157    1.275   .     A
C84    O156    1.276   .     A
C85    C116    1.411   .     A
C85    C114    1.410   .     A
C85    C246    1.514   1_545 S
C86    C115    1.411   .     A
C86    C245    1.514   .     S
C87    C728    1.168   1_554 S
C88    C407    1.168   .     S
C89    H144    1.084   .     S
C89    C94     1.386   .     A
C89    C100    1.397   .     A
C90    C95     1.386   .     A
C90    C101    1.395   .     A
C90    H145    1.084   .     S
C91    H146    1.084   .     S
C91    C101    1.395   .     A
C91    C96     1.386   .     A
C92    O152    1.284   .     A
C92    O153    1.284   .     A
C92    C99     1.435   .     S
C93    H147    1.084   .     S
C93    C100    1.397   .     A
C93    C97     1.386   .     A
C94    C98     1.408   .     A
C94    C102    1.513   .     S
C95    C99     1.415   .     A
C95    C105    1.518   .     S
C96    C107    1.518   .     S
C96    C99     1.415   .     A
C97    C109    1.513   .     S
C97    C98     1.408   .     A
C101   C20     1.449   1_655 S
C102   H124    1.111   .     S
C102   C104    1.527   .     S
C102   H125    1.111   .     S
C103   N149    1.363   .     A
C103   H117    1.082   .     S
C103   C114    1.407   .     A
C104   H122    1.109   .     S
C104   H121    1.107   .     S
C104   H123    1.111   .     S
C105   H130    1.112   .     S
C105   C106    1.526   .     S
C105   H131    1.109   .     S
C106   H129    1.111   .     S
C106   H127    1.110   .     S
C106   H126    1.110   .     S
C107   H136    1.109   .     S
C107   H135    1.112   .     S
C107   C108    1.526   .     S
C108   H134    1.111   .     S
C108   H133    1.110   .     S
C108   H132    1.110   .     S
C109   H141    1.110   .     S
C109   C110    1.528   .     S
C109   H142    1.111   .     S
C110   H137    1.108   .     S
C110   H140    1.111   .     S
C110   H138    1.109   .     S
C111   C115    1.408   .     A
C111   N150    1.363   .     A
C111   H128    1.082   .     S
C112   C116    1.407   .     A
C112   N149    1.363   .     A
C112   H139    1.081   .     S
C113   H143    1.081   .     S
C113   N150    1.363   .     A
C114   H148    1.082   .     S
C115   H118    1.082   .     S
C116   H119    1.082   .     S
N149   Zn160   2.006   .     S
N150   Zn159   2.006   .     S
O151   Zn159   2.000   .     S
O152   Zn160   2.000   .     S
O153   Zn159   1.998   .     S
O154   Zn160   1.998   .     S
O155   Zn159   1.958   .     S
O156   Zn160   1.958   .     S
O157   Zn159   1.955   .     S
O158   Zn160   1.955   .     S
C161   C178    1.427   .     S
C161   O231    1.282   .     A
C161   O234    1.281   .     A
C162   C166    1.410   .     A
C162   C193    1.407   .     A
C162   H200    1.082   .     S
C163   C167    1.370   .     S
C163   O235    1.276   .     A
C163   O238    1.275   .     A
C164   C168    1.370   .     S
C164   O237    1.275   .     A
C164   O236    1.276   .     A
C165   C196    1.411   .     A
C165   C194    1.410   .     A
C166   C195    1.411   .     A
C166   C5      1.514   1_565 S
C167   C808    1.168   1_554 S
C168   C487    1.168   .     S
C169   H224    1.084   .     S
C169   C174    1.386   .     A
C169   C180    1.397   .     A
C170   C175    1.386   .     A
C170   C181    1.395   .     A
C170   H225    1.084   .     S
C171   H226    1.084   .     S
C171   C181    1.395   .     A
C171   C176    1.386   .     A
C172   O232    1.284   .     A
C172   O233    1.284   .     A
C172   C179    1.435   .     S
C173   H227    1.084   .     S
C173   C180    1.397   .     A
C173   C177    1.386   .     A
C174   C178    1.408   .     A
C174   C182    1.513   .     S
C175   C179    1.415   .     A
C175   C185    1.518   .     S
C176   C187    1.518   .     S
C176   C179    1.415   .     A
C177   C189    1.513   .     S
C177   C178    1.408   .     A
C180   C261    1.449   1_455 S
C181   C260    1.449   .     S
C182   H204    1.111   .     S
C182   C184    1.527   .     S
C182   H205    1.111   .     S
C183   N229    1.363   .     A
C183   H197    1.082   .     S
C183   C194    1.407   .     A
C184   H202    1.109   .     S
C184   H201    1.107   .     S
C184   H203    1.111   .     S
C185   H210    1.112   .     S
C185   C186    1.526   .     S
C185   H211    1.109   .     S
C186   H209    1.111   .     S
C186   H207    1.110   .     S
C186   H206    1.110   .     S
C187   H216    1.109   .     S
C187   H215    1.112   .     S
C187   C188    1.526   .     S
C188   H214    1.111   .     S
C188   H213    1.110   .     S
C188   H212    1.110   .     S
C189   H221    1.110   .     S
C189   C190    1.528   .     S
C189   H222    1.111   .     S
C190   H217    1.108   .     S
C190   H220    1.111   .     S
C190   H218    1.109   .     S
C191   C195    1.408   .     A
C191   N230    1.363   .     A
C191   H208    1.082   .     S
C192   C196    1.407   .     A
C192   N229    1.363   .     A
C192   H219    1.081   .     S
C193   H223    1.081   .     S
C193   N230    1.363   .     A
C194   H228    1.082   .     S
C195   H198    1.082   .     S
C196   H199    1.082   .     S
N229   Zn240   2.006   .     S
N230   Zn239   2.006   .     S
O231   Zn239   2.000   .     S
O232   Zn240   2.000   .     S
O233   Zn239   1.998   .     S
O234   Zn240   1.998   .     S
O235   Zn239   1.958   .     S
O236   Zn240   1.958   .     S
O237   Zn239   1.955   .     S
O238   Zn240   1.955   .     S
C241   C258    1.427   .     S
C241   O311    1.282   .     A
C241   O314    1.281   .     A
C242   C246    1.410   .     A
C242   C273    1.407   .     A
C242   H280    1.082   .     S
C243   C247    1.370   .     S
C243   O315    1.276   .     A
C243   O318    1.275   .     A
C244   C248    1.370   .     S
C244   O317    1.275   .     A
C244   O316    1.276   .     A
C245   C276    1.411   .     A
C245   C274    1.410   .     A
C246   C275    1.411   .     A
C246   C85     1.514   1_565 S
C247   C888    1.168   1_554 S
C248   C567    1.168   .     S
C249   H304    1.084   .     S
C249   C254    1.386   .     A
C249   C260    1.397   .     A
C250   C255    1.386   .     A
C250   C261    1.395   .     A
C250   H305    1.084   .     S
C251   H306    1.084   .     S
C251   C261    1.395   .     A
C251   C256    1.386   .     A
C252   O312    1.284   .     A
C252   O313    1.284   .     A
C252   C259    1.435   .     S
C253   H307    1.084   .     S
C253   C260    1.397   .     A
C253   C257    1.386   .     A
C254   C258    1.408   .     A
C254   C262    1.513   .     S
C255   C259    1.415   .     A
C255   C265    1.518   .     S
C256   C267    1.518   .     S
C256   C259    1.415   .     A
C257   C269    1.513   .     S
C257   C258    1.408   .     A
C261   C180    1.449   1_655 S
C262   H284    1.111   .     S
C262   C264    1.527   .     S
C262   H285    1.111   .     S
C263   N309    1.363   .     A
C263   H277    1.082   .     S
C263   C274    1.407   .     A
C264   H282    1.109   .     S
C264   H281    1.107   .     S
C264   H283    1.111   .     S
C265   H290    1.112   .     S
C265   C266    1.526   .     S
C265   H291    1.109   .     S
C266   H289    1.111   .     S
C266   H287    1.110   .     S
C266   H286    1.110   .     S
C267   H296    1.109   .     S
C267   H295    1.112   .     S
C267   C268    1.526   .     S
C268   H294    1.111   .     S
C268   H293    1.110   .     S
C268   H292    1.110   .     S
C269   H301    1.110   .     S
C269   C270    1.528   .     S
C269   H302    1.111   .     S
C270   H297    1.108   .     S
C270   H300    1.111   .     S
C270   H298    1.109   .     S
C271   C275    1.408   .     A
C271   N310    1.363   .     A
C271   H288    1.082   .     S
C272   C276    1.407   .     A
C272   N309    1.363   .     A
C272   H299    1.081   .     S
C273   H303    1.081   .     S
C273   N310    1.363   .     A
C274   H308    1.082   .     S
C275   H278    1.082   .     S
C276   H279    1.082   .     S
N309   Zn320   2.006   .     S
N310   Zn319   2.006   .     S
O311   Zn319   2.000   .     S
O312   Zn320   2.000   .     S
O313   Zn319   1.998   .     S
O314   Zn320   1.998   .     S
O315   Zn319   1.958   .     S
O316   Zn320   1.958   .     S
O317   Zn319   1.955   .     S
O318   Zn320   1.955   .     S
C321   C338    1.427   .     S
C321   O391    1.282   .     A
C321   O394    1.281   .     A
C322   C326    1.410   .     A
C322   C353    1.407   .     A
C322   H360    1.082   .     S
C323   C327    1.370   .     S
C323   O395    1.276   .     A
C323   O398    1.275   .     A
C324   C328    1.370   .     S
C324   O397    1.275   .     A
C324   O396    1.276   .     A
C325   C356    1.411   .     A
C325   C354    1.410   .     A
C325   C486    1.514   1_545 S
C326   C355    1.411   .     A
C326   C485    1.514   .     S
C328   C647    1.168   .     S
C329   H384    1.084   .     S
C329   C334    1.386   .     A
C329   C340    1.397   .     A
C330   C335    1.386   .     A
C330   C341    1.395   .     A
C330   H385    1.084   .     S
C331   H386    1.084   .     S
C331   C341    1.395   .     A
C331   C336    1.386   .     A
C332   O392    1.284   .     A
C332   O393    1.284   .     A
C332   C339    1.435   .     S
C333   H387    1.084   .     S
C333   C340    1.397   .     A
C333   C337    1.386   .     A
C334   C338    1.408   .     A
C334   C342    1.513   .     S
C335   C339    1.415   .     A
C335   C345    1.518   .     S
C336   C347    1.518   .     S
C336   C339    1.415   .     A
C337   C349    1.513   .     S
C337   C338    1.408   .     A
C340   C421    1.449   1_455 S
C341   C420    1.449   .     S
C342   H364    1.111   .     S
C342   C344    1.527   .     S
C342   H365    1.111   .     S
C343   N389    1.363   .     A
C343   H357    1.082   .     S
C343   C354    1.407   .     A
C344   H362    1.109   .     S
C344   H361    1.107   .     S
C344   H363    1.111   .     S
C345   H370    1.112   .     S
C345   C346    1.526   .     S
C345   H371    1.109   .     S
C346   H369    1.111   .     S
C346   H367    1.110   .     S
C346   H366    1.110   .     S
C347   H376    1.109   .     S
C347   H375    1.112   .     S
C347   C348    1.526   .     S
C348   H374    1.111   .     S
C348   H373    1.110   .     S
C348   H372    1.110   .     S
C349   H381    1.110   .     S
C349   C350    1.528   .     S
C349   H382    1.111   .     S
C350   H377    1.108   .     S
C350   H380    1.111   .     S
C350   H378    1.109   .     S
C351   C355    1.408   .     A
C351   N390    1.363   .     A
C351   H368    1.082   .     S
C352   C356    1.407   .     A
C352   N389    1.363   .     A
C352   H379    1.081   .     S
C353   H383    1.081   .     S
C353   N390    1.363   .     A
C354   H388    1.082   .     S
C355   H358    1.082   .     S
C356   H359    1.082   .     S
N389   Zn400   2.006   .     S
N390   Zn399   2.006   .     S
O391   Zn399   2.000   .     S
O392   Zn400   2.000   .     S
O393   Zn399   1.998   .     S
O394   Zn400   1.998   .     S
O395   Zn399   1.958   .     S
O396   Zn400   1.958   .     S
O397   Zn399   1.955   .     S
O398   Zn400   1.955   .     S
C401   C418    1.427   .     S
C401   O471    1.282   .     A
C401   O474    1.281   .     A
C402   C406    1.410   .     A
C402   C433    1.407   .     A
C402   H440    1.082   .     S
C403   C407    1.370   .     S
C403   O475    1.276   .     A
C403   O478    1.275   .     A
C404   C408    1.370   .     S
C404   O477    1.275   .     A
C404   O476    1.276   .     A
C405   C436    1.411   .     A
C405   C434    1.410   .     A
C405   C566    1.514   1_545 S
C406   C435    1.411   .     A
C406   C565    1.514   .     S
C408   C727    1.168   .     S
C409   H464    1.084   .     S
C409   C414    1.386   .     A
C409   C420    1.397   .     A
C410   C415    1.386   .     A
C410   C421    1.395   .     A
C410   H465    1.084   .     S
C411   H466    1.084   .     S
C411   C421    1.395   .     A
C411   C416    1.386   .     A
C412   O472    1.284   .     A
C412   O473    1.284   .     A
C412   C419    1.435   .     S
C413   H467    1.084   .     S
C413   C420    1.397   .     A
C413   C417    1.386   .     A
C414   C418    1.408   .     A
C414   C422    1.513   .     S
C415   C419    1.415   .     A
C415   C425    1.518   .     S
C416   C427    1.518   .     S
C416   C419    1.415   .     A
C417   C429    1.513   .     S
C417   C418    1.408   .     A
C421   C340    1.449   1_655 S
C422   H444    1.111   .     S
C422   C424    1.527   .     S
C422   H445    1.111   .     S
C423   N469    1.363   .     A
C423   H437    1.082   .     S
C423   C434    1.407   .     A
C424   H442    1.109   .     S
C424   H441    1.107   .     S
C424   H443    1.111   .     S
C425   H450    1.112   .     S
C425   C426    1.526   .     S
C425   H451    1.109   .     S
C426   H449    1.111   .     S
C426   H447    1.110   .     S
C426   H446    1.110   .     S
C427   H456    1.109   .     S
C427   H455    1.112   .     S
C427   C428    1.526   .     S
C428   H454    1.111   .     S
C428   H453    1.110   .     S
C428   H452    1.110   .     S
C429   H461    1.110   .     S
C429   C430    1.528   .     S
C429   H462    1.111   .     S
C430   H457    1.108   .     S
C430   H460    1.111   .     S
C430   H458    1.109   .     S
C431   C435    1.408   .     A
C431   N470    1.363   .     A
C431   H448    1.082   .     S
C432   C436    1.407   .     A
C432   N469    1.363   .     A
C432   H459    1.081   .     S
C433   H463    1.081   .     S
C433   N470    1.363   .     A
C434   H468    1.082   .     S
C435   H438    1.082   .     S
C436   H439    1.082   .     S
N469   Zn480   2.006   .     S
N470   Zn479   2.006   .     S
O471   Zn479   2.000   .     S
O472   Zn480   2.000   .     S
O473   Zn479   1.998   .     S
O474   Zn480   1.998   .     S
O475   Zn479   1.958   .     S
O476   Zn480   1.958   .     S
O477   Zn479   1.955   .     S
O478   Zn480   1.955   .     S
C481   C498    1.427   .     S
C481   O551    1.282   .     A
C481   O554    1.281   .     A
C482   C486    1.410   .     A
C482   C513    1.407   .     A
C482   H520    1.082   .     S
C483   C487    1.370   .     S
C483   O555    1.276   .     A
C483   O558    1.275   .     A
C484   C488    1.370   .     S
C484   O557    1.275   .     A
C484   O556    1.276   .     A
C485   C516    1.411   .     A
C485   C514    1.410   .     A
C486   C515    1.411   .     A
C486   C325    1.514   1_565 S
C488   C807    1.168   .     S
C489   H544    1.084   .     S
C489   C494    1.386   .     A
C489   C500    1.397   .     A
C490   C495    1.386   .     A
C490   C501    1.395   .     A
C490   H545    1.084   .     S
C491   H546    1.084   .     S
C491   C501    1.395   .     A
C491   C496    1.386   .     A
C492   O552    1.284   .     A
C492   O553    1.284   .     A
C492   C499    1.435   .     S
C493   H547    1.084   .     S
C493   C500    1.397   .     A
C493   C497    1.386   .     A
C494   C498    1.408   .     A
C494   C502    1.513   .     S
C495   C499    1.415   .     A
C495   C505    1.518   .     S
C496   C507    1.518   .     S
C496   C499    1.415   .     A
C497   C509    1.513   .     S
C497   C498    1.408   .     A
C500   C581    1.449   1_455 S
C501   C580    1.449   .     S
C502   H524    1.111   .     S
C502   C504    1.527   .     S
C502   H525    1.111   .     S
C503   N549    1.363   .     A
C503   H517    1.082   .     S
C503   C514    1.407   .     A
C504   H522    1.109   .     S
C504   H521    1.107   .     S
C504   H523    1.111   .     S
C505   H530    1.112   .     S
C505   C506    1.526   .     S
C505   H531    1.109   .     S
C506   H529    1.111   .     S
C506   H527    1.110   .     S
C506   H526    1.110   .     S
C507   H536    1.109   .     S
C507   H535    1.112   .     S
C507   C508    1.526   .     S
C508   H534    1.111   .     S
C508   H533    1.110   .     S
C508   H532    1.110   .     S
C509   H541    1.110   .     S
C509   C510    1.528   .     S
C509   H542    1.111   .     S
C510   H537    1.108   .     S
C510   H540    1.111   .     S
C510   H538    1.109   .     S
C511   C515    1.408   .     A
C511   N550    1.363   .     A
C511   H528    1.082   .     S
C512   C516    1.407   .     A
C512   N549    1.363   .     A
C512   H539    1.081   .     S
C513   H543    1.081   .     S
C513   N550    1.363   .     A
C514   H548    1.082   .     S
C515   H518    1.082   .     S
C516   H519    1.082   .     S
N549   Zn560   2.006   .     S
N550   Zn559   2.006   .     S
O551   Zn559   2.000   .     S
O552   Zn560   2.000   .     S
O553   Zn559   1.998   .     S
O554   Zn560   1.998   .     S
O555   Zn559   1.958   .     S
O556   Zn560   1.958   .     S
O557   Zn559   1.955   .     S
O558   Zn560   1.955   .     S
C561   C578    1.427   .     S
C561   O631    1.282   .     A
C561   O634    1.281   .     A
C562   C566    1.410   .     A
C562   C593    1.407   .     A
C562   H600    1.082   .     S
C563   C567    1.370   .     S
C563   O635    1.276   .     A
C563   O638    1.275   .     A
C564   C568    1.370   .     S
C564   O637    1.275   .     A
C564   O636    1.276   .     A
C565   C596    1.411   .     A
C565   C594    1.410   .     A
C566   C595    1.411   .     A
C566   C405    1.514   1_565 S
C568   C887    1.168   .     S
C569   H624    1.084   .     S
C569   C574    1.386   .     A
C569   C580    1.397   .     A
C570   C575    1.386   .     A
C570   C581    1.395   .     A
C570   H625    1.084   .     S
C571   H626    1.084   .     S
C571   C581    1.395   .     A
C571   C576    1.386   .     A
C572   O632    1.284   .     A
C572   O633    1.284   .     A
C572   C579    1.435   .     S
C573   H627    1.084   .     S
C573   C580    1.397   .     A
C573   C577    1.386   .     A
C574   C578    1.408   .     A
C574   C582    1.513   .     S
C575   C579    1.415   .     A
C575   C585    1.518   .     S
C576   C587    1.518   .     S
C576   C579    1.415   .     A
C577   C589    1.513   .     S
C577   C578    1.408   .     A
C581   C500    1.449   1_655 S
C582   H604    1.111   .     S
C582   C584    1.527   .     S
C582   H605    1.111   .     S
C583   N629    1.363   .     A
C583   H597    1.082   .     S
C583   C594    1.407   .     A
C584   H602    1.109   .     S
C584   H601    1.107   .     S
C584   H603    1.111   .     S
C585   H610    1.112   .     S
C585   C586    1.526   .     S
C585   H611    1.109   .     S
C586   H609    1.111   .     S
C586   H607    1.110   .     S
C586   H606    1.110   .     S
C587   H616    1.109   .     S
C587   H615    1.112   .     S
C587   C588    1.526   .     S
C588   H614    1.111   .     S
C588   H613    1.110   .     S
C588   H612    1.110   .     S
C589   H621    1.110   .     S
C589   C590    1.528   .     S
C589   H622    1.111   .     S
C590   H617    1.108   .     S
C590   H620    1.111   .     S
C590   H618    1.109   .     S
C591   C595    1.408   .     A
C591   N630    1.363   .     A
C591   H608    1.082   .     S
C592   C596    1.407   .     A
C592   N629    1.363   .     A
C592   H619    1.081   .     S
C593   H623    1.081   .     S
C593   N630    1.363   .     A
C594   H628    1.082   .     S
C595   H598    1.082   .     S
C596   H599    1.082   .     S
N629   Zn640   2.006   .     S
N630   Zn639   2.006   .     S
O631   Zn639   2.000   .     S
O632   Zn640   2.000   .     S
O633   Zn639   1.998   .     S
O634   Zn640   1.998   .     S
O635   Zn639   1.958   .     S
O636   Zn640   1.958   .     S
O637   Zn639   1.955   .     S
O638   Zn640   1.955   .     S
C641   C658    1.427   .     S
C641   O711    1.282   .     A
C641   O714    1.281   .     A
C642   C646    1.410   .     A
C642   C673    1.407   .     A
C642   H680    1.082   .     S
C643   C647    1.370   .     S
C643   O715    1.276   .     A
C643   O718    1.275   .     A
C644   C648    1.370   .     S
C644   O717    1.275   .     A
C644   O716    1.276   .     A
C645   C676    1.411   .     A
C645   C674    1.410   .     A
C645   C806    1.514   1_545 S
C646   C675    1.411   .     A
C646   C805    1.514   .     S
C648   C7      1.168   1_556 S
C649   H704    1.084   .     S
C649   C654    1.386   .     A
C649   C660    1.397   .     A
C650   C655    1.386   .     A
C650   C661    1.395   .     A
C650   H705    1.084   .     S
C651   H706    1.084   .     S
C651   C661    1.395   .     A
C651   C656    1.386   .     A
C652   O712    1.284   .     A
C652   O713    1.284   .     A
C652   C659    1.435   .     S
C653   H707    1.084   .     S
C653   C660    1.397   .     A
C653   C657    1.386   .     A
C654   C658    1.408   .     A
C654   C662    1.513   .     S
C655   C659    1.415   .     A
C655   C665    1.518   .     S
C656   C667    1.518   .     S
C656   C659    1.415   .     A
C657   C669    1.513   .     S
C657   C658    1.408   .     A
C660   C741    1.449   1_455 S
C661   C740    1.449   .     S
C662   H684    1.111   .     S
C662   C664    1.527   .     S
C662   H685    1.111   .     S
C663   N709    1.363   .     A
C663   H677    1.082   .     S
C663   C674    1.407   .     A
C664   H682    1.109   .     S
C664   H681    1.107   .     S
C664   H683    1.111   .     S
C665   H690    1.112   .     S
C665   C666    1.526   .     S
C665   H691    1.109   .     S
C666   H689    1.111   .     S
C666   H687    1.110   .     S
C666   H686    1.110   .     S
C667   H696    1.109   .     S
C667   H695    1.112   .     S
C667   C668    1.526   .     S
C668   H694    1.111   .     S
C668   H693    1.110   .     S
C668   H692    1.110   .     S
C669   H701    1.110   .     S
C669   C670    1.528   .     S
C669   H702    1.111   .     S
C670   H697    1.108   .     S
C670   H700    1.111   .     S
C670   H698    1.109   .     S
C671   C675    1.408   .     A
C671   N710    1.363   .     A
C671   H688    1.082   .     S
C672   C676    1.407   .     A
C672   N709    1.363   .     A
C672   H699    1.081   .     S
C673   H703    1.081   .     S
C673   N710    1.363   .     A
C674   H708    1.082   .     S
C675   H678    1.082   .     S
C676   H679    1.082   .     S
N709   Zn720   2.006   .     S
N710   Zn719   2.006   .     S
O711   Zn719   2.000   .     S
O712   Zn720   2.000   .     S
O713   Zn719   1.998   .     S
O714   Zn720   1.998   .     S
O715   Zn719   1.958   .     S
O716   Zn720   1.958   .     S
O717   Zn719   1.955   .     S
O718   Zn720   1.955   .     S
C721   C738    1.427   .     S
C721   O791    1.282   .     A
C721   O794    1.281   .     A
C722   C726    1.410   .     A
C722   C753    1.407   .     A
C722   H760    1.082   .     S
C723   C727    1.370   .     S
C723   O795    1.276   .     A
C723   O798    1.275   .     A
C724   C728    1.370   .     S
C724   O797    1.275   .     A
C724   O796    1.276   .     A
C725   C756    1.411   .     A
C725   C754    1.410   .     A
C725   C886    1.514   1_545 S
C726   C755    1.411   .     A
C726   C885    1.514   .     S
C728   C87     1.168   1_556 S
C729   H784    1.084   .     S
C729   C734    1.386   .     A
C729   C740    1.397   .     A
C730   C735    1.386   .     A
C730   C741    1.395   .     A
C730   H785    1.084   .     S
C731   H786    1.084   .     S
C731   C741    1.395   .     A
C731   C736    1.386   .     A
C732   O792    1.284   .     A
C732   O793    1.284   .     A
C732   C739    1.435   .     S
C733   H787    1.084   .     S
C733   C740    1.397   .     A
C733   C737    1.386   .     A
C734   C738    1.408   .     A
C734   C742    1.513   .     S
C735   C739    1.415   .     A
C735   C745    1.518   .     S
C736   C747    1.518   .     S
C736   C739    1.415   .     A
C737   C749    1.513   .     S
C737   C738    1.408   .     A
C741   C660    1.449   1_655 S
C742   H764    1.111   .     S
C742   C744    1.527   .     S
C742   H765    1.111   .     S
C743   N789    1.363   .     A
C743   H757    1.082   .     S
C743   C754    1.407   .     A
C744   H762    1.109   .     S
C744   H761    1.107   .     S
C744   H763    1.111   .     S
C745   H770    1.112   .     S
C745   C746    1.526   .     S
C745   H771    1.109   .     S
C746   H769    1.111   .     S
C746   H767    1.110   .     S
C746   H766    1.110   .     S
C747   H776    1.109   .     S
C747   H775    1.112   .     S
C747   C748    1.526   .     S
C748   H774    1.111   .     S
C748   H773    1.110   .     S
C748   H772    1.110   .     S
C749   H781    1.110   .     S
C749   C750    1.528   .     S
C749   H782    1.111   .     S
C750   H777    1.108   .     S
C750   H780    1.111   .     S
C750   H778    1.109   .     S
C751   C755    1.408   .     A
C751   N790    1.363   .     A
C751   H768    1.082   .     S
C752   C756    1.407   .     A
C752   N789    1.363   .     A
C752   H779    1.081   .     S
C753   H783    1.081   .     S
C753   N790    1.363   .     A
C754   H788    1.082   .     S
C755   H758    1.082   .     S
C756   H759    1.082   .     S
N789   Zn800   2.006   .     S
N790   Zn799   2.006   .     S
O791   Zn799   2.000   .     S
O792   Zn800   2.000   .     S
O793   Zn799   1.998   .     S
O794   Zn800   1.998   .     S
O795   Zn799   1.958   .     S
O796   Zn800   1.958   .     S
O797   Zn799   1.955   .     S
O798   Zn800   1.955   .     S
C801   C818    1.427   .     S
C801   O871    1.282   .     A
C801   O874    1.281   .     A
C802   C806    1.410   .     A
C802   C833    1.407   .     A
C802   H840    1.082   .     S
C803   C807    1.370   .     S
C803   O875    1.276   .     A
C803   O878    1.275   .     A
C804   C808    1.370   .     S
C804   O877    1.275   .     A
C804   O876    1.276   .     A
C805   C836    1.411   .     A
C805   C834    1.410   .     A
C806   C835    1.411   .     A
C806   C645    1.514   1_565 S
C808   C167    1.168   1_556 S
C809   H864    1.084   .     S
C809   C814    1.386   .     A
C809   C820    1.397   .     A
C810   C815    1.386   .     A
C810   C821    1.395   .     A
C810   H865    1.084   .     S
C811   H866    1.084   .     S
C811   C821    1.395   .     A
C811   C816    1.386   .     A
C812   O872    1.284   .     A
C812   O873    1.284   .     A
C812   C819    1.435   .     S
C813   H867    1.084   .     S
C813   C820    1.397   .     A
C813   C817    1.386   .     A
C814   C818    1.408   .     A
C814   C822    1.513   .     S
C815   C819    1.415   .     A
C815   C825    1.518   .     S
C816   C827    1.518   .     S
C816   C819    1.415   .     A
C817   C829    1.513   .     S
C817   C818    1.408   .     A
C820   C901    1.449   1_455 S
C821   C900    1.449   .     S
C822   H844    1.111   .     S
C822   C824    1.527   .     S
C822   H845    1.111   .     S
C823   N869    1.363   .     A
C823   H837    1.082   .     S
C823   C834    1.407   .     A
C824   H842    1.109   .     S
C824   H841    1.107   .     S
C824   H843    1.111   .     S
C825   H850    1.112   .     S
C825   C826    1.526   .     S
C825   H851    1.109   .     S
C826   H849    1.111   .     S
C826   H847    1.110   .     S
C826   H846    1.110   .     S
C827   H856    1.109   .     S
C827   H855    1.112   .     S
C827   C828    1.526   .     S
C828   H854    1.111   .     S
C828   H853    1.110   .     S
C828   H852    1.110   .     S
C829   H861    1.110   .     S
C829   C830    1.528   .     S
C829   H862    1.111   .     S
C830   H857    1.108   .     S
C830   H860    1.111   .     S
C830   H858    1.109   .     S
C831   C835    1.408   .     A
C831   N870    1.363   .     A
C831   H848    1.082   .     S
C832   C836    1.407   .     A
C832   N869    1.363   .     A
C832   H859    1.081   .     S
C833   H863    1.081   .     S
C833   N870    1.363   .     A
C834   H868    1.082   .     S
C835   H838    1.082   .     S
C836   H839    1.082   .     S
N869   Zn880   2.006   .     S
N870   Zn879   2.006   .     S
O871   Zn879   2.000   .     S
O872   Zn880   2.000   .     S
O873   Zn879   1.998   .     S
O874   Zn880   1.998   .     S
O875   Zn879   1.958   .     S
O876   Zn880   1.958   .     S
O877   Zn879   1.955   .     S
O878   Zn880   1.955   .     S
C881   C898    1.427   .     S
C881   O951    1.282   .     A
C881   O954    1.281   .     A
C882   C886    1.410   .     A
C882   C913    1.407   .     A
C882   H920    1.082   .     S
C883   C887    1.370   .     S
C883   O955    1.276   .     A
C883   O958    1.275   .     A
C884   C888    1.370   .     S
C884   O957    1.275   .     A
C884   O956    1.276   .     A
C885   C916    1.411   .     A
C885   C914    1.410   .     A
C886   C915    1.411   .     A
C886   C725    1.514   1_565 S
C888   C247    1.168   1_556 S
C889   H944    1.084   .     S
C889   C894    1.386   .     A
C889   C900    1.397   .     A
C890   C895    1.386   .     A
C890   C901    1.395   .     A
C890   H945    1.084   .     S
C891   H946    1.084   .     S
C891   C901    1.395   .     A
C891   C896    1.386   .     A
C892   O952    1.284   .     A
C892   O953    1.284   .     A
C892   C899    1.435   .     S
C893   H947    1.084   .     S
C893   C900    1.397   .     A
C893   C897    1.386   .     A
C894   C898    1.408   .     A
C894   C902    1.513   .     S
C895   C899    1.415   .     A
C895   C905    1.518   .     S
C896   C907    1.518   .     S
C896   C899    1.415   .     A
C897   C909    1.513   .     S
C897   C898    1.408   .     A
C901   C820    1.449   1_655 S
C902   H924    1.111   .     S
C902   C904    1.527   .     S
C902   H925    1.111   .     S
C903   N949    1.363   .     A
C903   H917    1.082   .     S
C903   C914    1.407   .     A
C904   H922    1.109   .     S
C904   H921    1.107   .     S
C904   H923    1.111   .     S
C905   H930    1.112   .     S
C905   C906    1.526   .     S
C905   H931    1.109   .     S
C906   H929    1.111   .     S
C906   H927    1.110   .     S
C906   H926    1.110   .     S
C907   H936    1.109   .     S
C907   H935    1.112   .     S
C907   C908    1.526   .     S
C908   H934    1.111   .     S
C908   H933    1.110   .     S
C908   H932    1.110   .     S
C909   H941    1.110   .     S
C909   C910    1.528   .     S
C909   H942    1.111   .     S
C910   H937    1.108   .     S
C910   H940    1.111   .     S
C910   H938    1.109   .     S
C911   C915    1.408   .     A
C911   N950    1.363   .     A
C911   H928    1.082   .     S
C912   C916    1.407   .     A
C912   N949    1.363   .     A
C912   H939    1.081   .     S
C913   H943    1.081   .     S
C913   N950    1.363   .     A
C914   H948    1.082   .     S
C915   H918    1.082   .     S
C916   H919    1.082   .     S
N949   Zn960   2.006   .     S
N950   Zn959   2.006   .     S
O951   Zn959   2.000   .     S
O952   Zn960   2.000   .     S
O953   Zn959   1.998   .     S
O954   Zn960   1.998   .     S
O955   Zn959   1.958   .     S
O956   Zn960   1.958   .     S
O957   Zn959   1.955   .     S
O958   Zn960   1.955   .     S
