data_str_m3_o10_o18_pcu_sym.24
_audit_creation_date              2020-01-03
_audit_creation_method            'Materials Studio'
_symmetry_space_group_name_H-M    'P1'
_symmetry_Int_Tables_number       1
_symmetry_cell_setting            triclinic
loop_
_symmetry_equiv_pos_as_xyz
  x,y,z
_cell_length_a                    23.5176
_cell_length_b                    25.6942
_cell_length_c                    27.7547
_cell_angle_alpha                 93.4870
_cell_angle_beta                  94.2257
_cell_angle_gamma                 93.9177
loop_
_atom_site_label
_atom_site_type_symbol
_atom_site_fract_x
_atom_site_fract_y
_atom_site_fract_z
_atom_site_U_iso_or_equiv
_atom_site_adp_type
_atom_site_occupancy
C1     C     0.01495   0.26484   0.24873   0.00000  Uiso   1.00
C2     C     0.31165   0.16238   0.15933   0.00000  Uiso   1.00
C3     C     0.03601   0.19066   0.39197   0.00000  Uiso   1.00
C4     C     0.29913   0.15631   0.10747   0.00000  Uiso   1.00
C5     C     0.00741   0.21105   0.47264   0.00000  Uiso   1.00
C6     C     0.30272   0.10344   0.03311   0.00000  Uiso   1.00
C7     C     0.32622   0.20021   0.42316   0.00000  Uiso   1.00
C8     C     0.32357   0.11693   0.08063   0.00000  Uiso   1.00
C9     C     0.09328   0.19595   0.41078   0.00000  Uiso   1.00
C10    C     0.25503   0.18377   0.08672   0.00000  Uiso   1.00
C11    C     0.10371   0.18815   0.45984   0.00000  Uiso   1.00
C12    C     0.31834   0.06848   0.25111   0.00000  Uiso   1.00
C13    C     0.22542   0.16119   0.04360   0.00000  Uiso   1.00
C14    C     0.06263   0.20263   0.49168   0.00000  Uiso   1.00
C15    C     0.25319   0.12473   0.01451   0.00000  Uiso   1.00
C16    C     0.15353   0.16662   0.47774   0.00000  Uiso   1.00
C17    C     0.17039   0.17442   0.02738   0.00000  Uiso   1.00
C18    C     0.24578   0.23871   0.10869   0.00000  Uiso   1.00
C19    C     0.24579   0.28094   0.07171   0.00000  Uiso   1.00
C20    C     0.23076   0.33313   0.09493   0.00000  Uiso   1.00
C21    C     0.14005   0.22160   0.38254   0.00000  Uiso   1.00
C22    C     0.17603   0.26657   0.41207   0.00000  Uiso   1.00
C23    C     0.13029   0.19163   0.05921   0.00000  Uiso   1.00
C24    C     0.21535   0.29650   0.38020   0.00000  Uiso   1.00
C25    C     0.18354   0.13332   0.44812   0.00000  Uiso   1.00
C26    C     0.07692   0.20571   0.04145   0.00000  Uiso   1.00
C27    C     0.23143   0.11067   0.46709   0.00000  Uiso   1.00
C28    C     0.02273   0.31935   0.24790   0.00000  Uiso   1.00
C29    C     0.31047   0.01393   0.25166   0.00000  Uiso   1.00
C30    C     0.02254   0.17550   0.34055   0.00000  Uiso   1.00
H31    H     0.04657   0.21788   0.06656   0.00000  Uiso   1.00
H32    H     0.26746   0.33027   0.25527   0.00000  Uiso   1.00
H33    H     0.16221   0.12383   0.21497   0.00000  Uiso   1.00
H34    H     0.17122   0.21033   0.28402   0.00000  Uiso   1.00
H35    H     0.18884   0.32866   0.11080   0.00000  Uiso   1.00
H36    H     0.26425   0.01476   0.12371   0.00000  Uiso   1.00
H37    H     0.22747   0.02867   0.06696   0.00000  Uiso   1.00
H38    H     0.28886   0.28608   0.05793   0.00000  Uiso   1.00
H39    H     0.21439   0.27009   0.04040   0.00000  Uiso   1.00
H40    H     0.20702   0.23872   0.12886   0.00000  Uiso   1.00
H41    H     0.28121   0.25187   0.13642   0.00000  Uiso   1.00
H42    H     0.25249   0.08352   0.44424   0.00000  Uiso   1.00
H43    H     0.24299   0.26957   0.36167   0.00000  Uiso   1.00
H44    H     0.18972   0.31632   0.35252   0.00000  Uiso   1.00
H45    H     0.24311   0.32656   0.40293   0.00000  Uiso   1.00
H46    H     0.14735   0.29419   0.42845   0.00000  Uiso   1.00
H47    H     0.20295   0.25114   0.44169   0.00000  Uiso   1.00
H48    H     0.16842   0.19223   0.36895   0.00000  Uiso   1.00
H49    H     0.11994   0.23954   0.35074   0.00000  Uiso   1.00
H50    H     0.02491   0.09640   0.09659   0.00000  Uiso   1.00
H51    H     0.28198   0.19998   0.40938   0.00000  Uiso   1.00
H52    H     0.30804   0.22143   0.49609   0.00000  Uiso   1.00
H53    H     0.32337   0.07451   0.01185   0.00000  Uiso   1.00
H54    H     0.13752   0.18970   0.09782   0.00000  Uiso   1.00
H55    H     0.16773   0.12148   0.41124   0.00000  Uiso   1.00
H56    H     0.06573   0.00300   0.24428   0.00000  Uiso   1.00
N57    N     0.14695   0.15216   0.23740   0.00000  Uiso   1.00
N58    N     0.18638   0.18117   0.26261   0.00000  Uiso   1.00
O59    O     0.29719   0.24631   0.25310   0.00000  Uiso   1.00
O60    O     0.03614   0.08702   0.24691   0.00000  Uiso   1.00
O61    O     0.05822   0.23702   0.24502   0.00000  Uiso   1.00
O62    O     0.27512   0.09632   0.25499   0.00000  Uiso   1.00
O63    O     0.30328   0.17397   0.32247   0.00000  Uiso   1.00
O64    O     0.03005   0.15937   0.17753   0.00000  Uiso   1.00
O65    O     0.06431   0.16467   0.31439   0.00000  Uiso   1.00
O66    O     0.26902   0.16866   0.18561   0.00000  Uiso   1.00
Zn67   Zn    0.27033   0.17287   0.25540   0.00000  Uiso   1.00
Zn68   Zn    0.06300   0.16046   0.24461   0.00000  Uiso   1.00
C69    C     0.34828   0.26484   0.24873   0.00000  Uiso   1.00
C70    C     0.64498   0.16238   0.15933   0.00000  Uiso   1.00
C71    C     0.36934   0.19066   0.39197   0.00000  Uiso   1.00
C72    C     0.63246   0.15631   0.10747   0.00000  Uiso   1.00
C73    C     0.34074   0.21105   0.47264   0.00000  Uiso   1.00
C74    C     0.63605   0.10344   0.03311   0.00000  Uiso   1.00
C75    C     0.65955   0.20021   0.42316   0.00000  Uiso   1.00
C76    C     0.65690   0.11693   0.08063   0.00000  Uiso   1.00
C77    C     0.42661   0.19595   0.41078   0.00000  Uiso   1.00
C78    C     0.58836   0.18377   0.08672   0.00000  Uiso   1.00
C79    C     0.43705   0.18815   0.45984   0.00000  Uiso   1.00
C80    C     0.65167   0.06848   0.25111   0.00000  Uiso   1.00
C81    C     0.55875   0.16119   0.04360   0.00000  Uiso   1.00
C82    C     0.39596   0.20263   0.49168   0.00000  Uiso   1.00
C83    C     0.58652   0.12473   0.01451   0.00000  Uiso   1.00
C84    C     0.48686   0.16662   0.47774   0.00000  Uiso   1.00
C85    C     0.50372   0.17442   0.02738   0.00000  Uiso   1.00
C86    C     0.57912   0.23871   0.10869   0.00000  Uiso   1.00
C87    C     0.57912   0.28094   0.07171   0.00000  Uiso   1.00
C88    C     0.56410   0.33313   0.09493   0.00000  Uiso   1.00
C89    C     0.47339   0.22160   0.38254   0.00000  Uiso   1.00
C90    C     0.50936   0.26657   0.41207   0.00000  Uiso   1.00
C91    C     0.46362   0.19163   0.05921   0.00000  Uiso   1.00
C92    C     0.54868   0.29650   0.38020   0.00000  Uiso   1.00
C93    C     0.51687   0.13332   0.44812   0.00000  Uiso   1.00
C94    C     0.41025   0.20571   0.04145   0.00000  Uiso   1.00
C95    C     0.56477   0.11067   0.46709   0.00000  Uiso   1.00
C96    C     0.35606   0.31935   0.24790   0.00000  Uiso   1.00
C97    C     0.64381   0.01393   0.25166   0.00000  Uiso   1.00
C98    C     0.35587   0.17550   0.34055   0.00000  Uiso   1.00
H99    H     0.37991   0.21788   0.06656   0.00000  Uiso   1.00
H100   H     0.60080   0.33027   0.25527   0.00000  Uiso   1.00
H101   H     0.49554   0.12383   0.21497   0.00000  Uiso   1.00
H102   H     0.50455   0.21033   0.28402   0.00000  Uiso   1.00
H103   H     0.52217   0.32866   0.11080   0.00000  Uiso   1.00
H104   H     0.59758   0.01476   0.12371   0.00000  Uiso   1.00
H105   H     0.56080   0.02867   0.06696   0.00000  Uiso   1.00
H106   H     0.62219   0.28608   0.05793   0.00000  Uiso   1.00
H107   H     0.54772   0.27009   0.04040   0.00000  Uiso   1.00
H108   H     0.54035   0.23872   0.12886   0.00000  Uiso   1.00
H109   H     0.61454   0.25187   0.13642   0.00000  Uiso   1.00
H110   H     0.58582   0.08352   0.44424   0.00000  Uiso   1.00
H111   H     0.57632   0.26957   0.36167   0.00000  Uiso   1.00
H112   H     0.52305   0.31632   0.35252   0.00000  Uiso   1.00
H113   H     0.57644   0.32656   0.40293   0.00000  Uiso   1.00
H114   H     0.48068   0.29419   0.42845   0.00000  Uiso   1.00
H115   H     0.53628   0.25114   0.44169   0.00000  Uiso   1.00
H116   H     0.50175   0.19223   0.36895   0.00000  Uiso   1.00
H117   H     0.45327   0.23954   0.35074   0.00000  Uiso   1.00
H118   H     0.35824   0.09640   0.09659   0.00000  Uiso   1.00
H119   H     0.61531   0.19998   0.40938   0.00000  Uiso   1.00
H120   H     0.64138   0.22143   0.49609   0.00000  Uiso   1.00
H121   H     0.65670   0.07451   0.01185   0.00000  Uiso   1.00
H122   H     0.47086   0.18970   0.09782   0.00000  Uiso   1.00
H123   H     0.50106   0.12148   0.41124   0.00000  Uiso   1.00
H124   H     0.39906   0.00300   0.24428   0.00000  Uiso   1.00
N125   N     0.48029   0.15216   0.23740   0.00000  Uiso   1.00
N126   N     0.51971   0.18117   0.26261   0.00000  Uiso   1.00
O127   O     0.63052   0.24631   0.25310   0.00000  Uiso   1.00
O128   O     0.36948   0.08702   0.24691   0.00000  Uiso   1.00
O129   O     0.39155   0.23702   0.24502   0.00000  Uiso   1.00
O130   O     0.60845   0.09632   0.25499   0.00000  Uiso   1.00
O131   O     0.63662   0.17397   0.32247   0.00000  Uiso   1.00
O132   O     0.36338   0.15937   0.17753   0.00000  Uiso   1.00
O133   O     0.39764   0.16467   0.31439   0.00000  Uiso   1.00
O134   O     0.60236   0.16866   0.18561   0.00000  Uiso   1.00
Zn135  Zn    0.60366   0.17287   0.25540   0.00000  Uiso   1.00
Zn136  Zn    0.39634   0.16046   0.24461   0.00000  Uiso   1.00
C137   C     0.68162   0.26484   0.24873   0.00000  Uiso   1.00
C138   C     0.97832   0.16238   0.15933   0.00000  Uiso   1.00
C139   C     0.70268   0.19066   0.39197   0.00000  Uiso   1.00
C140   C     0.96580   0.15631   0.10747   0.00000  Uiso   1.00
C141   C     0.67407   0.21105   0.47264   0.00000  Uiso   1.00
C142   C     0.96939   0.10344   0.03311   0.00000  Uiso   1.00
C143   C     0.99289   0.20021   0.42316   0.00000  Uiso   1.00
C144   C     0.99023   0.11693   0.08063   0.00000  Uiso   1.00
C145   C     0.75994   0.19595   0.41078   0.00000  Uiso   1.00
C146   C     0.92169   0.18377   0.08672   0.00000  Uiso   1.00
C147   C     0.77038   0.18815   0.45984   0.00000  Uiso   1.00
C148   C     0.98501   0.06848   0.25111   0.00000  Uiso   1.00
C149   C     0.89209   0.16119   0.04360   0.00000  Uiso   1.00
C150   C     0.72929   0.20263   0.49168   0.00000  Uiso   1.00
C151   C     0.91985   0.12473   0.01451   0.00000  Uiso   1.00
C152   C     0.82019   0.16662   0.47774   0.00000  Uiso   1.00
C153   C     0.83706   0.17442   0.02738   0.00000  Uiso   1.00
C154   C     0.91245   0.23871   0.10869   0.00000  Uiso   1.00
C155   C     0.91246   0.28094   0.07171   0.00000  Uiso   1.00
C156   C     0.89743   0.33313   0.09493   0.00000  Uiso   1.00
C157   C     0.80672   0.22160   0.38254   0.00000  Uiso   1.00
C158   C     0.84269   0.26657   0.41207   0.00000  Uiso   1.00
C159   C     0.79696   0.19163   0.05921   0.00000  Uiso   1.00
C160   C     0.88202   0.29650   0.38020   0.00000  Uiso   1.00
C161   C     0.85020   0.13332   0.44812   0.00000  Uiso   1.00
C162   C     0.74359   0.20571   0.04145   0.00000  Uiso   1.00
C163   C     0.89810   0.11067   0.46709   0.00000  Uiso   1.00
C164   C     0.68939   0.31935   0.24790   0.00000  Uiso   1.00
C165   C     0.97714   0.01393   0.25166   0.00000  Uiso   1.00
C166   C     0.68920   0.17550   0.34055   0.00000  Uiso   1.00
H167   H     0.71324   0.21788   0.06656   0.00000  Uiso   1.00
H168   H     0.93413   0.33027   0.25527   0.00000  Uiso   1.00
H169   H     0.82888   0.12383   0.21497   0.00000  Uiso   1.00
H170   H     0.83789   0.21033   0.28402   0.00000  Uiso   1.00
H171   H     0.85550   0.32866   0.11080   0.00000  Uiso   1.00
H172   H     0.93091   0.01476   0.12371   0.00000  Uiso   1.00
H173   H     0.89413   0.02867   0.06696   0.00000  Uiso   1.00
H174   H     0.95552   0.28608   0.05793   0.00000  Uiso   1.00
H175   H     0.88106   0.27009   0.04040   0.00000  Uiso   1.00
H176   H     0.87369   0.23872   0.12886   0.00000  Uiso   1.00
H177   H     0.94788   0.25187   0.13642   0.00000  Uiso   1.00
H178   H     0.91915   0.08352   0.44424   0.00000  Uiso   1.00
H179   H     0.90965   0.26957   0.36167   0.00000  Uiso   1.00
H180   H     0.85639   0.31632   0.35252   0.00000  Uiso   1.00
H181   H     0.90977   0.32656   0.40293   0.00000  Uiso   1.00
H182   H     0.81402   0.29419   0.42845   0.00000  Uiso   1.00
H183   H     0.86962   0.25114   0.44169   0.00000  Uiso   1.00
H184   H     0.83508   0.19223   0.36895   0.00000  Uiso   1.00
H185   H     0.78660   0.23954   0.35074   0.00000  Uiso   1.00
H186   H     0.69158   0.09640   0.09659   0.00000  Uiso   1.00
H187   H     0.94865   0.19998   0.40938   0.00000  Uiso   1.00
H188   H     0.97471   0.22143   0.49609   0.00000  Uiso   1.00
H189   H     0.99004   0.07451   0.01185   0.00000  Uiso   1.00
H190   H     0.80419   0.18970   0.09782   0.00000  Uiso   1.00
H191   H     0.83440   0.12148   0.41124   0.00000  Uiso   1.00
H192   H     0.73240   0.00300   0.24428   0.00000  Uiso   1.00
N193   N     0.81362   0.15216   0.23740   0.00000  Uiso   1.00
N194   N     0.85305   0.18117   0.26261   0.00000  Uiso   1.00
O195   O     0.96386   0.24631   0.25310   0.00000  Uiso   1.00
O196   O     0.70281   0.08702   0.24691   0.00000  Uiso   1.00
O197   O     0.72488   0.23702   0.24502   0.00000  Uiso   1.00
O198   O     0.94178   0.09632   0.25499   0.00000  Uiso   1.00
O199   O     0.96995   0.17397   0.32247   0.00000  Uiso   1.00
O200   O     0.69672   0.15937   0.17753   0.00000  Uiso   1.00
O201   O     0.73098   0.16467   0.31439   0.00000  Uiso   1.00
O202   O     0.93569   0.16866   0.18561   0.00000  Uiso   1.00
Zn203  Zn    0.93700   0.17287   0.25540   0.00000  Uiso   1.00
Zn204  Zn    0.72967   0.16046   0.24461   0.00000  Uiso   1.00
C205   C     0.01495   0.59818   0.24873   0.00000  Uiso   1.00
C206   C     0.31165   0.49571   0.15933   0.00000  Uiso   1.00
C207   C     0.03601   0.52399   0.39197   0.00000  Uiso   1.00
C208   C     0.29913   0.48964   0.10747   0.00000  Uiso   1.00
C209   C     0.00741   0.54439   0.47264   0.00000  Uiso   1.00
C210   C     0.30272   0.43677   0.03311   0.00000  Uiso   1.00
C211   C     0.32622   0.53354   0.42316   0.00000  Uiso   1.00
C212   C     0.32357   0.45026   0.08063   0.00000  Uiso   1.00
C213   C     0.09328   0.52929   0.41078   0.00000  Uiso   1.00
C214   C     0.25503   0.51711   0.08672   0.00000  Uiso   1.00
C215   C     0.10371   0.52149   0.45984   0.00000  Uiso   1.00
C216   C     0.31834   0.40181   0.25111   0.00000  Uiso   1.00
C217   C     0.22542   0.49452   0.04360   0.00000  Uiso   1.00
C218   C     0.06263   0.53596   0.49168   0.00000  Uiso   1.00
C219   C     0.25319   0.45806   0.01451   0.00000  Uiso   1.00
C220   C     0.15353   0.49995   0.47774   0.00000  Uiso   1.00
C221   C     0.17039   0.50775   0.02738   0.00000  Uiso   1.00
C222   C     0.24578   0.57205   0.10869   0.00000  Uiso   1.00
C223   C     0.24579   0.61427   0.07171   0.00000  Uiso   1.00
C224   C     0.23076   0.66646   0.09493   0.00000  Uiso   1.00
C225   C     0.14005   0.55493   0.38254   0.00000  Uiso   1.00
C226   C     0.17603   0.59990   0.41207   0.00000  Uiso   1.00
C227   C     0.13029   0.52496   0.05921   0.00000  Uiso   1.00
C228   C     0.21535   0.62984   0.38020   0.00000  Uiso   1.00
C229   C     0.18354   0.46665   0.44812   0.00000  Uiso   1.00
C230   C     0.07692   0.53905   0.04145   0.00000  Uiso   1.00
C231   C     0.23143   0.44400   0.46709   0.00000  Uiso   1.00
C232   C     0.02273   0.65269   0.24790   0.00000  Uiso   1.00
C233   C     0.31047   0.34726   0.25166   0.00000  Uiso   1.00
C234   C     0.02254   0.50883   0.34055   0.00000  Uiso   1.00
H235   H     0.04657   0.55121   0.06656   0.00000  Uiso   1.00
H236   H     0.26746   0.66361   0.25527   0.00000  Uiso   1.00
H237   H     0.16221   0.45717   0.21497   0.00000  Uiso   1.00
H238   H     0.17122   0.54366   0.28402   0.00000  Uiso   1.00
H239   H     0.18884   0.66199   0.11080   0.00000  Uiso   1.00
H240   H     0.26425   0.34810   0.12371   0.00000  Uiso   1.00
H241   H     0.22747   0.36200   0.06696   0.00000  Uiso   1.00
H242   H     0.28886   0.61941   0.05793   0.00000  Uiso   1.00
H243   H     0.21439   0.60342   0.04040   0.00000  Uiso   1.00
H244   H     0.20702   0.57206   0.12886   0.00000  Uiso   1.00
H245   H     0.28121   0.58520   0.13642   0.00000  Uiso   1.00
H246   H     0.25249   0.41685   0.44424   0.00000  Uiso   1.00
H247   H     0.24299   0.60290   0.36167   0.00000  Uiso   1.00
H248   H     0.18972   0.64965   0.35252   0.00000  Uiso   1.00
H249   H     0.24311   0.65989   0.40293   0.00000  Uiso   1.00
H250   H     0.14735   0.62752   0.42845   0.00000  Uiso   1.00
H251   H     0.20295   0.58447   0.44169   0.00000  Uiso   1.00
H252   H     0.16842   0.52557   0.36895   0.00000  Uiso   1.00
H253   H     0.11994   0.57287   0.35074   0.00000  Uiso   1.00
H254   H     0.02491   0.42973   0.09659   0.00000  Uiso   1.00
H255   H     0.28198   0.53332   0.40938   0.00000  Uiso   1.00
H256   H     0.30804   0.55477   0.49609   0.00000  Uiso   1.00
H257   H     0.32337   0.40785   0.01185   0.00000  Uiso   1.00
H258   H     0.13752   0.52304   0.09782   0.00000  Uiso   1.00
H259   H     0.16773   0.45481   0.41124   0.00000  Uiso   1.00
H260   H     0.06573   0.33634   0.24428   0.00000  Uiso   1.00
N261   N     0.14695   0.48550   0.23740   0.00000  Uiso   1.00
N262   N     0.18638   0.51450   0.26261   0.00000  Uiso   1.00
O263   O     0.29719   0.57964   0.25310   0.00000  Uiso   1.00
O264   O     0.03614   0.42036   0.24691   0.00000  Uiso   1.00
O265   O     0.05822   0.57035   0.24502   0.00000  Uiso   1.00
O266   O     0.27512   0.42965   0.25499   0.00000  Uiso   1.00
O267   O     0.30328   0.50730   0.32247   0.00000  Uiso   1.00
O268   O     0.03005   0.49270   0.17753   0.00000  Uiso   1.00
O269   O     0.06431   0.49801   0.31439   0.00000  Uiso   1.00
O270   O     0.26902   0.50199   0.18561   0.00000  Uiso   1.00
Zn271  Zn    0.27033   0.50621   0.25540   0.00000  Uiso   1.00
Zn272  Zn    0.06300   0.49379   0.24461   0.00000  Uiso   1.00
C273   C     0.34828   0.59818   0.24873   0.00000  Uiso   1.00
C274   C     0.64498   0.49571   0.15933   0.00000  Uiso   1.00
C275   C     0.36934   0.52399   0.39197   0.00000  Uiso   1.00
C276   C     0.63246   0.48964   0.10747   0.00000  Uiso   1.00
C277   C     0.34074   0.54439   0.47264   0.00000  Uiso   1.00
C278   C     0.63605   0.43677   0.03311   0.00000  Uiso   1.00
C279   C     0.65955   0.53354   0.42316   0.00000  Uiso   1.00
C280   C     0.65690   0.45026   0.08063   0.00000  Uiso   1.00
C281   C     0.42661   0.52929   0.41078   0.00000  Uiso   1.00
C282   C     0.58836   0.51711   0.08672   0.00000  Uiso   1.00
C283   C     0.43705   0.52149   0.45984   0.00000  Uiso   1.00
C284   C     0.65167   0.40181   0.25111   0.00000  Uiso   1.00
C285   C     0.55875   0.49452   0.04360   0.00000  Uiso   1.00
C286   C     0.39596   0.53596   0.49168   0.00000  Uiso   1.00
C287   C     0.58652   0.45806   0.01451   0.00000  Uiso   1.00
C288   C     0.48686   0.49995   0.47774   0.00000  Uiso   1.00
C289   C     0.50372   0.50775   0.02738   0.00000  Uiso   1.00
C290   C     0.57912   0.57205   0.10869   0.00000  Uiso   1.00
C291   C     0.57912   0.61427   0.07171   0.00000  Uiso   1.00
C292   C     0.56410   0.66646   0.09493   0.00000  Uiso   1.00
C293   C     0.47339   0.55493   0.38254   0.00000  Uiso   1.00
C294   C     0.50936   0.59990   0.41207   0.00000  Uiso   1.00
C295   C     0.46362   0.52496   0.05921   0.00000  Uiso   1.00
C296   C     0.54868   0.62984   0.38020   0.00000  Uiso   1.00
C297   C     0.51687   0.46665   0.44812   0.00000  Uiso   1.00
C298   C     0.41025   0.53905   0.04145   0.00000  Uiso   1.00
C299   C     0.56477   0.44400   0.46709   0.00000  Uiso   1.00
C300   C     0.35606   0.65269   0.24790   0.00000  Uiso   1.00
C301   C     0.64381   0.34726   0.25166   0.00000  Uiso   1.00
C302   C     0.35587   0.50883   0.34055   0.00000  Uiso   1.00
H303   H     0.37991   0.55121   0.06656   0.00000  Uiso   1.00
H304   H     0.60080   0.66361   0.25527   0.00000  Uiso   1.00
H305   H     0.49554   0.45717   0.21497   0.00000  Uiso   1.00
H306   H     0.50455   0.54366   0.28402   0.00000  Uiso   1.00
H307   H     0.52217   0.66199   0.11080   0.00000  Uiso   1.00
H308   H     0.59758   0.34810   0.12371   0.00000  Uiso   1.00
H309   H     0.56080   0.36200   0.06696   0.00000  Uiso   1.00
H310   H     0.62219   0.61941   0.05793   0.00000  Uiso   1.00
H311   H     0.54772   0.60342   0.04040   0.00000  Uiso   1.00
H312   H     0.54035   0.57206   0.12886   0.00000  Uiso   1.00
H313   H     0.61454   0.58520   0.13642   0.00000  Uiso   1.00
H314   H     0.58582   0.41685   0.44424   0.00000  Uiso   1.00
H315   H     0.57632   0.60290   0.36167   0.00000  Uiso   1.00
H316   H     0.52305   0.64965   0.35252   0.00000  Uiso   1.00
H317   H     0.57644   0.65989   0.40293   0.00000  Uiso   1.00
H318   H     0.48068   0.62752   0.42845   0.00000  Uiso   1.00
H319   H     0.53628   0.58447   0.44169   0.00000  Uiso   1.00
H320   H     0.50175   0.52557   0.36895   0.00000  Uiso   1.00
H321   H     0.45327   0.57287   0.35074   0.00000  Uiso   1.00
H322   H     0.35824   0.42973   0.09659   0.00000  Uiso   1.00
H323   H     0.61531   0.53332   0.40938   0.00000  Uiso   1.00
H324   H     0.64138   0.55477   0.49609   0.00000  Uiso   1.00
H325   H     0.65670   0.40785   0.01185   0.00000  Uiso   1.00
H326   H     0.47086   0.52304   0.09782   0.00000  Uiso   1.00
H327   H     0.50106   0.45481   0.41124   0.00000  Uiso   1.00
H328   H     0.39906   0.33634   0.24428   0.00000  Uiso   1.00
N329   N     0.48029   0.48550   0.23740   0.00000  Uiso   1.00
N330   N     0.51971   0.51450   0.26261   0.00000  Uiso   1.00
O331   O     0.63052   0.57964   0.25310   0.00000  Uiso   1.00
O332   O     0.36948   0.42036   0.24691   0.00000  Uiso   1.00
O333   O     0.39155   0.57035   0.24502   0.00000  Uiso   1.00
O334   O     0.60845   0.42965   0.25499   0.00000  Uiso   1.00
O335   O     0.63662   0.50730   0.32247   0.00000  Uiso   1.00
O336   O     0.36338   0.49270   0.17753   0.00000  Uiso   1.00
O337   O     0.39764   0.49801   0.31439   0.00000  Uiso   1.00
O338   O     0.60236   0.50199   0.18561   0.00000  Uiso   1.00
Zn339  Zn    0.60366   0.50621   0.25540   0.00000  Uiso   1.00
Zn340  Zn    0.39634   0.49379   0.24461   0.00000  Uiso   1.00
C341   C     0.68162   0.59818   0.24873   0.00000  Uiso   1.00
C342   C     0.97832   0.49571   0.15933   0.00000  Uiso   1.00
C343   C     0.70268   0.52399   0.39197   0.00000  Uiso   1.00
C344   C     0.96580   0.48964   0.10747   0.00000  Uiso   1.00
C345   C     0.67407   0.54439   0.47264   0.00000  Uiso   1.00
C346   C     0.96939   0.43677   0.03311   0.00000  Uiso   1.00
C347   C     0.99289   0.53354   0.42316   0.00000  Uiso   1.00
C348   C     0.99023   0.45026   0.08063   0.00000  Uiso   1.00
C349   C     0.75994   0.52929   0.41078   0.00000  Uiso   1.00
C350   C     0.92169   0.51711   0.08672   0.00000  Uiso   1.00
C351   C     0.77038   0.52149   0.45984   0.00000  Uiso   1.00
C352   C     0.98501   0.40181   0.25111   0.00000  Uiso   1.00
C353   C     0.89209   0.49452   0.04360   0.00000  Uiso   1.00
C354   C     0.72929   0.53596   0.49168   0.00000  Uiso   1.00
C355   C     0.91985   0.45806   0.01451   0.00000  Uiso   1.00
C356   C     0.82019   0.49995   0.47774   0.00000  Uiso   1.00
C357   C     0.83706   0.50775   0.02738   0.00000  Uiso   1.00
C358   C     0.91245   0.57205   0.10869   0.00000  Uiso   1.00
C359   C     0.91246   0.61427   0.07171   0.00000  Uiso   1.00
C360   C     0.89743   0.66646   0.09493   0.00000  Uiso   1.00
C361   C     0.80672   0.55493   0.38254   0.00000  Uiso   1.00
C362   C     0.84269   0.59990   0.41207   0.00000  Uiso   1.00
C363   C     0.79696   0.52496   0.05921   0.00000  Uiso   1.00
C364   C     0.88202   0.62984   0.38020   0.00000  Uiso   1.00
C365   C     0.85020   0.46665   0.44812   0.00000  Uiso   1.00
C366   C     0.74359   0.53905   0.04145   0.00000  Uiso   1.00
C367   C     0.89810   0.44400   0.46709   0.00000  Uiso   1.00
C368   C     0.68939   0.65269   0.24790   0.00000  Uiso   1.00
C369   C     0.97714   0.34726   0.25166   0.00000  Uiso   1.00
C370   C     0.68920   0.50883   0.34055   0.00000  Uiso   1.00
H371   H     0.71324   0.55121   0.06656   0.00000  Uiso   1.00
H372   H     0.93413   0.66361   0.25527   0.00000  Uiso   1.00
H373   H     0.82888   0.45717   0.21497   0.00000  Uiso   1.00
H374   H     0.83789   0.54366   0.28402   0.00000  Uiso   1.00
H375   H     0.85550   0.66199   0.11080   0.00000  Uiso   1.00
H376   H     0.93091   0.34810   0.12371   0.00000  Uiso   1.00
H377   H     0.89413   0.36200   0.06696   0.00000  Uiso   1.00
H378   H     0.95552   0.61941   0.05793   0.00000  Uiso   1.00
H379   H     0.88106   0.60342   0.04040   0.00000  Uiso   1.00
H380   H     0.87369   0.57206   0.12886   0.00000  Uiso   1.00
H381   H     0.94788   0.58520   0.13642   0.00000  Uiso   1.00
H382   H     0.91915   0.41685   0.44424   0.00000  Uiso   1.00
H383   H     0.90965   0.60290   0.36167   0.00000  Uiso   1.00
H384   H     0.85639   0.64965   0.35252   0.00000  Uiso   1.00
H385   H     0.90977   0.65989   0.40293   0.00000  Uiso   1.00
H386   H     0.81402   0.62752   0.42845   0.00000  Uiso   1.00
H387   H     0.86962   0.58447   0.44169   0.00000  Uiso   1.00
H388   H     0.83508   0.52557   0.36895   0.00000  Uiso   1.00
H389   H     0.78660   0.57287   0.35074   0.00000  Uiso   1.00
H390   H     0.69158   0.42973   0.09659   0.00000  Uiso   1.00
H391   H     0.94865   0.53332   0.40938   0.00000  Uiso   1.00
H392   H     0.97471   0.55477   0.49609   0.00000  Uiso   1.00
H393   H     0.99004   0.40785   0.01185   0.00000  Uiso   1.00
H394   H     0.80419   0.52304   0.09782   0.00000  Uiso   1.00
H395   H     0.83440   0.45481   0.41124   0.00000  Uiso   1.00
H396   H     0.73240   0.33634   0.24428   0.00000  Uiso   1.00
N397   N     0.81362   0.48550   0.23740   0.00000  Uiso   1.00
N398   N     0.85305   0.51450   0.26261   0.00000  Uiso   1.00
O399   O     0.96386   0.57964   0.25310   0.00000  Uiso   1.00
O400   O     0.70281   0.42036   0.24691   0.00000  Uiso   1.00
O401   O     0.72488   0.57035   0.24502   0.00000  Uiso   1.00
O402   O     0.94178   0.42965   0.25499   0.00000  Uiso   1.00
O403   O     0.96995   0.50730   0.32247   0.00000  Uiso   1.00
O404   O     0.69672   0.49270   0.17753   0.00000  Uiso   1.00
O405   O     0.73098   0.49801   0.31439   0.00000  Uiso   1.00
O406   O     0.93569   0.50199   0.18561   0.00000  Uiso   1.00
Zn407  Zn    0.93700   0.50621   0.25540   0.00000  Uiso   1.00
Zn408  Zn    0.72967   0.49379   0.24461   0.00000  Uiso   1.00
C409   C     0.01495   0.93151   0.24873   0.00000  Uiso   1.00
C410   C     0.31165   0.82904   0.15933   0.00000  Uiso   1.00
C411   C     0.03601   0.85733   0.39197   0.00000  Uiso   1.00
C412   C     0.29913   0.82298   0.10747   0.00000  Uiso   1.00
C413   C     0.00741   0.87772   0.47264   0.00000  Uiso   1.00
C414   C     0.30272   0.77010   0.03311   0.00000  Uiso   1.00
C415   C     0.32622   0.86687   0.42316   0.00000  Uiso   1.00
C416   C     0.32357   0.78360   0.08063   0.00000  Uiso   1.00
C417   C     0.09328   0.86262   0.41078   0.00000  Uiso   1.00
C418   C     0.25503   0.85044   0.08672   0.00000  Uiso   1.00
C419   C     0.10371   0.85482   0.45984   0.00000  Uiso   1.00
C420   C     0.31834   0.73514   0.25111   0.00000  Uiso   1.00
C421   C     0.22542   0.82785   0.04360   0.00000  Uiso   1.00
C422   C     0.06263   0.86930   0.49168   0.00000  Uiso   1.00
C423   C     0.25319   0.79140   0.01451   0.00000  Uiso   1.00
C424   C     0.15353   0.83329   0.47774   0.00000  Uiso   1.00
C425   C     0.17039   0.84109   0.02738   0.00000  Uiso   1.00
C426   C     0.24578   0.90538   0.10869   0.00000  Uiso   1.00
C427   C     0.24579   0.94761   0.07171   0.00000  Uiso   1.00
C428   C     0.23076   0.99979   0.09493   0.00000  Uiso   1.00
C429   C     0.14005   0.88826   0.38254   0.00000  Uiso   1.00
C430   C     0.17603   0.93324   0.41207   0.00000  Uiso   1.00
C431   C     0.13029   0.85829   0.05921   0.00000  Uiso   1.00
C432   C     0.21535   0.96317   0.38020   0.00000  Uiso   1.00
C433   C     0.18354   0.79999   0.44812   0.00000  Uiso   1.00
C434   C     0.07692   0.87238   0.04145   0.00000  Uiso   1.00
C435   C     0.23143   0.77733   0.46709   0.00000  Uiso   1.00
C436   C     0.02273   0.98602   0.24790   0.00000  Uiso   1.00
C437   C     0.31047   0.68059   0.25166   0.00000  Uiso   1.00
C438   C     0.02254   0.84216   0.34055   0.00000  Uiso   1.00
H439   H     0.04657   0.88455   0.06656   0.00000  Uiso   1.00
H440   H     0.26746   0.99694   0.25527   0.00000  Uiso   1.00
H441   H     0.16221   0.79050   0.21497   0.00000  Uiso   1.00
H442   H     0.17122   0.87700   0.28402   0.00000  Uiso   1.00
H443   H     0.18884   0.99533   0.11080   0.00000  Uiso   1.00
H444   H     0.26425   0.68143   0.12371   0.00000  Uiso   1.00
H445   H     0.22747   0.69534   0.06696   0.00000  Uiso   1.00
H446   H     0.28886   0.95275   0.05793   0.00000  Uiso   1.00
H447   H     0.21439   0.93676   0.04040   0.00000  Uiso   1.00
H448   H     0.20702   0.90539   0.12886   0.00000  Uiso   1.00
H449   H     0.28121   0.91854   0.13642   0.00000  Uiso   1.00
H450   H     0.25249   0.75018   0.44424   0.00000  Uiso   1.00
H451   H     0.24299   0.93623   0.36167   0.00000  Uiso   1.00
H452   H     0.18972   0.98298   0.35252   0.00000  Uiso   1.00
H453   H     0.24311   0.99323   0.40293   0.00000  Uiso   1.00
H454   H     0.14735   0.96086   0.42845   0.00000  Uiso   1.00
H455   H     0.20295   0.91780   0.44169   0.00000  Uiso   1.00
H456   H     0.16842   0.85890   0.36895   0.00000  Uiso   1.00
H457   H     0.11994   0.90620   0.35074   0.00000  Uiso   1.00
H458   H     0.02491   0.76306   0.09659   0.00000  Uiso   1.00
H459   H     0.28198   0.86665   0.40938   0.00000  Uiso   1.00
H460   H     0.30804   0.88810   0.49609   0.00000  Uiso   1.00
H461   H     0.32337   0.74118   0.01185   0.00000  Uiso   1.00
H462   H     0.13752   0.85637   0.09782   0.00000  Uiso   1.00
H463   H     0.16773   0.78814   0.41124   0.00000  Uiso   1.00
H464   H     0.06573   0.66967   0.24428   0.00000  Uiso   1.00
N465   N     0.14695   0.81883   0.23740   0.00000  Uiso   1.00
N466   N     0.18638   0.84784   0.26261   0.00000  Uiso   1.00
O467   O     0.29719   0.91298   0.25310   0.00000  Uiso   1.00
O468   O     0.03614   0.75369   0.24691   0.00000  Uiso   1.00
O469   O     0.05822   0.90368   0.24502   0.00000  Uiso   1.00
O470   O     0.27512   0.76298   0.25499   0.00000  Uiso   1.00
O471   O     0.30328   0.84063   0.32247   0.00000  Uiso   1.00
O472   O     0.03005   0.82603   0.17753   0.00000  Uiso   1.00
O473   O     0.06431   0.83134   0.31439   0.00000  Uiso   1.00
O474   O     0.26902   0.83533   0.18561   0.00000  Uiso   1.00
Zn475  Zn    0.27033   0.83954   0.25540   0.00000  Uiso   1.00
Zn476  Zn    0.06300   0.82713   0.24461   0.00000  Uiso   1.00
C477   C     0.34828   0.93151   0.24873   0.00000  Uiso   1.00
C478   C     0.64498   0.82904   0.15933   0.00000  Uiso   1.00
C479   C     0.36934   0.85733   0.39197   0.00000  Uiso   1.00
C480   C     0.63246   0.82298   0.10747   0.00000  Uiso   1.00
C481   C     0.34074   0.87772   0.47264   0.00000  Uiso   1.00
C482   C     0.63605   0.77010   0.03311   0.00000  Uiso   1.00
C483   C     0.65955   0.86687   0.42316   0.00000  Uiso   1.00
C484   C     0.65690   0.78360   0.08063   0.00000  Uiso   1.00
C485   C     0.42661   0.86262   0.41078   0.00000  Uiso   1.00
C486   C     0.58836   0.85044   0.08672   0.00000  Uiso   1.00
C487   C     0.43705   0.85482   0.45984   0.00000  Uiso   1.00
C488   C     0.65167   0.73514   0.25111   0.00000  Uiso   1.00
C489   C     0.55875   0.82785   0.04360   0.00000  Uiso   1.00
C490   C     0.39596   0.86930   0.49168   0.00000  Uiso   1.00
C491   C     0.58652   0.79140   0.01451   0.00000  Uiso   1.00
C492   C     0.48686   0.83329   0.47774   0.00000  Uiso   1.00
C493   C     0.50372   0.84109   0.02738   0.00000  Uiso   1.00
C494   C     0.57912   0.90538   0.10869   0.00000  Uiso   1.00
C495   C     0.57912   0.94761   0.07171   0.00000  Uiso   1.00
C496   C     0.56410   0.99979   0.09493   0.00000  Uiso   1.00
C497   C     0.47339   0.88826   0.38254   0.00000  Uiso   1.00
C498   C     0.50936   0.93324   0.41207   0.00000  Uiso   1.00
C499   C     0.46362   0.85829   0.05921   0.00000  Uiso   1.00
C500   C     0.54868   0.96317   0.38020   0.00000  Uiso   1.00
C501   C     0.51687   0.79999   0.44812   0.00000  Uiso   1.00
C502   C     0.41025   0.87238   0.04145   0.00000  Uiso   1.00
C503   C     0.56477   0.77733   0.46709   0.00000  Uiso   1.00
C504   C     0.35606   0.98602   0.24790   0.00000  Uiso   1.00
C505   C     0.64381   0.68059   0.25166   0.00000  Uiso   1.00
C506   C     0.35587   0.84216   0.34055   0.00000  Uiso   1.00
H507   H     0.37991   0.88455   0.06656   0.00000  Uiso   1.00
H508   H     0.60080   0.99694   0.25527   0.00000  Uiso   1.00
H509   H     0.49554   0.79050   0.21497   0.00000  Uiso   1.00
H510   H     0.50455   0.87700   0.28402   0.00000  Uiso   1.00
H511   H     0.52217   0.99533   0.11080   0.00000  Uiso   1.00
H512   H     0.59758   0.68143   0.12371   0.00000  Uiso   1.00
H513   H     0.56080   0.69534   0.06696   0.00000  Uiso   1.00
H514   H     0.62219   0.95275   0.05793   0.00000  Uiso   1.00
H515   H     0.54772   0.93676   0.04040   0.00000  Uiso   1.00
H516   H     0.54035   0.90539   0.12886   0.00000  Uiso   1.00
H517   H     0.61454   0.91854   0.13642   0.00000  Uiso   1.00
H518   H     0.58582   0.75018   0.44424   0.00000  Uiso   1.00
H519   H     0.57632   0.93623   0.36167   0.00000  Uiso   1.00
H520   H     0.52305   0.98298   0.35252   0.00000  Uiso   1.00
H521   H     0.57644   0.99323   0.40293   0.00000  Uiso   1.00
H522   H     0.48068   0.96086   0.42845   0.00000  Uiso   1.00
H523   H     0.53628   0.91780   0.44169   0.00000  Uiso   1.00
H524   H     0.50175   0.85890   0.36895   0.00000  Uiso   1.00
H525   H     0.45327   0.90620   0.35074   0.00000  Uiso   1.00
H526   H     0.35824   0.76306   0.09659   0.00000  Uiso   1.00
H527   H     0.61531   0.86665   0.40938   0.00000  Uiso   1.00
H528   H     0.64138   0.88810   0.49609   0.00000  Uiso   1.00
H529   H     0.65670   0.74118   0.01185   0.00000  Uiso   1.00
H530   H     0.47086   0.85637   0.09782   0.00000  Uiso   1.00
H531   H     0.50106   0.78814   0.41124   0.00000  Uiso   1.00
H532   H     0.39906   0.66967   0.24428   0.00000  Uiso   1.00
N533   N     0.48029   0.81883   0.23740   0.00000  Uiso   1.00
N534   N     0.51971   0.84784   0.26261   0.00000  Uiso   1.00
O535   O     0.63052   0.91298   0.25310   0.00000  Uiso   1.00
O536   O     0.36948   0.75369   0.24691   0.00000  Uiso   1.00
O537   O     0.39155   0.90368   0.24502   0.00000  Uiso   1.00
O538   O     0.60845   0.76298   0.25499   0.00000  Uiso   1.00
O539   O     0.63662   0.84063   0.32247   0.00000  Uiso   1.00
O540   O     0.36338   0.82603   0.17753   0.00000  Uiso   1.00
O541   O     0.39764   0.83134   0.31439   0.00000  Uiso   1.00
O542   O     0.60236   0.83533   0.18561   0.00000  Uiso   1.00
Zn543  Zn    0.60366   0.83954   0.25540   0.00000  Uiso   1.00
Zn544  Zn    0.39634   0.82713   0.24461   0.00000  Uiso   1.00
C545   C     0.68162   0.93151   0.24873   0.00000  Uiso   1.00
C546   C     0.97832   0.82904   0.15933   0.00000  Uiso   1.00
C547   C     0.70268   0.85733   0.39197   0.00000  Uiso   1.00
C548   C     0.96580   0.82298   0.10747   0.00000  Uiso   1.00
C549   C     0.67407   0.87772   0.47264   0.00000  Uiso   1.00
C550   C     0.96939   0.77010   0.03311   0.00000  Uiso   1.00
C551   C     0.99289   0.86687   0.42316   0.00000  Uiso   1.00
C552   C     0.99023   0.78360   0.08063   0.00000  Uiso   1.00
C553   C     0.75994   0.86262   0.41078   0.00000  Uiso   1.00
C554   C     0.92169   0.85044   0.08672   0.00000  Uiso   1.00
C555   C     0.77038   0.85482   0.45984   0.00000  Uiso   1.00
C556   C     0.98501   0.73514   0.25111   0.00000  Uiso   1.00
C557   C     0.89209   0.82785   0.04360   0.00000  Uiso   1.00
C558   C     0.72929   0.86930   0.49168   0.00000  Uiso   1.00
C559   C     0.91985   0.79140   0.01451   0.00000  Uiso   1.00
C560   C     0.82019   0.83329   0.47774   0.00000  Uiso   1.00
C561   C     0.83706   0.84109   0.02738   0.00000  Uiso   1.00
C562   C     0.91245   0.90538   0.10869   0.00000  Uiso   1.00
C563   C     0.91246   0.94761   0.07171   0.00000  Uiso   1.00
C564   C     0.89743   0.99979   0.09493   0.00000  Uiso   1.00
C565   C     0.80672   0.88826   0.38254   0.00000  Uiso   1.00
C566   C     0.84269   0.93324   0.41207   0.00000  Uiso   1.00
C567   C     0.79696   0.85829   0.05921   0.00000  Uiso   1.00
C568   C     0.88202   0.96317   0.38020   0.00000  Uiso   1.00
C569   C     0.85020   0.79999   0.44812   0.00000  Uiso   1.00
C570   C     0.74359   0.87238   0.04145   0.00000  Uiso   1.00
C571   C     0.89810   0.77733   0.46709   0.00000  Uiso   1.00
C572   C     0.68939   0.98602   0.24790   0.00000  Uiso   1.00
C573   C     0.97714   0.68059   0.25166   0.00000  Uiso   1.00
C574   C     0.68920   0.84216   0.34055   0.00000  Uiso   1.00
H575   H     0.71324   0.88455   0.06656   0.00000  Uiso   1.00
H576   H     0.93413   0.99694   0.25527   0.00000  Uiso   1.00
H577   H     0.82888   0.79050   0.21497   0.00000  Uiso   1.00
H578   H     0.83789   0.87700   0.28402   0.00000  Uiso   1.00
H579   H     0.85550   0.99533   0.11080   0.00000  Uiso   1.00
H580   H     0.93091   0.68143   0.12371   0.00000  Uiso   1.00
H581   H     0.89413   0.69534   0.06696   0.00000  Uiso   1.00
H582   H     0.95552   0.95275   0.05793   0.00000  Uiso   1.00
H583   H     0.88106   0.93676   0.04040   0.00000  Uiso   1.00
H584   H     0.87369   0.90539   0.12886   0.00000  Uiso   1.00
H585   H     0.94788   0.91854   0.13642   0.00000  Uiso   1.00
H586   H     0.91915   0.75018   0.44424   0.00000  Uiso   1.00
H587   H     0.90965   0.93623   0.36167   0.00000  Uiso   1.00
H588   H     0.85639   0.98298   0.35252   0.00000  Uiso   1.00
H589   H     0.90977   0.99323   0.40293   0.00000  Uiso   1.00
H590   H     0.81402   0.96086   0.42845   0.00000  Uiso   1.00
H591   H     0.86962   0.91780   0.44169   0.00000  Uiso   1.00
H592   H     0.83508   0.85890   0.36895   0.00000  Uiso   1.00
H593   H     0.78660   0.90620   0.35074   0.00000  Uiso   1.00
H594   H     0.69158   0.76306   0.09659   0.00000  Uiso   1.00
H595   H     0.94865   0.86665   0.40938   0.00000  Uiso   1.00
H596   H     0.97471   0.88810   0.49609   0.00000  Uiso   1.00
H597   H     0.99004   0.74118   0.01185   0.00000  Uiso   1.00
H598   H     0.80419   0.85637   0.09782   0.00000  Uiso   1.00
H599   H     0.83440   0.78814   0.41124   0.00000  Uiso   1.00
H600   H     0.73240   0.66967   0.24428   0.00000  Uiso   1.00
N601   N     0.81362   0.81883   0.23740   0.00000  Uiso   1.00
N602   N     0.85305   0.84784   0.26261   0.00000  Uiso   1.00
O603   O     0.96386   0.91298   0.25310   0.00000  Uiso   1.00
O604   O     0.70281   0.75369   0.24691   0.00000  Uiso   1.00
O605   O     0.72488   0.90368   0.24502   0.00000  Uiso   1.00
O606   O     0.94178   0.76298   0.25499   0.00000  Uiso   1.00
O607   O     0.96995   0.84063   0.32247   0.00000  Uiso   1.00
O608   O     0.69672   0.82603   0.17753   0.00000  Uiso   1.00
O609   O     0.73098   0.83134   0.31439   0.00000  Uiso   1.00
O610   O     0.93569   0.83533   0.18561   0.00000  Uiso   1.00
Zn611  Zn    0.93700   0.83954   0.25540   0.00000  Uiso   1.00
Zn612  Zn    0.72967   0.82713   0.24461   0.00000  Uiso   1.00
C613   C     0.01495   0.26484   0.74873   0.00000  Uiso   1.00
C614   C     0.31165   0.16238   0.65933   0.00000  Uiso   1.00
C615   C     0.03601   0.19066   0.89197   0.00000  Uiso   1.00
C616   C     0.29913   0.15631   0.60747   0.00000  Uiso   1.00
C617   C     0.00741   0.21105   0.97264   0.00000  Uiso   1.00
C618   C     0.30272   0.10344   0.53311   0.00000  Uiso   1.00
C619   C     0.32622   0.20021   0.92316   0.00000  Uiso   1.00
C620   C     0.32357   0.11693   0.58063   0.00000  Uiso   1.00
C621   C     0.09328   0.19595   0.91078   0.00000  Uiso   1.00
C622   C     0.25503   0.18377   0.58672   0.00000  Uiso   1.00
C623   C     0.10371   0.18815   0.95984   0.00000  Uiso   1.00
C624   C     0.31834   0.06848   0.75111   0.00000  Uiso   1.00
C625   C     0.22542   0.16119   0.54360   0.00000  Uiso   1.00
C626   C     0.06263   0.20263   0.99168   0.00000  Uiso   1.00
C627   C     0.25319   0.12473   0.51451   0.00000  Uiso   1.00
C628   C     0.15353   0.16662   0.97774   0.00000  Uiso   1.00
C629   C     0.17039   0.17442   0.52738   0.00000  Uiso   1.00
C630   C     0.24578   0.23871   0.60869   0.00000  Uiso   1.00
C631   C     0.24579   0.28094   0.57171   0.00000  Uiso   1.00
C632   C     0.23076   0.33313   0.59493   0.00000  Uiso   1.00
C633   C     0.14005   0.22160   0.88254   0.00000  Uiso   1.00
C634   C     0.17603   0.26657   0.91207   0.00000  Uiso   1.00
C635   C     0.13029   0.19163   0.55921   0.00000  Uiso   1.00
C636   C     0.21535   0.29650   0.88020   0.00000  Uiso   1.00
C637   C     0.18354   0.13332   0.94812   0.00000  Uiso   1.00
C638   C     0.07692   0.20571   0.54145   0.00000  Uiso   1.00
C639   C     0.23143   0.11067   0.96709   0.00000  Uiso   1.00
C640   C     0.02273   0.31935   0.74790   0.00000  Uiso   1.00
C641   C     0.31047   0.01393   0.75166   0.00000  Uiso   1.00
C642   C     0.02254   0.17550   0.84055   0.00000  Uiso   1.00
H643   H     0.04657   0.21788   0.56656   0.00000  Uiso   1.00
H644   H     0.26746   0.33027   0.75527   0.00000  Uiso   1.00
H645   H     0.16221   0.12383   0.71497   0.00000  Uiso   1.00
H646   H     0.17122   0.21033   0.78402   0.00000  Uiso   1.00
H647   H     0.18884   0.32866   0.61080   0.00000  Uiso   1.00
H648   H     0.26425   0.01476   0.62371   0.00000  Uiso   1.00
H649   H     0.22747   0.02867   0.56696   0.00000  Uiso   1.00
H650   H     0.28886   0.28608   0.55793   0.00000  Uiso   1.00
H651   H     0.21439   0.27009   0.54040   0.00000  Uiso   1.00
H652   H     0.20702   0.23872   0.62886   0.00000  Uiso   1.00
H653   H     0.28121   0.25187   0.63642   0.00000  Uiso   1.00
H654   H     0.25249   0.08352   0.94424   0.00000  Uiso   1.00
H655   H     0.24299   0.26957   0.86167   0.00000  Uiso   1.00
H656   H     0.18972   0.31632   0.85252   0.00000  Uiso   1.00
H657   H     0.24311   0.32656   0.90293   0.00000  Uiso   1.00
H658   H     0.14735   0.29419   0.92845   0.00000  Uiso   1.00
H659   H     0.20295   0.25114   0.94169   0.00000  Uiso   1.00
H660   H     0.16842   0.19223   0.86895   0.00000  Uiso   1.00
H661   H     0.11994   0.23954   0.85074   0.00000  Uiso   1.00
H662   H     0.02491   0.09640   0.59659   0.00000  Uiso   1.00
H663   H     0.28198   0.19998   0.90938   0.00000  Uiso   1.00
H664   H     0.30804   0.22143   0.99609   0.00000  Uiso   1.00
H665   H     0.32337   0.07451   0.51185   0.00000  Uiso   1.00
H666   H     0.13752   0.18970   0.59782   0.00000  Uiso   1.00
H667   H     0.16773   0.12148   0.91124   0.00000  Uiso   1.00
H668   H     0.06573   0.00300   0.74428   0.00000  Uiso   1.00
N669   N     0.14695   0.15216   0.73740   0.00000  Uiso   1.00
N670   N     0.18638   0.18117   0.76261   0.00000  Uiso   1.00
O671   O     0.29719   0.24631   0.75310   0.00000  Uiso   1.00
O672   O     0.03614   0.08702   0.74691   0.00000  Uiso   1.00
O673   O     0.05822   0.23702   0.74502   0.00000  Uiso   1.00
O674   O     0.27512   0.09632   0.75499   0.00000  Uiso   1.00
O675   O     0.30328   0.17397   0.82247   0.00000  Uiso   1.00
O676   O     0.03005   0.15937   0.67753   0.00000  Uiso   1.00
O677   O     0.06431   0.16467   0.81439   0.00000  Uiso   1.00
O678   O     0.26902   0.16866   0.68561   0.00000  Uiso   1.00
Zn679  Zn    0.27033   0.17287   0.75540   0.00000  Uiso   1.00
Zn680  Zn    0.06300   0.16046   0.74461   0.00000  Uiso   1.00
C681   C     0.34828   0.26484   0.74873   0.00000  Uiso   1.00
C682   C     0.64498   0.16238   0.65933   0.00000  Uiso   1.00
C683   C     0.36934   0.19066   0.89197   0.00000  Uiso   1.00
C684   C     0.63246   0.15631   0.60747   0.00000  Uiso   1.00
C685   C     0.34074   0.21105   0.97264   0.00000  Uiso   1.00
C686   C     0.63605   0.10344   0.53311   0.00000  Uiso   1.00
C687   C     0.65955   0.20021   0.92316   0.00000  Uiso   1.00
C688   C     0.65690   0.11693   0.58063   0.00000  Uiso   1.00
C689   C     0.42661   0.19595   0.91078   0.00000  Uiso   1.00
C690   C     0.58836   0.18377   0.58672   0.00000  Uiso   1.00
C691   C     0.43705   0.18815   0.95984   0.00000  Uiso   1.00
C692   C     0.65167   0.06848   0.75111   0.00000  Uiso   1.00
C693   C     0.55875   0.16119   0.54360   0.00000  Uiso   1.00
C694   C     0.39596   0.20263   0.99168   0.00000  Uiso   1.00
C695   C     0.58652   0.12473   0.51451   0.00000  Uiso   1.00
C696   C     0.48686   0.16662   0.97774   0.00000  Uiso   1.00
C697   C     0.50372   0.17442   0.52738   0.00000  Uiso   1.00
C698   C     0.57912   0.23871   0.60869   0.00000  Uiso   1.00
C699   C     0.57912   0.28094   0.57171   0.00000  Uiso   1.00
C700   C     0.56410   0.33313   0.59493   0.00000  Uiso   1.00
C701   C     0.47339   0.22160   0.88254   0.00000  Uiso   1.00
C702   C     0.50936   0.26657   0.91207   0.00000  Uiso   1.00
C703   C     0.46362   0.19163   0.55921   0.00000  Uiso   1.00
C704   C     0.54868   0.29650   0.88020   0.00000  Uiso   1.00
C705   C     0.51687   0.13332   0.94812   0.00000  Uiso   1.00
C706   C     0.41025   0.20571   0.54145   0.00000  Uiso   1.00
C707   C     0.56477   0.11067   0.96709   0.00000  Uiso   1.00
C708   C     0.35606   0.31935   0.74790   0.00000  Uiso   1.00
C709   C     0.64381   0.01393   0.75166   0.00000  Uiso   1.00
C710   C     0.35587   0.17550   0.84055   0.00000  Uiso   1.00
H711   H     0.37991   0.21788   0.56656   0.00000  Uiso   1.00
H712   H     0.60080   0.33027   0.75527   0.00000  Uiso   1.00
H713   H     0.49554   0.12383   0.71497   0.00000  Uiso   1.00
H714   H     0.50455   0.21033   0.78402   0.00000  Uiso   1.00
H715   H     0.52217   0.32866   0.61080   0.00000  Uiso   1.00
H716   H     0.59758   0.01476   0.62371   0.00000  Uiso   1.00
H717   H     0.56080   0.02867   0.56696   0.00000  Uiso   1.00
H718   H     0.62219   0.28608   0.55793   0.00000  Uiso   1.00
H719   H     0.54772   0.27009   0.54040   0.00000  Uiso   1.00
H720   H     0.54035   0.23872   0.62886   0.00000  Uiso   1.00
H721   H     0.61454   0.25187   0.63642   0.00000  Uiso   1.00
H722   H     0.58582   0.08352   0.94424   0.00000  Uiso   1.00
H723   H     0.57632   0.26957   0.86167   0.00000  Uiso   1.00
H724   H     0.52305   0.31632   0.85252   0.00000  Uiso   1.00
H725   H     0.57644   0.32656   0.90293   0.00000  Uiso   1.00
H726   H     0.48068   0.29419   0.92845   0.00000  Uiso   1.00
H727   H     0.53628   0.25114   0.94169   0.00000  Uiso   1.00
H728   H     0.50175   0.19223   0.86895   0.00000  Uiso   1.00
H729   H     0.45327   0.23954   0.85074   0.00000  Uiso   1.00
H730   H     0.35824   0.09640   0.59659   0.00000  Uiso   1.00
H731   H     0.61531   0.19998   0.90938   0.00000  Uiso   1.00
H732   H     0.64138   0.22143   0.99609   0.00000  Uiso   1.00
H733   H     0.65670   0.07451   0.51185   0.00000  Uiso   1.00
H734   H     0.47086   0.18970   0.59782   0.00000  Uiso   1.00
H735   H     0.50106   0.12148   0.91124   0.00000  Uiso   1.00
H736   H     0.39906   0.00300   0.74428   0.00000  Uiso   1.00
N737   N     0.48029   0.15216   0.73740   0.00000  Uiso   1.00
N738   N     0.51971   0.18117   0.76261   0.00000  Uiso   1.00
O739   O     0.63052   0.24631   0.75310   0.00000  Uiso   1.00
O740   O     0.36948   0.08702   0.74691   0.00000  Uiso   1.00
O741   O     0.39155   0.23702   0.74502   0.00000  Uiso   1.00
O742   O     0.60845   0.09632   0.75499   0.00000  Uiso   1.00
O743   O     0.63662   0.17397   0.82247   0.00000  Uiso   1.00
O744   O     0.36338   0.15937   0.67753   0.00000  Uiso   1.00
O745   O     0.39764   0.16467   0.81439   0.00000  Uiso   1.00
O746   O     0.60236   0.16866   0.68561   0.00000  Uiso   1.00
Zn747  Zn    0.60366   0.17287   0.75540   0.00000  Uiso   1.00
Zn748  Zn    0.39634   0.16046   0.74461   0.00000  Uiso   1.00
C749   C     0.68162   0.26484   0.74873   0.00000  Uiso   1.00
C750   C     0.97832   0.16238   0.65933   0.00000  Uiso   1.00
C751   C     0.70268   0.19066   0.89197   0.00000  Uiso   1.00
C752   C     0.96580   0.15631   0.60747   0.00000  Uiso   1.00
C753   C     0.67407   0.21105   0.97264   0.00000  Uiso   1.00
C754   C     0.96939   0.10344   0.53311   0.00000  Uiso   1.00
C755   C     0.99289   0.20021   0.92316   0.00000  Uiso   1.00
C756   C     0.99023   0.11693   0.58063   0.00000  Uiso   1.00
C757   C     0.75994   0.19595   0.91078   0.00000  Uiso   1.00
C758   C     0.92169   0.18377   0.58672   0.00000  Uiso   1.00
C759   C     0.77038   0.18815   0.95984   0.00000  Uiso   1.00
C760   C     0.98501   0.06848   0.75111   0.00000  Uiso   1.00
C761   C     0.89209   0.16119   0.54360   0.00000  Uiso   1.00
C762   C     0.72929   0.20263   0.99168   0.00000  Uiso   1.00
C763   C     0.91985   0.12473   0.51451   0.00000  Uiso   1.00
C764   C     0.82019   0.16662   0.97774   0.00000  Uiso   1.00
C765   C     0.83706   0.17442   0.52738   0.00000  Uiso   1.00
C766   C     0.91245   0.23871   0.60869   0.00000  Uiso   1.00
C767   C     0.91246   0.28094   0.57171   0.00000  Uiso   1.00
C768   C     0.89743   0.33313   0.59493   0.00000  Uiso   1.00
C769   C     0.80672   0.22160   0.88254   0.00000  Uiso   1.00
C770   C     0.84269   0.26657   0.91207   0.00000  Uiso   1.00
C771   C     0.79696   0.19163   0.55921   0.00000  Uiso   1.00
C772   C     0.88202   0.29650   0.88020   0.00000  Uiso   1.00
C773   C     0.85020   0.13332   0.94812   0.00000  Uiso   1.00
C774   C     0.74359   0.20571   0.54145   0.00000  Uiso   1.00
C775   C     0.89810   0.11067   0.96709   0.00000  Uiso   1.00
C776   C     0.68939   0.31935   0.74790   0.00000  Uiso   1.00
C777   C     0.97714   0.01393   0.75166   0.00000  Uiso   1.00
C778   C     0.68920   0.17550   0.84055   0.00000  Uiso   1.00
H779   H     0.71324   0.21788   0.56656   0.00000  Uiso   1.00
H780   H     0.93413   0.33027   0.75527   0.00000  Uiso   1.00
H781   H     0.82888   0.12383   0.71497   0.00000  Uiso   1.00
H782   H     0.83789   0.21033   0.78402   0.00000  Uiso   1.00
H783   H     0.85550   0.32866   0.61080   0.00000  Uiso   1.00
H784   H     0.93091   0.01476   0.62371   0.00000  Uiso   1.00
H785   H     0.89413   0.02867   0.56696   0.00000  Uiso   1.00
H786   H     0.95552   0.28608   0.55793   0.00000  Uiso   1.00
H787   H     0.88106   0.27009   0.54040   0.00000  Uiso   1.00
H788   H     0.87369   0.23872   0.62886   0.00000  Uiso   1.00
H789   H     0.94788   0.25187   0.63642   0.00000  Uiso   1.00
H790   H     0.91915   0.08352   0.94424   0.00000  Uiso   1.00
H791   H     0.90965   0.26957   0.86167   0.00000  Uiso   1.00
H792   H     0.85639   0.31632   0.85252   0.00000  Uiso   1.00
H793   H     0.90977   0.32656   0.90293   0.00000  Uiso   1.00
H794   H     0.81402   0.29419   0.92845   0.00000  Uiso   1.00
H795   H     0.86962   0.25114   0.94169   0.00000  Uiso   1.00
H796   H     0.83508   0.19223   0.86895   0.00000  Uiso   1.00
H797   H     0.78660   0.23954   0.85074   0.00000  Uiso   1.00
H798   H     0.69158   0.09640   0.59659   0.00000  Uiso   1.00
H799   H     0.94865   0.19998   0.90938   0.00000  Uiso   1.00
H800   H     0.97471   0.22143   0.99609   0.00000  Uiso   1.00
H801   H     0.99004   0.07451   0.51185   0.00000  Uiso   1.00
H802   H     0.80419   0.18970   0.59782   0.00000  Uiso   1.00
H803   H     0.83440   0.12148   0.91124   0.00000  Uiso   1.00
H804   H     0.73240   0.00300   0.74428   0.00000  Uiso   1.00
N805   N     0.81362   0.15216   0.73740   0.00000  Uiso   1.00
N806   N     0.85305   0.18117   0.76261   0.00000  Uiso   1.00
O807   O     0.96386   0.24631   0.75310   0.00000  Uiso   1.00
O808   O     0.70281   0.08702   0.74691   0.00000  Uiso   1.00
O809   O     0.72488   0.23702   0.74502   0.00000  Uiso   1.00
O810   O     0.94178   0.09632   0.75499   0.00000  Uiso   1.00
O811   O     0.96995   0.17397   0.82247   0.00000  Uiso   1.00
O812   O     0.69672   0.15937   0.67753   0.00000  Uiso   1.00
O813   O     0.73098   0.16467   0.81439   0.00000  Uiso   1.00
O814   O     0.93569   0.16866   0.68561   0.00000  Uiso   1.00
Zn815  Zn    0.93700   0.17287   0.75540   0.00000  Uiso   1.00
Zn816  Zn    0.72967   0.16046   0.74461   0.00000  Uiso   1.00
C817   C     0.01495   0.59818   0.74873   0.00000  Uiso   1.00
C818   C     0.31165   0.49571   0.65933   0.00000  Uiso   1.00
C819   C     0.03601   0.52399   0.89197   0.00000  Uiso   1.00
C820   C     0.29913   0.48964   0.60747   0.00000  Uiso   1.00
C821   C     0.00741   0.54439   0.97264   0.00000  Uiso   1.00
C822   C     0.30272   0.43677   0.53311   0.00000  Uiso   1.00
C823   C     0.32622   0.53354   0.92316   0.00000  Uiso   1.00
C824   C     0.32357   0.45026   0.58063   0.00000  Uiso   1.00
C825   C     0.09328   0.52929   0.91078   0.00000  Uiso   1.00
C826   C     0.25503   0.51711   0.58672   0.00000  Uiso   1.00
C827   C     0.10371   0.52149   0.95984   0.00000  Uiso   1.00
C828   C     0.31834   0.40181   0.75111   0.00000  Uiso   1.00
C829   C     0.22542   0.49452   0.54360   0.00000  Uiso   1.00
C830   C     0.06263   0.53596   0.99168   0.00000  Uiso   1.00
C831   C     0.25319   0.45806   0.51451   0.00000  Uiso   1.00
C832   C     0.15353   0.49995   0.97774   0.00000  Uiso   1.00
C833   C     0.17039   0.50775   0.52738   0.00000  Uiso   1.00
C834   C     0.24578   0.57205   0.60869   0.00000  Uiso   1.00
C835   C     0.24579   0.61427   0.57171   0.00000  Uiso   1.00
C836   C     0.23076   0.66646   0.59493   0.00000  Uiso   1.00
C837   C     0.14005   0.55493   0.88254   0.00000  Uiso   1.00
C838   C     0.17603   0.59990   0.91207   0.00000  Uiso   1.00
C839   C     0.13029   0.52496   0.55921   0.00000  Uiso   1.00
C840   C     0.21535   0.62984   0.88020   0.00000  Uiso   1.00
C841   C     0.18354   0.46665   0.94812   0.00000  Uiso   1.00
C842   C     0.07692   0.53905   0.54145   0.00000  Uiso   1.00
C843   C     0.23143   0.44400   0.96709   0.00000  Uiso   1.00
C844   C     0.02273   0.65269   0.74790   0.00000  Uiso   1.00
C845   C     0.31047   0.34726   0.75166   0.00000  Uiso   1.00
C846   C     0.02254   0.50883   0.84055   0.00000  Uiso   1.00
H847   H     0.04657   0.55121   0.56656   0.00000  Uiso   1.00
H848   H     0.26746   0.66361   0.75527   0.00000  Uiso   1.00
H849   H     0.16221   0.45717   0.71497   0.00000  Uiso   1.00
H850   H     0.17122   0.54366   0.78402   0.00000  Uiso   1.00
H851   H     0.18884   0.66199   0.61080   0.00000  Uiso   1.00
H852   H     0.26425   0.34810   0.62371   0.00000  Uiso   1.00
H853   H     0.22747   0.36200   0.56696   0.00000  Uiso   1.00
H854   H     0.28886   0.61941   0.55793   0.00000  Uiso   1.00
H855   H     0.21439   0.60342   0.54040   0.00000  Uiso   1.00
H856   H     0.20702   0.57206   0.62886   0.00000  Uiso   1.00
H857   H     0.28121   0.58520   0.63642   0.00000  Uiso   1.00
H858   H     0.25249   0.41685   0.94424   0.00000  Uiso   1.00
H859   H     0.24299   0.60290   0.86167   0.00000  Uiso   1.00
H860   H     0.18972   0.64965   0.85252   0.00000  Uiso   1.00
H861   H     0.24311   0.65989   0.90293   0.00000  Uiso   1.00
H862   H     0.14735   0.62752   0.92845   0.00000  Uiso   1.00
H863   H     0.20295   0.58447   0.94169   0.00000  Uiso   1.00
H864   H     0.16842   0.52557   0.86895   0.00000  Uiso   1.00
H865   H     0.11994   0.57287   0.85074   0.00000  Uiso   1.00
H866   H     0.02491   0.42973   0.59659   0.00000  Uiso   1.00
H867   H     0.28198   0.53332   0.90938   0.00000  Uiso   1.00
H868   H     0.30804   0.55477   0.99609   0.00000  Uiso   1.00
H869   H     0.32337   0.40785   0.51185   0.00000  Uiso   1.00
H870   H     0.13752   0.52304   0.59782   0.00000  Uiso   1.00
H871   H     0.16773   0.45481   0.91124   0.00000  Uiso   1.00
H872   H     0.06573   0.33634   0.74428   0.00000  Uiso   1.00
N873   N     0.14695   0.48550   0.73740   0.00000  Uiso   1.00
N874   N     0.18638   0.51450   0.76261   0.00000  Uiso   1.00
O875   O     0.29719   0.57964   0.75310   0.00000  Uiso   1.00
O876   O     0.03614   0.42036   0.74691   0.00000  Uiso   1.00
O877   O     0.05822   0.57035   0.74502   0.00000  Uiso   1.00
O878   O     0.27512   0.42965   0.75499   0.00000  Uiso   1.00
O879   O     0.30328   0.50730   0.82247   0.00000  Uiso   1.00
O880   O     0.03005   0.49270   0.67753   0.00000  Uiso   1.00
O881   O     0.06431   0.49801   0.81439   0.00000  Uiso   1.00
O882   O     0.26902   0.50199   0.68561   0.00000  Uiso   1.00
Zn883  Zn    0.27033   0.50621   0.75540   0.00000  Uiso   1.00
Zn884  Zn    0.06300   0.49379   0.74461   0.00000  Uiso   1.00
C885   C     0.34828   0.59818   0.74873   0.00000  Uiso   1.00
C886   C     0.64498   0.49571   0.65933   0.00000  Uiso   1.00
C887   C     0.36934   0.52399   0.89197   0.00000  Uiso   1.00
C888   C     0.63246   0.48964   0.60747   0.00000  Uiso   1.00
C889   C     0.34074   0.54439   0.97264   0.00000  Uiso   1.00
C890   C     0.63605   0.43677   0.53311   0.00000  Uiso   1.00
C891   C     0.65955   0.53354   0.92316   0.00000  Uiso   1.00
C892   C     0.65690   0.45026   0.58063   0.00000  Uiso   1.00
C893   C     0.42661   0.52929   0.91078   0.00000  Uiso   1.00
C894   C     0.58836   0.51711   0.58672   0.00000  Uiso   1.00
C895   C     0.43705   0.52149   0.95984   0.00000  Uiso   1.00
C896   C     0.65167   0.40181   0.75111   0.00000  Uiso   1.00
C897   C     0.55875   0.49452   0.54360   0.00000  Uiso   1.00
C898   C     0.39596   0.53596   0.99168   0.00000  Uiso   1.00
C899   C     0.58652   0.45806   0.51451   0.00000  Uiso   1.00
C900   C     0.48686   0.49995   0.97774   0.00000  Uiso   1.00
C901   C     0.50372   0.50775   0.52738   0.00000  Uiso   1.00
C902   C     0.57912   0.57205   0.60869   0.00000  Uiso   1.00
C903   C     0.57912   0.61427   0.57171   0.00000  Uiso   1.00
C904   C     0.56410   0.66646   0.59493   0.00000  Uiso   1.00
C905   C     0.47339   0.55493   0.88254   0.00000  Uiso   1.00
C906   C     0.50936   0.59990   0.91207   0.00000  Uiso   1.00
C907   C     0.46362   0.52496   0.55921   0.00000  Uiso   1.00
C908   C     0.54868   0.62984   0.88020   0.00000  Uiso   1.00
C909   C     0.51687   0.46665   0.94812   0.00000  Uiso   1.00
C910   C     0.41025   0.53905   0.54145   0.00000  Uiso   1.00
C911   C     0.56477   0.44400   0.96709   0.00000  Uiso   1.00
C912   C     0.35606   0.65269   0.74790   0.00000  Uiso   1.00
C913   C     0.64381   0.34726   0.75166   0.00000  Uiso   1.00
C914   C     0.35587   0.50883   0.84055   0.00000  Uiso   1.00
H915   H     0.37991   0.55121   0.56656   0.00000  Uiso   1.00
H916   H     0.60080   0.66361   0.75527   0.00000  Uiso   1.00
H917   H     0.49554   0.45717   0.71497   0.00000  Uiso   1.00
H918   H     0.50455   0.54366   0.78402   0.00000  Uiso   1.00
H919   H     0.52217   0.66199   0.61080   0.00000  Uiso   1.00
H920   H     0.59758   0.34810   0.62371   0.00000  Uiso   1.00
H921   H     0.56080   0.36200   0.56696   0.00000  Uiso   1.00
H922   H     0.62219   0.61941   0.55793   0.00000  Uiso   1.00
H923   H     0.54772   0.60342   0.54040   0.00000  Uiso   1.00
H924   H     0.54035   0.57206   0.62886   0.00000  Uiso   1.00
H925   H     0.61454   0.58520   0.63642   0.00000  Uiso   1.00
H926   H     0.58582   0.41685   0.94424   0.00000  Uiso   1.00
H927   H     0.57632   0.60290   0.86167   0.00000  Uiso   1.00
H928   H     0.52305   0.64965   0.85252   0.00000  Uiso   1.00
H929   H     0.57644   0.65989   0.90293   0.00000  Uiso   1.00
H930   H     0.48068   0.62752   0.92845   0.00000  Uiso   1.00
H931   H     0.53628   0.58447   0.94169   0.00000  Uiso   1.00
H932   H     0.50175   0.52557   0.86895   0.00000  Uiso   1.00
H933   H     0.45327   0.57287   0.85074   0.00000  Uiso   1.00
H934   H     0.35824   0.42973   0.59659   0.00000  Uiso   1.00
H935   H     0.61531   0.53332   0.90938   0.00000  Uiso   1.00
H936   H     0.64138   0.55477   0.99609   0.00000  Uiso   1.00
H937   H     0.65670   0.40785   0.51185   0.00000  Uiso   1.00
H938   H     0.47086   0.52304   0.59782   0.00000  Uiso   1.00
H939   H     0.50106   0.45481   0.91124   0.00000  Uiso   1.00
H940   H     0.39906   0.33634   0.74428   0.00000  Uiso   1.00
N941   N     0.48029   0.48550   0.73740   0.00000  Uiso   1.00
N942   N     0.51971   0.51450   0.76261   0.00000  Uiso   1.00
O943   O     0.63052   0.57964   0.75310   0.00000  Uiso   1.00
O944   O     0.36948   0.42036   0.74691   0.00000  Uiso   1.00
O945   O     0.39155   0.57035   0.74502   0.00000  Uiso   1.00
O946   O     0.60845   0.42965   0.75499   0.00000  Uiso   1.00
O947   O     0.63662   0.50730   0.82247   0.00000  Uiso   1.00
O948   O     0.36338   0.49270   0.67753   0.00000  Uiso   1.00
O949   O     0.39764   0.49801   0.81439   0.00000  Uiso   1.00
O950   O     0.60236   0.50199   0.68561   0.00000  Uiso   1.00
Zn951  Zn    0.60366   0.50621   0.75540   0.00000  Uiso   1.00
Zn952  Zn    0.39634   0.49379   0.74461   0.00000  Uiso   1.00
C953   C     0.68162   0.59818   0.74873   0.00000  Uiso   1.00
C954   C     0.97832   0.49571   0.65933   0.00000  Uiso   1.00
C955   C     0.70268   0.52399   0.89197   0.00000  Uiso   1.00
C956   C     0.96580   0.48964   0.60747   0.00000  Uiso   1.00
C957   C     0.67407   0.54439   0.97264   0.00000  Uiso   1.00
C958   C     0.96939   0.43677   0.53311   0.00000  Uiso   1.00
C959   C     0.99289   0.53354   0.92316   0.00000  Uiso   1.00
C960   C     0.99023   0.45026   0.58063   0.00000  Uiso   1.00
C961   C     0.75994   0.52929   0.91078   0.00000  Uiso   1.00
C962   C     0.92169   0.51711   0.58672   0.00000  Uiso   1.00
C963   C     0.77038   0.52149   0.95984   0.00000  Uiso   1.00
C964   C     0.98501   0.40181   0.75111   0.00000  Uiso   1.00
C965   C     0.89209   0.49452   0.54360   0.00000  Uiso   1.00
C966   C     0.72929   0.53596   0.99168   0.00000  Uiso   1.00
C967   C     0.91985   0.45806   0.51451   0.00000  Uiso   1.00
C968   C     0.82019   0.49995   0.97774   0.00000  Uiso   1.00
C969   C     0.83706   0.50775   0.52738   0.00000  Uiso   1.00
C970   C     0.91245   0.57205   0.60869   0.00000  Uiso   1.00
C971   C     0.91246   0.61427   0.57171   0.00000  Uiso   1.00
C972   C     0.89743   0.66646   0.59493   0.00000  Uiso   1.00
C973   C     0.80672   0.55493   0.88254   0.00000  Uiso   1.00
C974   C     0.84269   0.59990   0.91207   0.00000  Uiso   1.00
C975   C     0.79696   0.52496   0.55921   0.00000  Uiso   1.00
C976   C     0.88202   0.62984   0.88020   0.00000  Uiso   1.00
C977   C     0.85020   0.46665   0.94812   0.00000  Uiso   1.00
C978   C     0.74359   0.53905   0.54145   0.00000  Uiso   1.00
C979   C     0.89810   0.44400   0.96709   0.00000  Uiso   1.00
C980   C     0.68939   0.65269   0.74790   0.00000  Uiso   1.00
C981   C     0.97714   0.34726   0.75166   0.00000  Uiso   1.00
C982   C     0.68920   0.50883   0.84055   0.00000  Uiso   1.00
H983   H     0.71324   0.55121   0.56656   0.00000  Uiso   1.00
H984   H     0.93413   0.66361   0.75527   0.00000  Uiso   1.00
H985   H     0.82888   0.45717   0.71497   0.00000  Uiso   1.00
H986   H     0.83789   0.54366   0.78402   0.00000  Uiso   1.00
H987   H     0.85550   0.66199   0.61080   0.00000  Uiso   1.00
H988   H     0.93091   0.34810   0.62371   0.00000  Uiso   1.00
H989   H     0.89413   0.36200   0.56696   0.00000  Uiso   1.00
H990   H     0.95552   0.61941   0.55793   0.00000  Uiso   1.00
H991   H     0.88106   0.60342   0.54040   0.00000  Uiso   1.00
H992   H     0.87369   0.57206   0.62886   0.00000  Uiso   1.00
H993   H     0.94788   0.58520   0.63642   0.00000  Uiso   1.00
H994   H     0.91915   0.41685   0.94424   0.00000  Uiso   1.00
H995   H     0.90965   0.60290   0.86167   0.00000  Uiso   1.00
H996   H     0.85639   0.64965   0.85252   0.00000  Uiso   1.00
H997   H     0.90977   0.65989   0.90293   0.00000  Uiso   1.00
H998   H     0.81402   0.62752   0.92845   0.00000  Uiso   1.00
H999   H     0.86962   0.58447   0.94169   0.00000  Uiso   1.00
H1000  H     0.83508   0.52557   0.86895   0.00000  Uiso   1.00
H1001  H     0.78660   0.57287   0.85074   0.00000  Uiso   1.00
H1002  H     0.69158   0.42973   0.59659   0.00000  Uiso   1.00
H1003  H     0.94865   0.53332   0.90938   0.00000  Uiso   1.00
H1004  H     0.97471   0.55477   0.99609   0.00000  Uiso   1.00
H1005  H     0.99004   0.40785   0.51185   0.00000  Uiso   1.00
H1006  H     0.80419   0.52304   0.59782   0.00000  Uiso   1.00
H1007  H     0.83440   0.45481   0.91124   0.00000  Uiso   1.00
H1008  H     0.73240   0.33634   0.74428   0.00000  Uiso   1.00
N1009  N     0.81362   0.48550   0.73740   0.00000  Uiso   1.00
N1010  N     0.85305   0.51450   0.76261   0.00000  Uiso   1.00
O1011  O     0.96386   0.57964   0.75310   0.00000  Uiso   1.00
O1012  O     0.70281   0.42036   0.74691   0.00000  Uiso   1.00
O1013  O     0.72488   0.57035   0.74502   0.00000  Uiso   1.00
O1014  O     0.94178   0.42965   0.75499   0.00000  Uiso   1.00
O1015  O     0.96995   0.50730   0.82247   0.00000  Uiso   1.00
O1016  O     0.69672   0.49270   0.67753   0.00000  Uiso   1.00
O1017  O     0.73098   0.49801   0.81439   0.00000  Uiso   1.00
O1018  O     0.93569   0.50199   0.68561   0.00000  Uiso   1.00
Zn1019 Zn    0.93700   0.50621   0.75540   0.00000  Uiso   1.00
Zn1020 Zn    0.72967   0.49379   0.74461   0.00000  Uiso   1.00
C1021  C     0.01495   0.93151   0.74873   0.00000  Uiso   1.00
C1022  C     0.31165   0.82904   0.65933   0.00000  Uiso   1.00
C1023  C     0.03601   0.85733   0.89197   0.00000  Uiso   1.00
C1024  C     0.29913   0.82298   0.60747   0.00000  Uiso   1.00
C1025  C     0.00741   0.87772   0.97264   0.00000  Uiso   1.00
C1026  C     0.30272   0.77010   0.53311   0.00000  Uiso   1.00
C1027  C     0.32622   0.86687   0.92316   0.00000  Uiso   1.00
C1028  C     0.32357   0.78360   0.58063   0.00000  Uiso   1.00
C1029  C     0.09328   0.86262   0.91078   0.00000  Uiso   1.00
C1030  C     0.25503   0.85044   0.58672   0.00000  Uiso   1.00
C1031  C     0.10371   0.85482   0.95984   0.00000  Uiso   1.00
C1032  C     0.31834   0.73514   0.75111   0.00000  Uiso   1.00
C1033  C     0.22542   0.82785   0.54360   0.00000  Uiso   1.00
C1034  C     0.06263   0.86930   0.99168   0.00000  Uiso   1.00
C1035  C     0.25319   0.79140   0.51451   0.00000  Uiso   1.00
C1036  C     0.15353   0.83329   0.97774   0.00000  Uiso   1.00
C1037  C     0.17039   0.84109   0.52738   0.00000  Uiso   1.00
C1038  C     0.24578   0.90538   0.60869   0.00000  Uiso   1.00
C1039  C     0.24579   0.94761   0.57171   0.00000  Uiso   1.00
C1040  C     0.23076   0.99979   0.59493   0.00000  Uiso   1.00
C1041  C     0.14005   0.88826   0.88254   0.00000  Uiso   1.00
C1042  C     0.17603   0.93324   0.91207   0.00000  Uiso   1.00
C1043  C     0.13029   0.85829   0.55921   0.00000  Uiso   1.00
C1044  C     0.21535   0.96317   0.88020   0.00000  Uiso   1.00
C1045  C     0.18354   0.79999   0.94812   0.00000  Uiso   1.00
C1046  C     0.07692   0.87238   0.54145   0.00000  Uiso   1.00
C1047  C     0.23143   0.77733   0.96709   0.00000  Uiso   1.00
C1048  C     0.02273   0.98602   0.74790   0.00000  Uiso   1.00
C1049  C     0.31047   0.68059   0.75166   0.00000  Uiso   1.00
C1050  C     0.02254   0.84216   0.84055   0.00000  Uiso   1.00
H1051  H     0.04657   0.88455   0.56656   0.00000  Uiso   1.00
H1052  H     0.26746   0.99694   0.75527   0.00000  Uiso   1.00
H1053  H     0.16221   0.79050   0.71497   0.00000  Uiso   1.00
H1054  H     0.17122   0.87700   0.78402   0.00000  Uiso   1.00
H1055  H     0.18884   0.99533   0.61080   0.00000  Uiso   1.00
H1056  H     0.26425   0.68143   0.62371   0.00000  Uiso   1.00
H1057  H     0.22747   0.69534   0.56696   0.00000  Uiso   1.00
H1058  H     0.28886   0.95275   0.55793   0.00000  Uiso   1.00
H1059  H     0.21439   0.93676   0.54040   0.00000  Uiso   1.00
H1060  H     0.20702   0.90539   0.62886   0.00000  Uiso   1.00
H1061  H     0.28121   0.91854   0.63642   0.00000  Uiso   1.00
H1062  H     0.25249   0.75018   0.94424   0.00000  Uiso   1.00
H1063  H     0.24299   0.93623   0.86167   0.00000  Uiso   1.00
H1064  H     0.18972   0.98298   0.85252   0.00000  Uiso   1.00
H1065  H     0.24311   0.99323   0.90293   0.00000  Uiso   1.00
H1066  H     0.14735   0.96086   0.92845   0.00000  Uiso   1.00
H1067  H     0.20295   0.91780   0.94169   0.00000  Uiso   1.00
H1068  H     0.16842   0.85890   0.86895   0.00000  Uiso   1.00
H1069  H     0.11994   0.90620   0.85074   0.00000  Uiso   1.00
H1070  H     0.02491   0.76306   0.59659   0.00000  Uiso   1.00
H1071  H     0.28198   0.86665   0.90938   0.00000  Uiso   1.00
H1072  H     0.30804   0.88810   0.99609   0.00000  Uiso   1.00
H1073  H     0.32337   0.74118   0.51185   0.00000  Uiso   1.00
H1074  H     0.13752   0.85637   0.59782   0.00000  Uiso   1.00
H1075  H     0.16773   0.78814   0.91124   0.00000  Uiso   1.00
H1076  H     0.06573   0.66967   0.74428   0.00000  Uiso   1.00
N1077  N     0.14695   0.81883   0.73740   0.00000  Uiso   1.00
N1078  N     0.18638   0.84784   0.76261   0.00000  Uiso   1.00
O1079  O     0.29719   0.91298   0.75310   0.00000  Uiso   1.00
O1080  O     0.03614   0.75369   0.74691   0.00000  Uiso   1.00
O1081  O     0.05822   0.90368   0.74502   0.00000  Uiso   1.00
O1082  O     0.27512   0.76298   0.75499   0.00000  Uiso   1.00
O1083  O     0.30328   0.84063   0.82247   0.00000  Uiso   1.00
O1084  O     0.03005   0.82603   0.67753   0.00000  Uiso   1.00
O1085  O     0.06431   0.83134   0.81439   0.00000  Uiso   1.00
O1086  O     0.26902   0.83533   0.68561   0.00000  Uiso   1.00
Zn1087 Zn    0.27033   0.83954   0.75540   0.00000  Uiso   1.00
Zn1088 Zn    0.06300   0.82713   0.74461   0.00000  Uiso   1.00
C1089  C     0.34828   0.93151   0.74873   0.00000  Uiso   1.00
C1090  C     0.64498   0.82904   0.65933   0.00000  Uiso   1.00
C1091  C     0.36934   0.85733   0.89197   0.00000  Uiso   1.00
C1092  C     0.63246   0.82298   0.60747   0.00000  Uiso   1.00
C1093  C     0.34074   0.87772   0.97264   0.00000  Uiso   1.00
C1094  C     0.63605   0.77010   0.53311   0.00000  Uiso   1.00
C1095  C     0.65955   0.86687   0.92316   0.00000  Uiso   1.00
C1096  C     0.65690   0.78360   0.58063   0.00000  Uiso   1.00
C1097  C     0.42661   0.86262   0.91078   0.00000  Uiso   1.00
C1098  C     0.58836   0.85044   0.58672   0.00000  Uiso   1.00
C1099  C     0.43705   0.85482   0.95984   0.00000  Uiso   1.00
C1100  C     0.65167   0.73514   0.75111   0.00000  Uiso   1.00
C1101  C     0.55875   0.82785   0.54360   0.00000  Uiso   1.00
C1102  C     0.39596   0.86930   0.99168   0.00000  Uiso   1.00
C1103  C     0.58652   0.79140   0.51451   0.00000  Uiso   1.00
C1104  C     0.48686   0.83329   0.97774   0.00000  Uiso   1.00
C1105  C     0.50372   0.84109   0.52738   0.00000  Uiso   1.00
C1106  C     0.57912   0.90538   0.60869   0.00000  Uiso   1.00
C1107  C     0.57912   0.94761   0.57171   0.00000  Uiso   1.00
C1108  C     0.56410   0.99979   0.59493   0.00000  Uiso   1.00
C1109  C     0.47339   0.88826   0.88254   0.00000  Uiso   1.00
C1110  C     0.50936   0.93324   0.91207   0.00000  Uiso   1.00
C1111  C     0.46362   0.85829   0.55921   0.00000  Uiso   1.00
C1112  C     0.54868   0.96317   0.88020   0.00000  Uiso   1.00
C1113  C     0.51687   0.79999   0.94812   0.00000  Uiso   1.00
C1114  C     0.41025   0.87238   0.54145   0.00000  Uiso   1.00
C1115  C     0.56477   0.77733   0.96709   0.00000  Uiso   1.00
C1116  C     0.35606   0.98602   0.74790   0.00000  Uiso   1.00
C1117  C     0.64381   0.68059   0.75166   0.00000  Uiso   1.00
C1118  C     0.35587   0.84216   0.84055   0.00000  Uiso   1.00
H1119  H     0.37991   0.88455   0.56656   0.00000  Uiso   1.00
H1120  H     0.60080   0.99694   0.75527   0.00000  Uiso   1.00
H1121  H     0.49554   0.79050   0.71497   0.00000  Uiso   1.00
H1122  H     0.50455   0.87700   0.78402   0.00000  Uiso   1.00
H1123  H     0.52217   0.99533   0.61080   0.00000  Uiso   1.00
H1124  H     0.59758   0.68143   0.62371   0.00000  Uiso   1.00
H1125  H     0.56080   0.69534   0.56696   0.00000  Uiso   1.00
H1126  H     0.62219   0.95275   0.55793   0.00000  Uiso   1.00
H1127  H     0.54772   0.93676   0.54040   0.00000  Uiso   1.00
H1128  H     0.54035   0.90539   0.62886   0.00000  Uiso   1.00
H1129  H     0.61454   0.91854   0.63642   0.00000  Uiso   1.00
H1130  H     0.58582   0.75018   0.94424   0.00000  Uiso   1.00
H1131  H     0.57632   0.93623   0.86167   0.00000  Uiso   1.00
H1132  H     0.52305   0.98298   0.85252   0.00000  Uiso   1.00
H1133  H     0.57644   0.99323   0.90293   0.00000  Uiso   1.00
H1134  H     0.48068   0.96086   0.92845   0.00000  Uiso   1.00
H1135  H     0.53628   0.91780   0.94169   0.00000  Uiso   1.00
H1136  H     0.50175   0.85890   0.86895   0.00000  Uiso   1.00
H1137  H     0.45327   0.90620   0.85074   0.00000  Uiso   1.00
H1138  H     0.35824   0.76306   0.59659   0.00000  Uiso   1.00
H1139  H     0.61531   0.86665   0.90938   0.00000  Uiso   1.00
H1140  H     0.64138   0.88810   0.99609   0.00000  Uiso   1.00
H1141  H     0.65670   0.74118   0.51185   0.00000  Uiso   1.00
H1142  H     0.47086   0.85637   0.59782   0.00000  Uiso   1.00
H1143  H     0.50106   0.78814   0.91124   0.00000  Uiso   1.00
H1144  H     0.39906   0.66967   0.74428   0.00000  Uiso   1.00
N1145  N     0.48029   0.81883   0.73740   0.00000  Uiso   1.00
N1146  N     0.51971   0.84784   0.76261   0.00000  Uiso   1.00
O1147  O     0.63052   0.91298   0.75310   0.00000  Uiso   1.00
O1148  O     0.36948   0.75369   0.74691   0.00000  Uiso   1.00
O1149  O     0.39155   0.90368   0.74502   0.00000  Uiso   1.00
O1150  O     0.60845   0.76298   0.75499   0.00000  Uiso   1.00
O1151  O     0.63662   0.84063   0.82247   0.00000  Uiso   1.00
O1152  O     0.36338   0.82603   0.67753   0.00000  Uiso   1.00
O1153  O     0.39764   0.83134   0.81439   0.00000  Uiso   1.00
O1154  O     0.60236   0.83533   0.68561   0.00000  Uiso   1.00
Zn1155 Zn    0.60366   0.83954   0.75540   0.00000  Uiso   1.00
Zn1156 Zn    0.39634   0.82713   0.74461   0.00000  Uiso   1.00
C1157  C     0.68162   0.93151   0.74873   0.00000  Uiso   1.00
C1158  C     0.97832   0.82904   0.65933   0.00000  Uiso   1.00
C1159  C     0.70268   0.85733   0.89197   0.00000  Uiso   1.00
C1160  C     0.96580   0.82298   0.60747   0.00000  Uiso   1.00
C1161  C     0.67407   0.87772   0.97264   0.00000  Uiso   1.00
C1162  C     0.96939   0.77010   0.53311   0.00000  Uiso   1.00
C1163  C     0.99289   0.86687   0.92316   0.00000  Uiso   1.00
C1164  C     0.99023   0.78360   0.58063   0.00000  Uiso   1.00
C1165  C     0.75994   0.86262   0.91078   0.00000  Uiso   1.00
C1166  C     0.92169   0.85044   0.58672   0.00000  Uiso   1.00
C1167  C     0.77038   0.85482   0.95984   0.00000  Uiso   1.00
C1168  C     0.98501   0.73514   0.75111   0.00000  Uiso   1.00
C1169  C     0.89209   0.82785   0.54360   0.00000  Uiso   1.00
C1170  C     0.72929   0.86930   0.99168   0.00000  Uiso   1.00
C1171  C     0.91985   0.79140   0.51451   0.00000  Uiso   1.00
C1172  C     0.82019   0.83329   0.97774   0.00000  Uiso   1.00
C1173  C     0.83706   0.84109   0.52738   0.00000  Uiso   1.00
C1174  C     0.91245   0.90538   0.60869   0.00000  Uiso   1.00
C1175  C     0.91246   0.94761   0.57171   0.00000  Uiso   1.00
C1176  C     0.89743   0.99979   0.59493   0.00000  Uiso   1.00
C1177  C     0.80672   0.88826   0.88254   0.00000  Uiso   1.00
C1178  C     0.84269   0.93324   0.91207   0.00000  Uiso   1.00
C1179  C     0.79696   0.85829   0.55921   0.00000  Uiso   1.00
C1180  C     0.88202   0.96317   0.88020   0.00000  Uiso   1.00
C1181  C     0.85020   0.79999   0.94812   0.00000  Uiso   1.00
C1182  C     0.74359   0.87238   0.54145   0.00000  Uiso   1.00
C1183  C     0.89810   0.77733   0.96709   0.00000  Uiso   1.00
C1184  C     0.68939   0.98602   0.74790   0.00000  Uiso   1.00
C1185  C     0.97714   0.68059   0.75166   0.00000  Uiso   1.00
C1186  C     0.68920   0.84216   0.84055   0.00000  Uiso   1.00
H1187  H     0.71324   0.88455   0.56656   0.00000  Uiso   1.00
H1188  H     0.93413   0.99694   0.75527   0.00000  Uiso   1.00
H1189  H     0.82888   0.79050   0.71497   0.00000  Uiso   1.00
H1190  H     0.83789   0.87700   0.78402   0.00000  Uiso   1.00
H1191  H     0.85550   0.99533   0.61080   0.00000  Uiso   1.00
H1192  H     0.93091   0.68143   0.62371   0.00000  Uiso   1.00
H1193  H     0.89413   0.69534   0.56696   0.00000  Uiso   1.00
H1194  H     0.95552   0.95275   0.55793   0.00000  Uiso   1.00
H1195  H     0.88106   0.93676   0.54040   0.00000  Uiso   1.00
H1196  H     0.87369   0.90539   0.62886   0.00000  Uiso   1.00
H1197  H     0.94788   0.91854   0.63642   0.00000  Uiso   1.00
H1198  H     0.91915   0.75018   0.94424   0.00000  Uiso   1.00
H1199  H     0.90965   0.93623   0.86167   0.00000  Uiso   1.00
H1200  H     0.85639   0.98298   0.85252   0.00000  Uiso   1.00
H1201  H     0.90977   0.99323   0.90293   0.00000  Uiso   1.00
H1202  H     0.81402   0.96086   0.92845   0.00000  Uiso   1.00
H1203  H     0.86962   0.91780   0.94169   0.00000  Uiso   1.00
H1204  H     0.83508   0.85890   0.86895   0.00000  Uiso   1.00
H1205  H     0.78660   0.90620   0.85074   0.00000  Uiso   1.00
H1206  H     0.69158   0.76306   0.59659   0.00000  Uiso   1.00
H1207  H     0.94865   0.86665   0.90938   0.00000  Uiso   1.00
H1208  H     0.97471   0.88810   0.99609   0.00000  Uiso   1.00
H1209  H     0.99004   0.74118   0.51185   0.00000  Uiso   1.00
H1210  H     0.80419   0.85637   0.59782   0.00000  Uiso   1.00
H1211  H     0.83440   0.78814   0.91124   0.00000  Uiso   1.00
H1212  H     0.73240   0.66967   0.74428   0.00000  Uiso   1.00
N1213  N     0.81362   0.81883   0.73740   0.00000  Uiso   1.00
N1214  N     0.85305   0.84784   0.76261   0.00000  Uiso   1.00
O1215  O     0.96386   0.91298   0.75310   0.00000  Uiso   1.00
O1216  O     0.70281   0.75369   0.74691   0.00000  Uiso   1.00
O1217  O     0.72488   0.90368   0.74502   0.00000  Uiso   1.00
O1218  O     0.94178   0.76298   0.75499   0.00000  Uiso   1.00
O1219  O     0.96995   0.84063   0.82247   0.00000  Uiso   1.00
O1220  O     0.69672   0.82603   0.67753   0.00000  Uiso   1.00
O1221  O     0.73098   0.83134   0.81439   0.00000  Uiso   1.00
O1222  O     0.93569   0.83533   0.68561   0.00000  Uiso   1.00
Zn1223 Zn    0.93700   0.83954   0.75540   0.00000  Uiso   1.00
Zn1224 Zn    0.72967   0.82713   0.74461   0.00000  Uiso   1.00
loop_
_geom_bond_atom_site_label_1
_geom_bond_atom_site_label_2
_geom_bond_distance
_geom_bond_site_symmetry_2
_ccdc_geom_bond_type
C1     C28     1.402   .     S
C1     O61     1.290   .     A
C1     O195    1.279   1_455 S
C2     C4      1.444   .     S
C2     O66     1.296   .     A
C2     O132    1.292   .     S
C3     C9      1.403   .     A
C3     C30     1.462   .     S
C3     C143    1.406   1_455 S
C4     C8      1.400   .     A
C4     C10     1.403   .     A
C5     C14     1.401   .     A
C5     C143    1.397   1_455 S
C5     H188    1.080   1_455 S
C6     C8      1.388   .     A
C6     H53     1.084   .     S
C6     C15     1.398   .     A
C7     H51     1.081   .     S
C7     C71     1.406   .     S
C7     C73     1.397   .     S
C8     H118    1.083   .     S
C9     C11     1.395   .     A
C9     C21     1.533   .     S
C10    C18     1.539   .     S
C10    C13     1.411   .     A
C11    C16     1.401   .     A
C11    C14     1.410   .     A
C12    C29     1.402   .     S
C12    O62     1.289   .     A
C12    O128    1.279   .     S
C13    C15     1.423   .     A
C13    C17     1.409   .     A
C14    C638    1.394   .     S
C15    C639    1.394   1_554 S
C16    C25     1.410   .     A
C16    C629    1.404   .     S
C17    C23     1.413   .     A
C17    C628    1.404   1_554 S
C18    C19     1.538   .     S
C18    H41     1.112   .     S
C18    H40     1.104   .     S
C19    H38     1.111   .     S
C19    C20     1.527   .     S
C19    H39     1.107   .     S
C20    H35     1.111   .     S
C20    H240    1.111   .     S
C20    H241    1.108   .     S
C21    H48     1.108   .     S
C21    H49     1.110   .     S
C21    C22     1.540   .     S
C22    C24     1.528   .     S
C22    H47     1.110   .     S
C22    H46     1.112   .     S
C23    C26     1.394   .     A
C23    H54     1.077   .     S
C24    H45     1.110   .     S
C24    H44     1.111   .     S
C24    H43     1.111   .     S
C25    C27     1.387   .     A
C25    H55     1.081   .     S
C26    H31     1.082   .     S
C26    C626    1.394   1_554 S
C27    H42     1.083   .     S
C27    C627    1.394   .     S
C28    C369    1.337   1_455 S
C28    H260    1.088   .     S
C29    C504    1.337   1_545 S
C29    H440    1.088   1_545 S
C30    O65     1.299   .     A
C30    O199    1.297   1_455 S
H32    C233    1.088   .     S
H33    N57     1.029   .     S
H34    N58     1.027   .     S
H36    C428    1.111   1_545 S
H37    C428    1.108   1_545 S
H50    C144    1.083   1_455 S
H52    C73     1.080   .     S
H56    C436    1.088   1_545 S
N57    N58     1.285   .     D
N57    Zn68    2.023   .     S
N58    Zn67    2.023   .     S
O59    Zn67    1.955   .     S
O59    C69     1.279   .     S
O60    Zn68    1.955   .     S
O60    C148    1.279   1_455 S
O61    Zn68    1.977   .     S
O62    Zn67    1.977   .     S
O63    Zn67    1.961   .     S
O63    C98     1.297   .     S
O64    Zn68    1.961   .     S
O64    C138    1.292   1_455 S
O65    Zn68    1.931   .     S
O66    Zn67    1.931   .     S
C69    C96     1.402   .     S
C69    O129    1.290   .     A
C70    C72     1.444   .     S
C70    O134    1.296   .     A
C70    O200    1.292   .     S
C71    C77     1.403   .     A
C71    C98     1.462   .     S
C72    C76     1.400   .     A
C72    C78     1.403   .     A
C73    C82     1.401   .     A
C74    C76     1.388   .     A
C74    H121    1.084   .     S
C74    C83     1.398   .     A
C75    H119    1.081   .     S
C75    C139    1.406   .     S
C75    C141    1.397   .     S
C76    H186    1.083   .     S
C77    C79     1.395   .     A
C77    C89     1.533   .     S
C78    C86     1.539   .     S
C78    C81     1.411   .     A
C79    C84     1.401   .     A
C79    C82     1.410   .     A
C80    C97     1.402   .     S
C80    O130    1.289   .     A
C80    O196    1.279   .     S
C81    C83     1.423   .     A
C81    C85     1.409   .     A
C82    C706    1.394   .     S
C83    C707    1.394   1_554 S
C84    C93     1.410   .     A
C84    C697    1.404   .     S
C85    C91     1.413   .     A
C85    C696    1.404   1_554 S
C86    C87     1.538   .     S
C86    H109    1.112   .     S
C86    H108    1.104   .     S
C87    H106    1.111   .     S
C87    C88     1.527   .     S
C87    H107    1.107   .     S
C88    H103    1.111   .     S
C88    H308    1.111   .     S
C88    H309    1.108   .     S
C89    H116    1.108   .     S
C89    H117    1.110   .     S
C89    C90     1.540   .     S
C90    C92     1.528   .     S
C90    H115    1.110   .     S
C90    H114    1.112   .     S
C91    C94     1.394   .     A
C91    H122    1.077   .     S
C92    H113    1.110   .     S
C92    H112    1.111   .     S
C92    H111    1.111   .     S
C93    C95     1.387   .     A
C93    H123    1.081   .     S
C94    H99     1.082   .     S
C94    C694    1.394   1_554 S
C95    H110    1.083   .     S
C95    C695    1.394   .     S
C96    C233    1.337   .     S
C96    H328    1.088   .     S
C97    C572    1.337   1_545 S
C97    H508    1.088   1_545 S
C98    O133    1.299   .     A
H100   C301    1.088   .     S
H101   N125    1.029   .     S
H102   N126    1.027   .     S
H104   C496    1.111   1_545 S
H105   C496    1.108   1_545 S
H120   C141    1.080   .     S
H124   C504    1.088   1_545 S
N125   N126    1.285   .     D
N125   Zn136   2.023   .     S
N126   Zn135   2.023   .     S
O127   Zn135   1.955   .     S
O127   C137    1.279   .     S
O128   Zn136   1.955   .     S
O129   Zn136   1.977   .     S
O130   Zn135   1.977   .     S
O131   Zn135   1.961   .     S
O131   C166    1.297   .     S
O132   Zn136   1.961   .     S
O133   Zn136   1.931   .     S
O134   Zn135   1.931   .     S
C137   C164    1.402   .     S
C137   O197    1.290   .     A
C138   C140    1.444   .     S
C138   O202    1.296   .     A
C138   O64     1.292   1_655 S
C139   C145    1.403   .     A
C139   C166    1.462   .     S
C140   C144    1.400   .     A
C140   C146    1.403   .     A
C141   C150    1.401   .     A
C142   C144    1.388   .     A
C142   H189    1.084   .     S
C142   C151    1.398   .     A
C143   H187    1.081   .     S
C143   C3      1.406   1_655 S
C143   C5      1.397   1_655 S
C144   H50     1.083   1_655 S
C145   C147    1.395   .     A
C145   C157    1.533   .     S
C146   C154    1.539   .     S
C146   C149    1.411   .     A
C147   C152    1.401   .     A
C147   C150    1.410   .     A
C148   C165    1.402   .     S
C148   O198    1.289   .     A
C148   O60     1.279   1_655 S
C149   C151    1.423   .     A
C149   C153    1.409   .     A
C150   C774    1.394   .     S
C151   C775    1.394   1_554 S
C152   C161    1.410   .     A
C152   C765    1.404   .     S
C153   C159    1.413   .     A
C153   C764    1.404   1_554 S
C154   C155    1.538   .     S
C154   H177    1.112   .     S
C154   H176    1.104   .     S
C155   H174    1.111   .     S
C155   C156    1.527   .     S
C155   H175    1.107   .     S
C156   H171    1.111   .     S
C156   H376    1.111   .     S
C156   H377    1.108   .     S
C157   H184    1.108   .     S
C157   H185    1.110   .     S
C157   C158    1.540   .     S
C158   C160    1.528   .     S
C158   H183    1.110   .     S
C158   H182    1.112   .     S
C159   C162    1.394   .     A
C159   H190    1.077   .     S
C160   H181    1.110   .     S
C160   H180    1.111   .     S
C160   H179    1.111   .     S
C161   C163    1.387   .     A
C161   H191    1.081   .     S
C162   H167    1.082   .     S
C162   C762    1.394   1_554 S
C163   H178    1.083   .     S
C163   C763    1.394   .     S
C164   C301    1.337   .     S
C164   H396    1.088   .     S
C165   C436    1.337   1_645 S
C165   H576    1.088   1_545 S
C166   O201    1.299   .     A
H168   C369    1.088   .     S
H169   N193    1.029   .     S
H170   N194    1.027   .     S
H172   C564    1.111   1_545 S
H173   C564    1.108   1_545 S
H188   C5      1.080   1_655 S
H192   C572    1.088   1_545 S
N193   N194    1.285   .     D
N193   Zn204   2.023   .     S
N194   Zn203   2.023   .     S
O195   Zn203   1.955   .     S
O195   C1      1.279   1_655 S
O196   Zn204   1.955   .     S
O197   Zn204   1.977   .     S
O198   Zn203   1.977   .     S
O199   Zn203   1.961   .     S
O199   C30     1.297   1_655 S
O200   Zn204   1.961   .     S
O201   Zn204   1.931   .     S
O202   Zn203   1.931   .     S
C205   C232    1.402   .     S
C205   O265    1.290   .     A
C205   O399    1.279   1_455 S
C206   C208    1.444   .     S
C206   O270    1.296   .     A
C206   O336    1.292   .     S
C207   C213    1.403   .     A
C207   C234    1.462   .     S
C207   C347    1.406   1_455 S
C208   C212    1.400   .     A
C208   C214    1.403   .     A
C209   C218    1.401   .     A
C209   C347    1.397   1_455 S
C209   H392    1.080   1_455 S
C210   C212    1.388   .     A
C210   H257    1.084   .     S
C210   C219    1.398   .     A
C211   H255    1.081   .     S
C211   C275    1.406   .     S
C211   C277    1.397   .     S
C212   H322    1.083   .     S
C213   C215    1.395   .     A
C213   C225    1.533   .     S
C214   C222    1.539   .     S
C214   C217    1.411   .     A
C215   C220    1.401   .     A
C215   C218    1.410   .     A
C216   C233    1.402   .     S
C216   O266    1.289   .     A
C216   O332    1.279   .     S
C217   C219    1.423   .     A
C217   C221    1.409   .     A
C218   C842    1.394   .     S
C219   C843    1.394   1_554 S
C220   C229    1.410   .     A
C220   C833    1.404   .     S
C221   C227    1.413   .     A
C221   C832    1.404   1_554 S
C222   C223    1.538   .     S
C222   H245    1.112   .     S
C222   H244    1.104   .     S
C223   H242    1.111   .     S
C223   C224    1.527   .     S
C223   H243    1.107   .     S
C224   H239    1.111   .     S
C224   H444    1.111   .     S
C224   H445    1.108   .     S
C225   H252    1.108   .     S
C225   H253    1.110   .     S
C225   C226    1.540   .     S
C226   C228    1.528   .     S
C226   H251    1.110   .     S
C226   H250    1.112   .     S
C227   C230    1.394   .     A
C227   H258    1.077   .     S
C228   H249    1.110   .     S
C228   H248    1.111   .     S
C228   H247    1.111   .     S
C229   C231    1.387   .     A
C229   H259    1.081   .     S
C230   H235    1.082   .     S
C230   C830    1.394   1_554 S
C231   H246    1.083   .     S
C231   C831    1.394   .     S
C232   C573    1.337   1_455 S
C232   H464    1.088   .     S
C234   O269    1.299   .     A
C234   O403    1.297   1_455 S
H236   C437    1.088   .     S
H237   N261    1.029   .     S
H238   N262    1.027   .     S
H254   C348    1.083   1_455 S
H256   C277    1.080   .     S
N261   N262    1.285   .     D
N261   Zn272   2.023   .     S
N262   Zn271   2.023   .     S
O263   Zn271   1.955   .     S
O263   C273    1.279   .     S
O264   Zn272   1.955   .     S
O264   C352    1.279   1_455 S
O265   Zn272   1.977   .     S
O266   Zn271   1.977   .     S
O267   Zn271   1.961   .     S
O267   C302    1.297   .     S
O268   Zn272   1.961   .     S
O268   C342    1.292   1_455 S
O269   Zn272   1.931   .     S
O270   Zn271   1.931   .     S
C273   C300    1.402   .     S
C273   O333    1.290   .     A
C274   C276    1.444   .     S
C274   O338    1.296   .     A
C274   O404    1.292   .     S
C275   C281    1.403   .     A
C275   C302    1.462   .     S
C276   C280    1.400   .     A
C276   C282    1.403   .     A
C277   C286    1.401   .     A
C278   C280    1.388   .     A
C278   H325    1.084   .     S
C278   C287    1.398   .     A
C279   H323    1.081   .     S
C279   C343    1.406   .     S
C279   C345    1.397   .     S
C280   H390    1.083   .     S
C281   C283    1.395   .     A
C281   C293    1.533   .     S
C282   C290    1.539   .     S
C282   C285    1.411   .     A
C283   C288    1.401   .     A
C283   C286    1.410   .     A
C284   C301    1.402   .     S
C284   O334    1.289   .     A
C284   O400    1.279   .     S
C285   C287    1.423   .     A
C285   C289    1.409   .     A
C286   C910    1.394   .     S
C287   C911    1.394   1_554 S
C288   C297    1.410   .     A
C288   C901    1.404   .     S
C289   C295    1.413   .     A
C289   C900    1.404   1_554 S
C290   C291    1.538   .     S
C290   H313    1.112   .     S
C290   H312    1.104   .     S
C291   H310    1.111   .     S
C291   C292    1.527   .     S
C291   H311    1.107   .     S
C292   H307    1.111   .     S
C292   H512    1.111   .     S
C292   H513    1.108   .     S
C293   H320    1.108   .     S
C293   H321    1.110   .     S
C293   C294    1.540   .     S
C294   C296    1.528   .     S
C294   H319    1.110   .     S
C294   H318    1.112   .     S
C295   C298    1.394   .     A
C295   H326    1.077   .     S
C296   H317    1.110   .     S
C296   H316    1.111   .     S
C296   H315    1.111   .     S
C297   C299    1.387   .     A
C297   H327    1.081   .     S
C298   H303    1.082   .     S
C298   C898    1.394   1_554 S
C299   H314    1.083   .     S
C299   C899    1.394   .     S
C300   C437    1.337   .     S
C300   H532    1.088   .     S
C302   O337    1.299   .     A
H304   C505    1.088   .     S
H305   N329    1.029   .     S
H306   N330    1.027   .     S
H324   C345    1.080   .     S
N329   N330    1.285   .     D
N329   Zn340   2.023   .     S
N330   Zn339   2.023   .     S
O331   Zn339   1.955   .     S
O331   C341    1.279   .     S
O332   Zn340   1.955   .     S
O333   Zn340   1.977   .     S
O334   Zn339   1.977   .     S
O335   Zn339   1.961   .     S
O335   C370    1.297   .     S
O336   Zn340   1.961   .     S
O337   Zn340   1.931   .     S
O338   Zn339   1.931   .     S
C341   C368    1.402   .     S
C341   O401    1.290   .     A
C342   C344    1.444   .     S
C342   O406    1.296   .     A
C342   O268    1.292   1_655 S
C343   C349    1.403   .     A
C343   C370    1.462   .     S
C344   C348    1.400   .     A
C344   C350    1.403   .     A
C345   C354    1.401   .     A
C346   C348    1.388   .     A
C346   H393    1.084   .     S
C346   C355    1.398   .     A
C347   H391    1.081   .     S
C347   C207    1.406   1_655 S
C347   C209    1.397   1_655 S
C348   H254    1.083   1_655 S
C349   C351    1.395   .     A
C349   C361    1.533   .     S
C350   C358    1.539   .     S
C350   C353    1.411   .     A
C351   C356    1.401   .     A
C351   C354    1.410   .     A
C352   C369    1.402   .     S
C352   O402    1.289   .     A
C352   O264    1.279   1_655 S
C353   C355    1.423   .     A
C353   C357    1.409   .     A
C354   C978    1.394   .     S
C355   C979    1.394   1_554 S
C356   C365    1.410   .     A
C356   C969    1.404   .     S
C357   C363    1.413   .     A
C357   C968    1.404   1_554 S
C358   C359    1.538   .     S
C358   H381    1.112   .     S
C358   H380    1.104   .     S
C359   H378    1.111   .     S
C359   C360    1.527   .     S
C359   H379    1.107   .     S
C360   H375    1.111   .     S
C360   H580    1.111   .     S
C360   H581    1.108   .     S
C361   H388    1.108   .     S
C361   H389    1.110   .     S
C361   C362    1.540   .     S
C362   C364    1.528   .     S
C362   H387    1.110   .     S
C362   H386    1.112   .     S
C363   C366    1.394   .     A
C363   H394    1.077   .     S
C364   H385    1.110   .     S
C364   H384    1.111   .     S
C364   H383    1.111   .     S
C365   C367    1.387   .     A
C365   H395    1.081   .     S
C366   H371    1.082   .     S
C366   C966    1.394   1_554 S
C367   H382    1.083   .     S
C367   C967    1.394   .     S
C368   C505    1.337   .     S
C368   H600    1.088   .     S
C369   C28     1.337   1_655 S
C370   O405    1.299   .     A
H372   C573    1.088   .     S
H373   N397    1.029   .     S
H374   N398    1.027   .     S
H392   C209    1.080   1_655 S
N397   N398    1.285   .     D
N397   Zn408   2.023   .     S
N398   Zn407   2.023   .     S
O399   Zn407   1.955   .     S
O399   C205    1.279   1_655 S
O400   Zn408   1.955   .     S
O401   Zn408   1.977   .     S
O402   Zn407   1.977   .     S
O403   Zn407   1.961   .     S
O403   C234    1.297   1_655 S
O404   Zn408   1.961   .     S
O405   Zn408   1.931   .     S
O406   Zn407   1.931   .     S
C409   C436    1.402   .     S
C409   O469    1.290   .     A
C409   O603    1.279   1_455 S
C410   C412    1.444   .     S
C410   O474    1.296   .     A
C410   O540    1.292   .     S
C411   C417    1.403   .     A
C411   C438    1.462   .     S
C411   C551    1.406   1_455 S
C412   C416    1.400   .     A
C412   C418    1.403   .     A
C413   C422    1.401   .     A
C413   C551    1.397   1_455 S
C413   H596    1.080   1_455 S
C414   C416    1.388   .     A
C414   H461    1.084   .     S
C414   C423    1.398   .     A
C415   H459    1.081   .     S
C415   C479    1.406   .     S
C415   C481    1.397   .     S
C416   H526    1.083   .     S
C417   C419    1.395   .     A
C417   C429    1.533   .     S
C418   C426    1.539   .     S
C418   C421    1.411   .     A
C419   C424    1.401   .     A
C419   C422    1.410   .     A
C420   C437    1.402   .     S
C420   O470    1.289   .     A
C420   O536    1.279   .     S
C421   C423    1.423   .     A
C421   C425    1.409   .     A
C422   C1046   1.394   .     S
C423   C1047   1.394   1_554 S
C424   C433    1.410   .     A
C424   C1037   1.404   .     S
C425   C431    1.413   .     A
C425   C1036   1.404   1_554 S
C426   C427    1.538   .     S
C426   H449    1.112   .     S
C426   H448    1.104   .     S
C427   H446    1.111   .     S
C427   C428    1.527   .     S
C427   H447    1.107   .     S
C428   H443    1.111   .     S
C428   H36     1.111   1_565 S
C428   H37     1.108   1_565 S
C429   H456    1.108   .     S
C429   H457    1.110   .     S
C429   C430    1.540   .     S
C430   C432    1.528   .     S
C430   H455    1.110   .     S
C430   H454    1.112   .     S
C431   C434    1.394   .     A
C431   H462    1.077   .     S
C432   H453    1.110   .     S
C432   H452    1.111   .     S
C432   H451    1.111   .     S
C433   C435    1.387   .     A
C433   H463    1.081   .     S
C434   H439    1.082   .     S
C434   C1034   1.394   1_554 S
C435   H450    1.083   .     S
C435   C1035   1.394   .     S
C436   C165    1.337   1_465 S
C436   H56     1.088   1_565 S
C438   O473    1.299   .     A
C438   O607    1.297   1_455 S
H440   C29     1.088   1_565 S
H441   N465    1.029   .     S
H442   N466    1.027   .     S
H458   C552    1.083   1_455 S
H460   C481    1.080   .     S
N465   N466    1.285   .     D
N465   Zn476   2.023   .     S
N466   Zn475   2.023   .     S
O467   Zn475   1.955   .     S
O467   C477    1.279   .     S
O468   Zn476   1.955   .     S
O468   C556    1.279   1_455 S
O469   Zn476   1.977   .     S
O470   Zn475   1.977   .     S
O471   Zn475   1.961   .     S
O471   C506    1.297   .     S
O472   Zn476   1.961   .     S
O472   C546    1.292   1_455 S
O473   Zn476   1.931   .     S
O474   Zn475   1.931   .     S
C477   C504    1.402   .     S
C477   O537    1.290   .     A
C478   C480    1.444   .     S
C478   O542    1.296   .     A
C478   O608    1.292   .     S
C479   C485    1.403   .     A
C479   C506    1.462   .     S
C480   C484    1.400   .     A
C480   C486    1.403   .     A
C481   C490    1.401   .     A
C482   C484    1.388   .     A
C482   H529    1.084   .     S
C482   C491    1.398   .     A
C483   H527    1.081   .     S
C483   C547    1.406   .     S
C483   C549    1.397   .     S
C484   H594    1.083   .     S
C485   C487    1.395   .     A
C485   C497    1.533   .     S
C486   C494    1.539   .     S
C486   C489    1.411   .     A
C487   C492    1.401   .     A
C487   C490    1.410   .     A
C488   C505    1.402   .     S
C488   O538    1.289   .     A
C488   O604    1.279   .     S
C489   C491    1.423   .     A
C489   C493    1.409   .     A
C490   C1114   1.394   .     S
C491   C1115   1.394   1_554 S
C492   C501    1.410   .     A
C492   C1105   1.404   .     S
C493   C499    1.413   .     A
C493   C1104   1.404   1_554 S
C494   C495    1.538   .     S
C494   H517    1.112   .     S
C494   H516    1.104   .     S
C495   H514    1.111   .     S
C495   C496    1.527   .     S
C495   H515    1.107   .     S
C496   H511    1.111   .     S
C496   H104    1.111   1_565 S
C496   H105    1.108   1_565 S
C497   H524    1.108   .     S
C497   H525    1.110   .     S
C497   C498    1.540   .     S
C498   C500    1.528   .     S
C498   H523    1.110   .     S
C498   H522    1.112   .     S
C499   C502    1.394   .     A
C499   H530    1.077   .     S
C500   H521    1.110   .     S
C500   H520    1.111   .     S
C500   H519    1.111   .     S
C501   C503    1.387   .     A
C501   H531    1.081   .     S
C502   H507    1.082   .     S
C502   C1102   1.394   1_554 S
C503   H518    1.083   .     S
C503   C1103   1.394   .     S
C504   C29     1.337   1_565 S
C504   H124    1.088   1_565 S
C506   O541    1.299   .     A
H508   C97     1.088   1_565 S
H509   N533    1.029   .     S
H510   N534    1.027   .     S
H528   C549    1.080   .     S
N533   N534    1.285   .     D
N533   Zn544   2.023   .     S
N534   Zn543   2.023   .     S
O535   Zn543   1.955   .     S
O535   C545    1.279   .     S
O536   Zn544   1.955   .     S
O537   Zn544   1.977   .     S
O538   Zn543   1.977   .     S
O539   Zn543   1.961   .     S
O539   C574    1.297   .     S
O540   Zn544   1.961   .     S
O541   Zn544   1.931   .     S
O542   Zn543   1.931   .     S
C545   C572    1.402   .     S
C545   O605    1.290   .     A
C546   C548    1.444   .     S
C546   O610    1.296   .     A
C546   O472    1.292   1_655 S
C547   C553    1.403   .     A
C547   C574    1.462   .     S
C548   C552    1.400   .     A
C548   C554    1.403   .     A
C549   C558    1.401   .     A
C550   C552    1.388   .     A
C550   H597    1.084   .     S
C550   C559    1.398   .     A
C551   H595    1.081   .     S
C551   C411    1.406   1_655 S
C551   C413    1.397   1_655 S
C552   H458    1.083   1_655 S
C553   C555    1.395   .     A
C553   C565    1.533   .     S
C554   C562    1.539   .     S
C554   C557    1.411   .     A
C555   C560    1.401   .     A
C555   C558    1.410   .     A
C556   C573    1.402   .     S
C556   O606    1.289   .     A
C556   O468    1.279   1_655 S
C557   C559    1.423   .     A
C557   C561    1.409   .     A
C558   C1182   1.394   .     S
C559   C1183   1.394   1_554 S
C560   C569    1.410   .     A
C560   C1173   1.404   .     S
C561   C567    1.413   .     A
C561   C1172   1.404   1_554 S
C562   C563    1.538   .     S
C562   H585    1.112   .     S
C562   H584    1.104   .     S
C563   H582    1.111   .     S
C563   C564    1.527   .     S
C563   H583    1.107   .     S
C564   H579    1.111   .     S
C564   H172    1.111   1_565 S
C564   H173    1.108   1_565 S
C565   H592    1.108   .     S
C565   H593    1.110   .     S
C565   C566    1.540   .     S
C566   C568    1.528   .     S
C566   H591    1.110   .     S
C566   H590    1.112   .     S
C567   C570    1.394   .     A
C567   H598    1.077   .     S
C568   H589    1.110   .     S
C568   H588    1.111   .     S
C568   H587    1.111   .     S
C569   C571    1.387   .     A
C569   H599    1.081   .     S
C570   H575    1.082   .     S
C570   C1170   1.394   1_554 S
C571   H586    1.083   .     S
C571   C1171   1.394   .     S
C572   C97     1.337   1_565 S
C572   H192    1.088   1_565 S
C573   C232    1.337   1_655 S
C574   O609    1.299   .     A
H576   C165    1.088   1_565 S
H577   N601    1.029   .     S
H578   N602    1.027   .     S
H596   C413    1.080   1_655 S
N601   N602    1.285   .     D
N601   Zn612   2.023   .     S
N602   Zn611   2.023   .     S
O603   Zn611   1.955   .     S
O603   C409    1.279   1_655 S
O604   Zn612   1.955   .     S
O605   Zn612   1.977   .     S
O606   Zn611   1.977   .     S
O607   Zn611   1.961   .     S
O607   C438    1.297   1_655 S
O608   Zn612   1.961   .     S
O609   Zn612   1.931   .     S
O610   Zn611   1.931   .     S
C613   C640    1.402   .     S
C613   O673    1.290   .     A
C613   O807    1.279   1_455 S
C614   C616    1.444   .     S
C614   O678    1.296   .     A
C614   O744    1.292   .     S
C615   C621    1.403   .     A
C615   C642    1.462   .     S
C615   C755    1.406   1_455 S
C616   C620    1.400   .     A
C616   C622    1.403   .     A
C617   C626    1.401   .     A
C617   C755    1.397   1_455 S
C617   H800    1.080   1_455 S
C618   C620    1.388   .     A
C618   H665    1.084   .     S
C618   C627    1.398   .     A
C619   H663    1.081   .     S
C619   C683    1.406   .     S
C619   C685    1.397   .     S
C620   H730    1.083   .     S
C621   C623    1.395   .     A
C621   C633    1.533   .     S
C622   C630    1.539   .     S
C622   C625    1.411   .     A
C623   C628    1.401   .     A
C623   C626    1.410   .     A
C624   C641    1.402   .     S
C624   O674    1.289   .     A
C624   O740    1.279   .     S
C625   C627    1.423   .     A
C625   C629    1.409   .     A
C626   C26     1.394   1_556 S
C628   C637    1.410   .     A
C628   C17     1.404   1_556 S
C629   C635    1.413   .     A
C630   C631    1.538   .     S
C630   H653    1.112   .     S
C630   H652    1.104   .     S
C631   H650    1.111   .     S
C631   C632    1.527   .     S
C631   H651    1.107   .     S
C632   H647    1.111   .     S
C632   H852    1.111   .     S
C632   H853    1.108   .     S
C633   H660    1.108   .     S
C633   H661    1.110   .     S
C633   C634    1.540   .     S
C634   C636    1.528   .     S
C634   H659    1.110   .     S
C634   H658    1.112   .     S
C635   C638    1.394   .     A
C635   H666    1.077   .     S
C636   H657    1.110   .     S
C636   H656    1.111   .     S
C636   H655    1.111   .     S
C637   C639    1.387   .     A
C637   H667    1.081   .     S
C638   H643    1.082   .     S
C639   H654    1.083   .     S
C639   C15     1.394   1_556 S
C640   C981    1.337   1_455 S
C640   H872    1.088   .     S
C641   C1116   1.337   1_545 S
C641   H1052   1.088   1_545 S
C642   O677    1.299   .     A
C642   O811    1.297   1_455 S
H644   C845    1.088   .     S
H645   N669    1.029   .     S
H646   N670    1.027   .     S
H648   C1040   1.111   1_545 S
H649   C1040   1.108   1_545 S
H662   C756    1.083   1_455 S
H664   C685    1.080   .     S
H668   C1048   1.088   1_545 S
N669   N670    1.285   .     D
N669   Zn680   2.023   .     S
N670   Zn679   2.023   .     S
O671   Zn679   1.955   .     S
O671   C681    1.279   .     S
O672   Zn680   1.955   .     S
O672   C760    1.279   1_455 S
O673   Zn680   1.977   .     S
O674   Zn679   1.977   .     S
O675   Zn679   1.961   .     S
O675   C710    1.297   .     S
O676   Zn680   1.961   .     S
O676   C750    1.292   1_455 S
O677   Zn680   1.931   .     S
O678   Zn679   1.931   .     S
C681   C708    1.402   .     S
C681   O741    1.290   .     A
C682   C684    1.444   .     S
C682   O746    1.296   .     A
C682   O812    1.292   .     S
C683   C689    1.403   .     A
C683   C710    1.462   .     S
C684   C688    1.400   .     A
C684   C690    1.403   .     A
C685   C694    1.401   .     A
C686   C688    1.388   .     A
C686   H733    1.084   .     S
C686   C695    1.398   .     A
C687   H731    1.081   .     S
C687   C751    1.406   .     S
C687   C753    1.397   .     S
C688   H798    1.083   .     S
C689   C691    1.395   .     A
C689   C701    1.533   .     S
C690   C698    1.539   .     S
C690   C693    1.411   .     A
C691   C696    1.401   .     A
C691   C694    1.410   .     A
C692   C709    1.402   .     S
C692   O742    1.289   .     A
C692   O808    1.279   .     S
C693   C695    1.423   .     A
C693   C697    1.409   .     A
C694   C94     1.394   1_556 S
C696   C705    1.410   .     A
C696   C85     1.404   1_556 S
C697   C703    1.413   .     A
C698   C699    1.538   .     S
C698   H721    1.112   .     S
C698   H720    1.104   .     S
C699   H718    1.111   .     S
C699   C700    1.527   .     S
C699   H719    1.107   .     S
C700   H715    1.111   .     S
C700   H920    1.111   .     S
C700   H921    1.108   .     S
C701   H728    1.108   .     S
C701   H729    1.110   .     S
C701   C702    1.540   .     S
C702   C704    1.528   .     S
C702   H727    1.110   .     S
C702   H726    1.112   .     S
C703   C706    1.394   .     A
C703   H734    1.077   .     S
C704   H725    1.110   .     S
C704   H724    1.111   .     S
C704   H723    1.111   .     S
C705   C707    1.387   .     A
C705   H735    1.081   .     S
C706   H711    1.082   .     S
C707   H722    1.083   .     S
C707   C83     1.394   1_556 S
C708   C845    1.337   .     S
C708   H940    1.088   .     S
C709   C1184   1.337   1_545 S
C709   H1120   1.088   1_545 S
C710   O745    1.299   .     A
H712   C913    1.088   .     S
H713   N737    1.029   .     S
H714   N738    1.027   .     S
H716   C1108   1.111   1_545 S
H717   C1108   1.108   1_545 S
H732   C753    1.080   .     S
H736   C1116   1.088   1_545 S
N737   N738    1.285   .     D
N737   Zn748   2.023   .     S
N738   Zn747   2.023   .     S
O739   Zn747   1.955   .     S
O739   C749    1.279   .     S
O740   Zn748   1.955   .     S
O741   Zn748   1.977   .     S
O742   Zn747   1.977   .     S
O743   Zn747   1.961   .     S
O743   C778    1.297   .     S
O744   Zn748   1.961   .     S
O745   Zn748   1.931   .     S
O746   Zn747   1.931   .     S
C749   C776    1.402   .     S
C749   O809    1.290   .     A
C750   C752    1.444   .     S
C750   O814    1.296   .     A
C750   O676    1.292   1_655 S
C751   C757    1.403   .     A
C751   C778    1.462   .     S
C752   C756    1.400   .     A
C752   C758    1.403   .     A
C753   C762    1.401   .     A
C754   C756    1.388   .     A
C754   H801    1.084   .     S
C754   C763    1.398   .     A
C755   H799    1.081   .     S
C755   C615    1.406   1_655 S
C755   C617    1.397   1_655 S
C756   H662    1.083   1_655 S
C757   C759    1.395   .     A
C757   C769    1.533   .     S
C758   C766    1.539   .     S
C758   C761    1.411   .     A
C759   C764    1.401   .     A
C759   C762    1.410   .     A
C760   C777    1.402   .     S
C760   O810    1.289   .     A
C760   O672    1.279   1_655 S
C761   C763    1.423   .     A
C761   C765    1.409   .     A
C762   C162    1.394   1_556 S
C764   C773    1.410   .     A
C764   C153    1.404   1_556 S
C765   C771    1.413   .     A
C766   C767    1.538   .     S
C766   H789    1.112   .     S
C766   H788    1.104   .     S
C767   H786    1.111   .     S
C767   C768    1.527   .     S
C767   H787    1.107   .     S
C768   H783    1.111   .     S
C768   H988    1.111   .     S
C768   H989    1.108   .     S
C769   H796    1.108   .     S
C769   H797    1.110   .     S
C769   C770    1.540   .     S
C770   C772    1.528   .     S
C770   H795    1.110   .     S
C770   H794    1.112   .     S
C771   C774    1.394   .     A
C771   H802    1.077   .     S
C772   H793    1.110   .     S
C772   H792    1.111   .     S
C772   H791    1.111   .     S
C773   C775    1.387   .     A
C773   H803    1.081   .     S
C774   H779    1.082   .     S
C775   H790    1.083   .     S
C775   C151    1.394   1_556 S
C776   C913    1.337   .     S
C776   H1008   1.088   .     S
C777   C1048   1.337   1_645 S
C777   H1188   1.088   1_545 S
C778   O813    1.299   .     A
H780   C981    1.088   .     S
H781   N805    1.029   .     S
H782   N806    1.027   .     S
H784   C1176   1.111   1_545 S
H785   C1176   1.108   1_545 S
H800   C617    1.080   1_655 S
H804   C1184   1.088   1_545 S
N805   N806    1.285   .     D
N805   Zn816   2.023   .     S
N806   Zn815   2.023   .     S
O807   Zn815   1.955   .     S
O807   C613    1.279   1_655 S
O808   Zn816   1.955   .     S
O809   Zn816   1.977   .     S
O810   Zn815   1.977   .     S
O811   Zn815   1.961   .     S
O811   C642    1.297   1_655 S
O812   Zn816   1.961   .     S
O813   Zn816   1.931   .     S
O814   Zn815   1.931   .     S
C817   C844    1.402   .     S
C817   O877    1.290   .     A
C817   O1011   1.279   1_455 S
C818   C820    1.444   .     S
C818   O882    1.296   .     A
C818   O948    1.292   .     S
C819   C825    1.403   .     A
C819   C846    1.462   .     S
C819   C959    1.406   1_455 S
C820   C824    1.400   .     A
C820   C826    1.403   .     A
C821   C830    1.401   .     A
C821   C959    1.397   1_455 S
C821   H1004   1.080   1_455 S
C822   C824    1.388   .     A
C822   H869    1.084   .     S
C822   C831    1.398   .     A
C823   H867    1.081   .     S
C823   C887    1.406   .     S
C823   C889    1.397   .     S
C824   H934    1.083   .     S
C825   C827    1.395   .     A
C825   C837    1.533   .     S
C826   C834    1.539   .     S
C826   C829    1.411   .     A
C827   C832    1.401   .     A
C827   C830    1.410   .     A
C828   C845    1.402   .     S
C828   O878    1.289   .     A
C828   O944    1.279   .     S
C829   C831    1.423   .     A
C829   C833    1.409   .     A
C830   C230    1.394   1_556 S
C832   C841    1.410   .     A
C832   C221    1.404   1_556 S
C833   C839    1.413   .     A
C834   C835    1.538   .     S
C834   H857    1.112   .     S
C834   H856    1.104   .     S
C835   H854    1.111   .     S
C835   C836    1.527   .     S
C835   H855    1.107   .     S
C836   H851    1.111   .     S
C836   H1056   1.111   .     S
C836   H1057   1.108   .     S
C837   H864    1.108   .     S
C837   H865    1.110   .     S
C837   C838    1.540   .     S
C838   C840    1.528   .     S
C838   H863    1.110   .     S
C838   H862    1.112   .     S
C839   C842    1.394   .     A
C839   H870    1.077   .     S
C840   H861    1.110   .     S
C840   H860    1.111   .     S
C840   H859    1.111   .     S
C841   C843    1.387   .     A
C841   H871    1.081   .     S
C842   H847    1.082   .     S
C843   H858    1.083   .     S
C843   C219    1.394   1_556 S
C844   C1185   1.337   1_455 S
C844   H1076   1.088   .     S
C846   O881    1.299   .     A
C846   O1015   1.297   1_455 S
H848   C1049   1.088   .     S
H849   N873    1.029   .     S
H850   N874    1.027   .     S
H866   C960    1.083   1_455 S
H868   C889    1.080   .     S
N873   N874    1.285   .     D
N873   Zn884   2.023   .     S
N874   Zn883   2.023   .     S
O875   Zn883   1.955   .     S
O875   C885    1.279   .     S
O876   Zn884   1.955   .     S
O876   C964    1.279   1_455 S
O877   Zn884   1.977   .     S
O878   Zn883   1.977   .     S
O879   Zn883   1.961   .     S
O879   C914    1.297   .     S
O880   Zn884   1.961   .     S
O880   C954    1.292   1_455 S
O881   Zn884   1.931   .     S
O882   Zn883   1.931   .     S
C885   C912    1.402   .     S
C885   O945    1.290   .     A
C886   C888    1.444   .     S
C886   O950    1.296   .     A
C886   O1016   1.292   .     S
C887   C893    1.403   .     A
C887   C914    1.462   .     S
C888   C892    1.400   .     A
C888   C894    1.403   .     A
C889   C898    1.401   .     A
C890   C892    1.388   .     A
C890   H937    1.084   .     S
C890   C899    1.398   .     A
C891   H935    1.081   .     S
C891   C955    1.406   .     S
C891   C957    1.397   .     S
C892   H1002   1.083   .     S
C893   C895    1.395   .     A
C893   C905    1.533   .     S
C894   C902    1.539   .     S
C894   C897    1.411   .     A
C895   C900    1.401   .     A
C895   C898    1.410   .     A
C896   C913    1.402   .     S
C896   O946    1.289   .     A
C896   O1012   1.279   .     S
C897   C899    1.423   .     A
C897   C901    1.409   .     A
C898   C298    1.394   1_556 S
C900   C909    1.410   .     A
C900   C289    1.404   1_556 S
C901   C907    1.413   .     A
C902   C903    1.538   .     S
C902   H925    1.112   .     S
C902   H924    1.104   .     S
C903   H922    1.111   .     S
C903   C904    1.527   .     S
C903   H923    1.107   .     S
C904   H919    1.111   .     S
C904   H1124   1.111   .     S
C904   H1125   1.108   .     S
C905   H932    1.108   .     S
C905   H933    1.110   .     S
C905   C906    1.540   .     S
C906   C908    1.528   .     S
C906   H931    1.110   .     S
C906   H930    1.112   .     S
C907   C910    1.394   .     A
C907   H938    1.077   .     S
C908   H929    1.110   .     S
C908   H928    1.111   .     S
C908   H927    1.111   .     S
C909   C911    1.387   .     A
C909   H939    1.081   .     S
C910   H915    1.082   .     S
C911   H926    1.083   .     S
C911   C287    1.394   1_556 S
C912   C1049   1.337   .     S
C912   H1144   1.088   .     S
C914   O949    1.299   .     A
H916   C1117   1.088   .     S
H917   N941    1.029   .     S
H918   N942    1.027   .     S
H936   C957    1.080   .     S
N941   N942    1.285   .     D
N941   Zn952   2.023   .     S
N942   Zn951   2.023   .     S
O943   Zn951   1.955   .     S
O943   C953    1.279   .     S
O944   Zn952   1.955   .     S
O945   Zn952   1.977   .     S
O946   Zn951   1.977   .     S
O947   Zn951   1.961   .     S
O947   C982    1.297   .     S
O948   Zn952   1.961   .     S
O949   Zn952   1.931   .     S
O950   Zn951   1.931   .     S
C953   C980    1.402   .     S
C953   O1013   1.290   .     A
C954   C956    1.444   .     S
C954   O1018   1.296   .     A
C954   O880    1.292   1_655 S
C955   C961    1.403   .     A
C955   C982    1.462   .     S
C956   C960    1.400   .     A
C956   C962    1.403   .     A
C957   C966    1.401   .     A
C958   C960    1.388   .     A
C958   H1005   1.084   .     S
C958   C967    1.398   .     A
C959   H1003   1.081   .     S
C959   C819    1.406   1_655 S
C959   C821    1.397   1_655 S
C960   H866    1.083   1_655 S
C961   C963    1.395   .     A
C961   C973    1.533   .     S
C962   C970    1.539   .     S
C962   C965    1.411   .     A
C963   C968    1.401   .     A
C963   C966    1.410   .     A
C964   C981    1.402   .     S
C964   O1014   1.289   .     A
C964   O876    1.279   1_655 S
C965   C967    1.423   .     A
C965   C969    1.409   .     A
C966   C366    1.394   1_556 S
C968   C977    1.410   .     A
C968   C357    1.404   1_556 S
C969   C975    1.413   .     A
C970   C971    1.538   .     S
C970   H993    1.112   .     S
C970   H992    1.104   .     S
C971   H990    1.111   .     S
C971   C972    1.527   .     S
C971   H991    1.107   .     S
C972   H987    1.111   .     S
C972   H1192   1.111   .     S
C972   H1193   1.108   .     S
C973   H1000   1.108   .     S
C973   H1001   1.110   .     S
C973   C974    1.540   .     S
C974   C976    1.528   .     S
C974   H999    1.110   .     S
C974   H998    1.112   .     S
C975   C978    1.394   .     A
C975   H1006   1.077   .     S
C976   H997    1.110   .     S
C976   H996    1.111   .     S
C976   H995    1.111   .     S
C977   C979    1.387   .     A
C977   H1007   1.081   .     S
C978   H983    1.082   .     S
C979   H994    1.083   .     S
C979   C355    1.394   1_556 S
C980   C1117   1.337   .     S
C980   H1212   1.088   .     S
C981   C640    1.337   1_655 S
C982   O1017   1.299   .     A
H984   C1185   1.088   .     S
H985   N1009   1.029   .     S
H986   N1010   1.027   .     S
H1004  C821    1.080   1_655 S
N1009  N1010   1.285   .     D
N1009  Zn1020  2.023   .     S
N1010  Zn1019  2.023   .     S
O1011  Zn1019  1.955   .     S
O1011  C817    1.279   1_655 S
O1012  Zn1020  1.955   .     S
O1013  Zn1020  1.977   .     S
O1014  Zn1019  1.977   .     S
O1015  Zn1019  1.961   .     S
O1015  C846    1.297   1_655 S
O1016  Zn1020  1.961   .     S
O1017  Zn1020  1.931   .     S
O1018  Zn1019  1.931   .     S
C1021  C1048   1.402   .     S
C1021  O1081   1.290   .     A
C1021  O1215   1.279   1_455 S
C1022  C1024   1.444   .     S
C1022  O1086   1.296   .     A
C1022  O1152   1.292   .     S
C1023  C1029   1.403   .     A
C1023  C1050   1.462   .     S
C1023  C1163   1.406   1_455 S
C1024  C1028   1.400   .     A
C1024  C1030   1.403   .     A
C1025  C1034   1.401   .     A
C1025  C1163   1.397   1_455 S
C1025  H1208   1.080   1_455 S
C1026  C1028   1.388   .     A
C1026  H1073   1.084   .     S
C1026  C1035   1.398   .     A
C1027  H1071   1.081   .     S
C1027  C1091   1.406   .     S
C1027  C1093   1.397   .     S
C1028  H1138   1.083   .     S
C1029  C1031   1.395   .     A
C1029  C1041   1.533   .     S
C1030  C1038   1.539   .     S
C1030  C1033   1.411   .     A
C1031  C1036   1.401   .     A
C1031  C1034   1.410   .     A
C1032  C1049   1.402   .     S
C1032  O1082   1.289   .     A
C1032  O1148   1.279   .     S
C1033  C1035   1.423   .     A
C1033  C1037   1.409   .     A
C1034  C434    1.394   1_556 S
C1036  C1045   1.410   .     A
C1036  C425    1.404   1_556 S
C1037  C1043   1.413   .     A
C1038  C1039   1.538   .     S
C1038  H1061   1.112   .     S
C1038  H1060   1.104   .     S
C1039  H1058   1.111   .     S
C1039  C1040   1.527   .     S
C1039  H1059   1.107   .     S
C1040  H1055   1.111   .     S
C1040  H648    1.111   1_565 S
C1040  H649    1.108   1_565 S
C1041  H1068   1.108   .     S
C1041  H1069   1.110   .     S
C1041  C1042   1.540   .     S
C1042  C1044   1.528   .     S
C1042  H1067   1.110   .     S
C1042  H1066   1.112   .     S
C1043  C1046   1.394   .     A
C1043  H1074   1.077   .     S
C1044  H1065   1.110   .     S
C1044  H1064   1.111   .     S
C1044  H1063   1.111   .     S
C1045  C1047   1.387   .     A
C1045  H1075   1.081   .     S
C1046  H1051   1.082   .     S
C1047  H1062   1.083   .     S
C1047  C423    1.394   1_556 S
C1048  C777    1.337   1_465 S
C1048  H668    1.088   1_565 S
C1050  O1085   1.299   .     A
C1050  O1219   1.297   1_455 S
H1052  C641    1.088   1_565 S
H1053  N1077   1.029   .     S
H1054  N1078   1.027   .     S
H1070  C1164   1.083   1_455 S
H1072  C1093   1.080   .     S
N1077  N1078   1.285   .     D
N1077  Zn1088  2.023   .     S
N1078  Zn1087  2.023   .     S
O1079  Zn1087  1.955   .     S
O1079  C1089   1.279   .     S
O1080  Zn1088  1.955   .     S
O1080  C1168   1.279   1_455 S
O1081  Zn1088  1.977   .     S
O1082  Zn1087  1.977   .     S
O1083  Zn1087  1.961   .     S
O1083  C1118   1.297   .     S
O1084  Zn1088  1.961   .     S
O1084  C1158   1.292   1_455 S
O1085  Zn1088  1.931   .     S
O1086  Zn1087  1.931   .     S
C1089  C1116   1.402   .     S
C1089  O1149   1.290   .     A
C1090  C1092   1.444   .     S
C1090  O1154   1.296   .     A
C1090  O1220   1.292   .     S
C1091  C1097   1.403   .     A
C1091  C1118   1.462   .     S
C1092  C1096   1.400   .     A
C1092  C1098   1.403   .     A
C1093  C1102   1.401   .     A
C1094  C1096   1.388   .     A
C1094  H1141   1.084   .     S
C1094  C1103   1.398   .     A
C1095  H1139   1.081   .     S
C1095  C1159   1.406   .     S
C1095  C1161   1.397   .     S
C1096  H1206   1.083   .     S
C1097  C1099   1.395   .     A
C1097  C1109   1.533   .     S
C1098  C1106   1.539   .     S
C1098  C1101   1.411   .     A
C1099  C1104   1.401   .     A
C1099  C1102   1.410   .     A
C1100  C1117   1.402   .     S
C1100  O1150   1.289   .     A
C1100  O1216   1.279   .     S
C1101  C1103   1.423   .     A
C1101  C1105   1.409   .     A
C1102  C502    1.394   1_556 S
C1104  C1113   1.410   .     A
C1104  C493    1.404   1_556 S
C1105  C1111   1.413   .     A
C1106  C1107   1.538   .     S
C1106  H1129   1.112   .     S
C1106  H1128   1.104   .     S
C1107  H1126   1.111   .     S
C1107  C1108   1.527   .     S
C1107  H1127   1.107   .     S
C1108  H1123   1.111   .     S
C1108  H716    1.111   1_565 S
C1108  H717    1.108   1_565 S
C1109  H1136   1.108   .     S
C1109  H1137   1.110   .     S
C1109  C1110   1.540   .     S
C1110  C1112   1.528   .     S
C1110  H1135   1.110   .     S
C1110  H1134   1.112   .     S
C1111  C1114   1.394   .     A
C1111  H1142   1.077   .     S
C1112  H1133   1.110   .     S
C1112  H1132   1.111   .     S
C1112  H1131   1.111   .     S
C1113  C1115   1.387   .     A
C1113  H1143   1.081   .     S
C1114  H1119   1.082   .     S
C1115  H1130   1.083   .     S
C1115  C491    1.394   1_556 S
C1116  C641    1.337   1_565 S
C1116  H736    1.088   1_565 S
C1118  O1153   1.299   .     A
H1120  C709    1.088   1_565 S
H1121  N1145   1.029   .     S
H1122  N1146   1.027   .     S
H1140  C1161   1.080   .     S
N1145  N1146   1.285   .     D
N1145  Zn1156  2.023   .     S
N1146  Zn1155  2.023   .     S
O1147  Zn1155  1.955   .     S
O1147  C1157   1.279   .     S
O1148  Zn1156  1.955   .     S
O1149  Zn1156  1.977   .     S
O1150  Zn1155  1.977   .     S
O1151  Zn1155  1.961   .     S
O1151  C1186   1.297   .     S
O1152  Zn1156  1.961   .     S
O1153  Zn1156  1.931   .     S
O1154  Zn1155  1.931   .     S
C1157  C1184   1.402   .     S
C1157  O1217   1.290   .     A
C1158  C1160   1.444   .     S
C1158  O1222   1.296   .     A
C1158  O1084   1.292   1_655 S
C1159  C1165   1.403   .     A
C1159  C1186   1.462   .     S
C1160  C1164   1.400   .     A
C1160  C1166   1.403   .     A
C1161  C1170   1.401   .     A
C1162  C1164   1.388   .     A
C1162  H1209   1.084   .     S
C1162  C1171   1.398   .     A
C1163  H1207   1.081   .     S
C1163  C1023   1.406   1_655 S
C1163  C1025   1.397   1_655 S
C1164  H1070   1.083   1_655 S
C1165  C1167   1.395   .     A
C1165  C1177   1.533   .     S
C1166  C1174   1.539   .     S
C1166  C1169   1.411   .     A
C1167  C1172   1.401   .     A
C1167  C1170   1.410   .     A
C1168  C1185   1.402   .     S
C1168  O1218   1.289   .     A
C1168  O1080   1.279   1_655 S
C1169  C1171   1.423   .     A
C1169  C1173   1.409   .     A
C1170  C570    1.394   1_556 S
C1172  C1181   1.410   .     A
C1172  C561    1.404   1_556 S
C1173  C1179   1.413   .     A
C1174  C1175   1.538   .     S
C1174  H1197   1.112   .     S
C1174  H1196   1.104   .     S
C1175  H1194   1.111   .     S
C1175  C1176   1.527   .     S
C1175  H1195   1.107   .     S
C1176  H1191   1.111   .     S
C1176  H784    1.111   1_565 S
C1176  H785    1.108   1_565 S
C1177  H1204   1.108   .     S
C1177  H1205   1.110   .     S
C1177  C1178   1.540   .     S
C1178  C1180   1.528   .     S
C1178  H1203   1.110   .     S
C1178  H1202   1.112   .     S
C1179  C1182   1.394   .     A
C1179  H1210   1.077   .     S
C1180  H1201   1.110   .     S
C1180  H1200   1.111   .     S
C1180  H1199   1.111   .     S
C1181  C1183   1.387   .     A
C1181  H1211   1.081   .     S
C1182  H1187   1.082   .     S
C1183  H1198   1.083   .     S
C1183  C559    1.394   1_556 S
C1184  C709    1.337   1_565 S
C1184  H804    1.088   1_565 S
C1185  C844    1.337   1_655 S
C1186  O1221   1.299   .     A
H1188  C777    1.088   1_565 S
H1189  N1213   1.029   .     S
H1190  N1214   1.027   .     S
H1208  C1025   1.080   1_655 S
N1213  N1214   1.285   .     D
N1213  Zn1224  2.023   .     S
N1214  Zn1223  2.023   .     S
O1215  Zn1223  1.955   .     S
O1215  C1021   1.279   1_655 S
O1216  Zn1224  1.955   .     S
O1217  Zn1224  1.977   .     S
O1218  Zn1223  1.977   .     S
O1219  Zn1223  1.961   .     S
O1219  C1050   1.297   1_655 S
O1220  Zn1224  1.961   .     S
O1221  Zn1224  1.931   .     S
O1222  Zn1223  1.931   .     S
