data_str_m3_o1_o1_pcu_sym.38
_audit_creation_date              2020-01-03
_audit_creation_method            'Materials Studio'
_symmetry_space_group_name_H-M    'P1'
_symmetry_Int_Tables_number       1
_symmetry_cell_setting            triclinic
loop_
_symmetry_equiv_pos_as_xyz
  x,y,z
_cell_length_a                    30.7188
_cell_length_b                    29.8662
_cell_length_c                    29.8290
_cell_angle_alpha                 89.7614
_cell_angle_beta                  89.9946
_cell_angle_gamma                 89.9860
loop_
_atom_site_label
_atom_site_type_symbol
_atom_site_fract_x
_atom_site_fract_y
_atom_site_fract_z
_atom_site_U_iso_or_equiv
_atom_site_adp_type
_atom_site_occupancy
C1     C     0.05985   0.18996   0.16671   0.00000  Uiso   1.00
C2     C     0.49649   0.21068   0.31019   0.00000  Uiso   1.00
C3     C     0.49772   0.21080   0.02463   0.00000  Uiso   1.00
C4     C     0.00392   0.28911   0.30935   0.00000  Uiso   1.00
C5     C     0.24814   0.03920   0.02426   0.00000  Uiso   1.00
C6     C     0.25316   0.46066   0.31014   0.00000  Uiso   1.00
C7     C     0.25183   0.46080   0.02456   0.00000  Uiso   1.00
C8     C     0.24682   0.03935   0.30984   0.00000  Uiso   1.00
C9     C     0.39699   0.13473   0.12691   0.00000  Uiso   1.00
C10    C     0.11731   0.35005   0.20585   0.00000  Uiso   1.00
C11    C     0.10227   0.36647   0.12728   0.00000  Uiso   1.00
C12    C     0.44020   0.31010   0.16663   0.00000  Uiso   1.00
C13    C     0.38360   0.14863   0.20619   0.00000  Uiso   1.00
C14    C     0.10146   0.13283   0.20611   0.00000  Uiso   1.00
C15    C     0.38448   0.35223   0.12703   0.00000  Uiso   1.00
C16    C     0.39858   0.36686   0.20609   0.00000  Uiso   1.00
C17    C     0.11571   0.14830   0.12712   0.00000  Uiso   1.00
C18    C     0.13412   0.39853   0.12731   0.00000  Uiso   1.00
C19    C     0.35179   0.11648   0.20622   0.00000  Uiso   1.00
C20    C     0.36502   0.10278   0.12685   0.00000  Uiso   1.00
C21    C     0.14902   0.38233   0.20601   0.00000  Uiso   1.00
C22    C     0.36670   0.39897   0.20607   0.00000  Uiso   1.00
C23    C     0.43994   0.19016   0.16669   0.00000  Uiso   1.00
C24    C     0.14761   0.11624   0.12707   0.00000  Uiso   1.00
C25    C     0.13320   0.10059   0.20597   0.00000  Uiso   1.00
C26    C     0.35249   0.38417   0.12710   0.00000  Uiso   1.00
C27    C     0.09372   0.34250   0.16657   0.00000  Uiso   1.00
C28    C     0.40641   0.15739   0.16663   0.00000  Uiso   1.00
C29    C     0.40732   0.34352   0.16658   0.00000  Uiso   1.00
C30    C     0.09283   0.15663   0.16669   0.00000  Uiso   1.00
C31    C     0.34265   0.09356   0.16657   0.00000  Uiso   1.00
C32    C     0.15729   0.40652   0.16674   0.00000  Uiso   1.00
C33    C     0.15644   0.09263   0.16653   0.00000  Uiso   1.00
C34    C     0.06013   0.30978   0.16662   0.00000  Uiso   1.00
C35    C     0.34350   0.40730   0.16666   0.00000  Uiso   1.00
C36    C     0.31003   0.44013   0.16670   0.00000  Uiso   1.00
C37    C     0.18993   0.05983   0.16662   0.00000  Uiso   1.00
C38    C     0.19019   0.43992   0.16672   0.00000  Uiso   1.00
C39    C     0.30979   0.06011   0.16663   0.00000  Uiso   1.00
C40    C     0.00270   0.28932   0.02337   0.00000  Uiso   1.00
H41    H     0.41438   0.14136   0.09607   0.00000  Uiso   1.00
H42    H     0.33439   0.10985   0.23710   0.00000  Uiso   1.00
H43    H     0.35821   0.08510   0.09598   0.00000  Uiso   1.00
H44    H     0.16709   0.38803   0.23661   0.00000  Uiso   1.00
H45    H     0.36054   0.41734   0.23664   0.00000  Uiso   1.00
H46    H     0.16545   0.11030   0.09640   0.00000  Uiso   1.00
H47    H     0.13925   0.08183   0.23648   0.00000  Uiso   1.00
H48    H     0.33471   0.39043   0.09641   0.00000  Uiso   1.00
H49    H     0.49886   0.33028   0.07854   0.00000  Uiso   1.00
H50    H     0.03674   0.34418   0.04052   0.00000  Uiso   1.00
H51    H     0.01360   0.16407   0.26381   0.00000  Uiso   1.00
H52    H     0.11155   0.33096   0.23622   0.00000  Uiso   1.00
H53    H     0.45909   0.16751   0.27522   0.00000  Uiso   1.00
H54    H     0.46827   0.15227   0.03988   0.00000  Uiso   1.00
H55    H     0.02328   0.15043   0.03994   0.00000  Uiso   1.00
H56    H     0.04240   0.33209   0.27484   0.00000  Uiso   1.00
H57    H     0.48812   0.33571   0.26178   0.00000  Uiso   1.00
H58    H     0.27397   0.09948   0.03895   0.00000  Uiso   1.00
H59    H     0.21893   0.09783   0.03925   0.00000  Uiso   1.00
H60    H     0.23600   0.41402   0.26382   0.00000  Uiso   1.00
H61    H     0.29052   0.41743   0.27515   0.00000  Uiso   1.00
H62    H     0.28085   0.40204   0.03992   0.00000  Uiso   1.00
H63    H     0.08422   0.36085   0.09677   0.00000  Uiso   1.00
H64    H     0.22581   0.40061   0.03975   0.00000  Uiso   1.00
H65    H     0.20934   0.08267   0.27470   0.00000  Uiso   1.00
H66    H     0.26385   0.08612   0.26314   0.00000  Uiso   1.00
H67    H     0.39002   0.16668   0.23690   0.00000  Uiso   1.00
H68    H     0.08364   0.13879   0.23682   0.00000  Uiso   1.00
H69    H     0.39096   0.33417   0.09631   0.00000  Uiso   1.00
H70    H     0.41638   0.36061   0.23680   0.00000  Uiso   1.00
H71    H     0.10933   0.16674   0.09644   0.00000  Uiso   1.00
H72    H     0.14022   0.41725   0.09675   0.00000  Uiso   1.00
N73    N     0.00000   0.25000   0.28573   0.00000  Uiso   1.00
N74    N     0.25927   0.41847   0.28862   0.00000  Uiso   1.00
N75    N     0.25286   0.41961   0.04918   0.00000  Uiso   1.00
N76    N     0.24065   0.08156   0.28803   0.00000  Uiso   1.00
N77    N     0.00000   0.25000   0.04760   0.00000  Uiso   1.00
N78    N     0.25000   0.00000   0.28573   0.00000  Uiso   1.00
N79    N     0.25000   0.00000   0.04760   0.00000  Uiso   1.00
N80    N     0.00507   0.33218   0.04465   0.00000  Uiso   1.00
N81    N     0.49035   0.16850   0.28866   0.00000  Uiso   1.00
N82    N     0.49632   0.16964   0.04927   0.00000  Uiso   1.00
N83    N     0.01071   0.33111   0.28722   0.00000  Uiso   1.00
N84    N     0.24701   0.08037   0.04857   0.00000  Uiso   1.00
O85    O     0.04581   0.20419   0.20487   0.00000  Uiso   1.00
O86    O     0.20420   0.04581   0.12846   0.00000  Uiso   1.00
O87    O     0.20420   0.04581   0.20487   0.00000  Uiso   1.00
O88    O     0.29581   0.45419   0.12846   0.00000  Uiso   1.00
O89    O     0.20420   0.45419   0.12846   0.00000  Uiso   1.00
O90    O     0.29581   0.04581   0.20487   0.00000  Uiso   1.00
O91    O     0.29581   0.04581   0.12846   0.00000  Uiso   1.00
O92    O     0.20420   0.45419   0.20487   0.00000  Uiso   1.00
O93    O     0.45420   0.29581   0.12846   0.00000  Uiso   1.00
O94    O     0.45420   0.29581   0.20487   0.00000  Uiso   1.00
O95    O     0.04581   0.20419   0.12846   0.00000  Uiso   1.00
O96    O     0.45420   0.20419   0.12846   0.00000  Uiso   1.00
O97    O     0.04581   0.29581   0.20487   0.00000  Uiso   1.00
O98    O     0.04581   0.29581   0.12846   0.00000  Uiso   1.00
O99    O     0.45420   0.20419   0.20487   0.00000  Uiso   1.00
O100   O     0.29581   0.45419   0.20487   0.00000  Uiso   1.00
Zn101  Zn    0.00000   0.25000   0.21771   0.00000  Uiso   1.00
Zn102  Zn    0.00000   0.25000   0.11563   0.00000  Uiso   1.00
Zn103  Zn    0.25000  -0.00000   0.21771   0.00000  Uiso   1.00
Zn104  Zn    0.25000   0.00000   0.11563   0.00000  Uiso   1.00
C105   C     0.55985   0.18996   0.16671   0.00000  Uiso   1.00
C106   C     0.99649   0.21068   0.31019   0.00000  Uiso   1.00
C107   C     0.99772   0.21080   0.02463   0.00000  Uiso   1.00
C108   C     0.50392   0.28911   0.30935   0.00000  Uiso   1.00
C109   C     0.74814   0.03920   0.02426   0.00000  Uiso   1.00
C110   C     0.75316   0.46066   0.31014   0.00000  Uiso   1.00
C111   C     0.75183   0.46080   0.02456   0.00000  Uiso   1.00
C112   C     0.74682   0.03935   0.30984   0.00000  Uiso   1.00
C113   C     0.89699   0.13473   0.12691   0.00000  Uiso   1.00
C114   C     0.61731   0.35005   0.20585   0.00000  Uiso   1.00
C115   C     0.60227   0.36647   0.12728   0.00000  Uiso   1.00
C116   C     0.94020   0.31010   0.16663   0.00000  Uiso   1.00
C117   C     0.88360   0.14863   0.20619   0.00000  Uiso   1.00
C118   C     0.60146   0.13283   0.20611   0.00000  Uiso   1.00
C119   C     0.88448   0.35223   0.12703   0.00000  Uiso   1.00
C120   C     0.89858   0.36686   0.20609   0.00000  Uiso   1.00
C121   C     0.61571   0.14830   0.12712   0.00000  Uiso   1.00
C122   C     0.63412   0.39853   0.12731   0.00000  Uiso   1.00
C123   C     0.85179   0.11648   0.20622   0.00000  Uiso   1.00
C124   C     0.86502   0.10278   0.12685   0.00000  Uiso   1.00
C125   C     0.64902   0.38233   0.20601   0.00000  Uiso   1.00
C126   C     0.86670   0.39897   0.20607   0.00000  Uiso   1.00
C127   C     0.93994   0.19016   0.16669   0.00000  Uiso   1.00
C128   C     0.64761   0.11624   0.12707   0.00000  Uiso   1.00
C129   C     0.63320   0.10059   0.20597   0.00000  Uiso   1.00
C130   C     0.85249   0.38417   0.12710   0.00000  Uiso   1.00
C131   C     0.59372   0.34250   0.16657   0.00000  Uiso   1.00
C132   C     0.90641   0.15739   0.16663   0.00000  Uiso   1.00
C133   C     0.90732   0.34352   0.16658   0.00000  Uiso   1.00
C134   C     0.59283   0.15663   0.16669   0.00000  Uiso   1.00
C135   C     0.84265   0.09356   0.16657   0.00000  Uiso   1.00
C136   C     0.65729   0.40652   0.16674   0.00000  Uiso   1.00
C137   C     0.65644   0.09263   0.16653   0.00000  Uiso   1.00
C138   C     0.56013   0.30978   0.16662   0.00000  Uiso   1.00
C139   C     0.84350   0.40730   0.16666   0.00000  Uiso   1.00
C140   C     0.81003   0.44013   0.16670   0.00000  Uiso   1.00
C141   C     0.68993   0.05983   0.16662   0.00000  Uiso   1.00
C142   C     0.69019   0.43992   0.16672   0.00000  Uiso   1.00
C143   C     0.80979   0.06011   0.16663   0.00000  Uiso   1.00
C144   C     0.50270   0.28932   0.02337   0.00000  Uiso   1.00
H145   H     0.91438   0.14136   0.09607   0.00000  Uiso   1.00
H146   H     0.83439   0.10985   0.23710   0.00000  Uiso   1.00
H147   H     0.85821   0.08510   0.09598   0.00000  Uiso   1.00
H148   H     0.66709   0.38803   0.23661   0.00000  Uiso   1.00
H149   H     0.86054   0.41734   0.23664   0.00000  Uiso   1.00
H150   H     0.66545   0.11030   0.09640   0.00000  Uiso   1.00
H151   H     0.63925   0.08183   0.23648   0.00000  Uiso   1.00
H152   H     0.83471   0.39043   0.09641   0.00000  Uiso   1.00
H153   H     0.99886   0.33028   0.07854   0.00000  Uiso   1.00
H154   H     0.53674   0.34418   0.04052   0.00000  Uiso   1.00
H155   H     0.51360   0.16407   0.26381   0.00000  Uiso   1.00
H156   H     0.61155   0.33096   0.23622   0.00000  Uiso   1.00
H157   H     0.95909   0.16751   0.27522   0.00000  Uiso   1.00
H158   H     0.96827   0.15227   0.03988   0.00000  Uiso   1.00
H159   H     0.52328   0.15043   0.03994   0.00000  Uiso   1.00
H160   H     0.54240   0.33209   0.27484   0.00000  Uiso   1.00
H161   H     0.98812   0.33571   0.26178   0.00000  Uiso   1.00
H162   H     0.77397   0.09948   0.03895   0.00000  Uiso   1.00
H163   H     0.71893   0.09783   0.03925   0.00000  Uiso   1.00
H164   H     0.73600   0.41402   0.26382   0.00000  Uiso   1.00
H165   H     0.79052   0.41743   0.27515   0.00000  Uiso   1.00
H166   H     0.78085   0.40204   0.03992   0.00000  Uiso   1.00
H167   H     0.58422   0.36085   0.09677   0.00000  Uiso   1.00
H168   H     0.72581   0.40061   0.03975   0.00000  Uiso   1.00
H169   H     0.70934   0.08267   0.27470   0.00000  Uiso   1.00
H170   H     0.76385   0.08612   0.26314   0.00000  Uiso   1.00
H171   H     0.89002   0.16668   0.23690   0.00000  Uiso   1.00
H172   H     0.58364   0.13879   0.23682   0.00000  Uiso   1.00
H173   H     0.89096   0.33417   0.09631   0.00000  Uiso   1.00
H174   H     0.91638   0.36061   0.23680   0.00000  Uiso   1.00
H175   H     0.60933   0.16674   0.09644   0.00000  Uiso   1.00
H176   H     0.64022   0.41725   0.09675   0.00000  Uiso   1.00
N177   N     0.50000   0.25000   0.28573   0.00000  Uiso   1.00
N178   N     0.75927   0.41847   0.28862   0.00000  Uiso   1.00
N179   N     0.75286   0.41961   0.04918   0.00000  Uiso   1.00
N180   N     0.74065   0.08156   0.28803   0.00000  Uiso   1.00
N181   N     0.50000   0.25000   0.04760   0.00000  Uiso   1.00
N182   N     0.75000   0.00000   0.28573   0.00000  Uiso   1.00
N183   N     0.75000   0.00000   0.04760   0.00000  Uiso   1.00
N184   N     0.50507   0.33218   0.04465   0.00000  Uiso   1.00
N185   N     0.99035   0.16850   0.28866   0.00000  Uiso   1.00
N186   N     0.99632   0.16964   0.04927   0.00000  Uiso   1.00
N187   N     0.51071   0.33111   0.28722   0.00000  Uiso   1.00
N188   N     0.74701   0.08037   0.04857   0.00000  Uiso   1.00
O189   O     0.54581   0.20419   0.20487   0.00000  Uiso   1.00
O190   O     0.70420   0.04581   0.12846   0.00000  Uiso   1.00
O191   O     0.70420   0.04581   0.20487   0.00000  Uiso   1.00
O192   O     0.79581   0.45419   0.12846   0.00000  Uiso   1.00
O193   O     0.70420   0.45419   0.12846   0.00000  Uiso   1.00
O194   O     0.79581   0.04581   0.20487   0.00000  Uiso   1.00
O195   O     0.79581   0.04581   0.12846   0.00000  Uiso   1.00
O196   O     0.70420   0.45419   0.20487   0.00000  Uiso   1.00
O197   O     0.95420   0.29581   0.12846   0.00000  Uiso   1.00
O198   O     0.95420   0.29581   0.20487   0.00000  Uiso   1.00
O199   O     0.54581   0.20419   0.12846   0.00000  Uiso   1.00
O200   O     0.95420   0.20419   0.12846   0.00000  Uiso   1.00
O201   O     0.54581   0.29581   0.20487   0.00000  Uiso   1.00
O202   O     0.54581   0.29581   0.12846   0.00000  Uiso   1.00
O203   O     0.95420   0.20419   0.20487   0.00000  Uiso   1.00
O204   O     0.79581   0.45419   0.20487   0.00000  Uiso   1.00
Zn205  Zn    0.50000   0.25000   0.21771   0.00000  Uiso   1.00
Zn206  Zn    0.50000   0.25000   0.11563   0.00000  Uiso   1.00
Zn207  Zn    0.75000  -0.00000   0.21771   0.00000  Uiso   1.00
Zn208  Zn    0.75000   0.00000   0.11563   0.00000  Uiso   1.00
C209   C     0.05985   0.68996   0.16671   0.00000  Uiso   1.00
C210   C     0.49649   0.71068   0.31019   0.00000  Uiso   1.00
C211   C     0.49772   0.71080   0.02463   0.00000  Uiso   1.00
C212   C     0.00392   0.78911   0.30935   0.00000  Uiso   1.00
C213   C     0.24814   0.53920   0.02426   0.00000  Uiso   1.00
C214   C     0.25316   0.96066   0.31014   0.00000  Uiso   1.00
C215   C     0.25183   0.96080   0.02456   0.00000  Uiso   1.00
C216   C     0.24682   0.53935   0.30984   0.00000  Uiso   1.00
C217   C     0.39699   0.63473   0.12691   0.00000  Uiso   1.00
C218   C     0.11731   0.85005   0.20585   0.00000  Uiso   1.00
C219   C     0.10227   0.86647   0.12728   0.00000  Uiso   1.00
C220   C     0.44020   0.81010   0.16663   0.00000  Uiso   1.00
C221   C     0.38360   0.64863   0.20619   0.00000  Uiso   1.00
C222   C     0.10146   0.63283   0.20611   0.00000  Uiso   1.00
C223   C     0.38448   0.85223   0.12703   0.00000  Uiso   1.00
C224   C     0.39858   0.86686   0.20609   0.00000  Uiso   1.00
C225   C     0.11571   0.64830   0.12712   0.00000  Uiso   1.00
C226   C     0.13412   0.89853   0.12731   0.00000  Uiso   1.00
C227   C     0.35179   0.61648   0.20622   0.00000  Uiso   1.00
C228   C     0.36502   0.60278   0.12685   0.00000  Uiso   1.00
C229   C     0.14902   0.88233   0.20601   0.00000  Uiso   1.00
C230   C     0.36670   0.89897   0.20607   0.00000  Uiso   1.00
C231   C     0.43994   0.69016   0.16669   0.00000  Uiso   1.00
C232   C     0.14761   0.61624   0.12707   0.00000  Uiso   1.00
C233   C     0.13320   0.60059   0.20597   0.00000  Uiso   1.00
C234   C     0.35249   0.88417   0.12710   0.00000  Uiso   1.00
C235   C     0.09372   0.84250   0.16657   0.00000  Uiso   1.00
C236   C     0.40641   0.65739   0.16663   0.00000  Uiso   1.00
C237   C     0.40732   0.84352   0.16658   0.00000  Uiso   1.00
C238   C     0.09283   0.65663   0.16669   0.00000  Uiso   1.00
C239   C     0.34265   0.59356   0.16657   0.00000  Uiso   1.00
C240   C     0.15729   0.90652   0.16674   0.00000  Uiso   1.00
C241   C     0.15644   0.59263   0.16653   0.00000  Uiso   1.00
C242   C     0.06013   0.80978   0.16662   0.00000  Uiso   1.00
C243   C     0.34350   0.90730   0.16666   0.00000  Uiso   1.00
C244   C     0.31003   0.94013   0.16670   0.00000  Uiso   1.00
C245   C     0.18993   0.55983   0.16662   0.00000  Uiso   1.00
C246   C     0.19019   0.93992   0.16672   0.00000  Uiso   1.00
C247   C     0.30979   0.56011   0.16663   0.00000  Uiso   1.00
C248   C     0.00270   0.78932   0.02337   0.00000  Uiso   1.00
H249   H     0.41438   0.64136   0.09607   0.00000  Uiso   1.00
H250   H     0.33439   0.60985   0.23710   0.00000  Uiso   1.00
H251   H     0.35821   0.58510   0.09598   0.00000  Uiso   1.00
H252   H     0.16709   0.88803   0.23661   0.00000  Uiso   1.00
H253   H     0.36054   0.91734   0.23664   0.00000  Uiso   1.00
H254   H     0.16545   0.61030   0.09640   0.00000  Uiso   1.00
H255   H     0.13925   0.58183   0.23648   0.00000  Uiso   1.00
H256   H     0.33471   0.89043   0.09641   0.00000  Uiso   1.00
H257   H     0.49886   0.83028   0.07854   0.00000  Uiso   1.00
H258   H     0.03674   0.84418   0.04052   0.00000  Uiso   1.00
H259   H     0.01360   0.66407   0.26381   0.00000  Uiso   1.00
H260   H     0.11155   0.83096   0.23622   0.00000  Uiso   1.00
H261   H     0.45909   0.66751   0.27522   0.00000  Uiso   1.00
H262   H     0.46827   0.65227   0.03988   0.00000  Uiso   1.00
H263   H     0.02328   0.65043   0.03994   0.00000  Uiso   1.00
H264   H     0.04240   0.83209   0.27484   0.00000  Uiso   1.00
H265   H     0.48812   0.83571   0.26178   0.00000  Uiso   1.00
H266   H     0.27397   0.59948   0.03895   0.00000  Uiso   1.00
H267   H     0.21893   0.59783   0.03925   0.00000  Uiso   1.00
H268   H     0.23600   0.91402   0.26382   0.00000  Uiso   1.00
H269   H     0.29052   0.91743   0.27515   0.00000  Uiso   1.00
H270   H     0.28085   0.90204   0.03992   0.00000  Uiso   1.00
H271   H     0.08422   0.86085   0.09677   0.00000  Uiso   1.00
H272   H     0.22581   0.90061   0.03975   0.00000  Uiso   1.00
H273   H     0.20934   0.58267   0.27470   0.00000  Uiso   1.00
H274   H     0.26385   0.58612   0.26314   0.00000  Uiso   1.00
H275   H     0.39002   0.66668   0.23690   0.00000  Uiso   1.00
H276   H     0.08364   0.63879   0.23682   0.00000  Uiso   1.00
H277   H     0.39096   0.83417   0.09631   0.00000  Uiso   1.00
H278   H     0.41638   0.86061   0.23680   0.00000  Uiso   1.00
H279   H     0.10933   0.66674   0.09644   0.00000  Uiso   1.00
H280   H     0.14022   0.91725   0.09675   0.00000  Uiso   1.00
N281   N     0.00000   0.75000   0.28573   0.00000  Uiso   1.00
N282   N     0.25927   0.91847   0.28862   0.00000  Uiso   1.00
N283   N     0.25286   0.91961   0.04918   0.00000  Uiso   1.00
N284   N     0.24065   0.58156   0.28803   0.00000  Uiso   1.00
N285   N     0.00000   0.75000   0.04760   0.00000  Uiso   1.00
N286   N     0.25000   0.50000   0.28573   0.00000  Uiso   1.00
N287   N     0.25000   0.50000   0.04760   0.00000  Uiso   1.00
N288   N     0.00507   0.83218   0.04465   0.00000  Uiso   1.00
N289   N     0.49035   0.66850   0.28866   0.00000  Uiso   1.00
N290   N     0.49632   0.66964   0.04927   0.00000  Uiso   1.00
N291   N     0.01071   0.83111   0.28722   0.00000  Uiso   1.00
N292   N     0.24701   0.58037   0.04857   0.00000  Uiso   1.00
O293   O     0.04581   0.70419   0.20487   0.00000  Uiso   1.00
O294   O     0.20420   0.54581   0.12846   0.00000  Uiso   1.00
O295   O     0.20420   0.54581   0.20487   0.00000  Uiso   1.00
O296   O     0.29581   0.95419   0.12846   0.00000  Uiso   1.00
O297   O     0.20420   0.95419   0.12846   0.00000  Uiso   1.00
O298   O     0.29581   0.54581   0.20487   0.00000  Uiso   1.00
O299   O     0.29581   0.54581   0.12846   0.00000  Uiso   1.00
O300   O     0.20420   0.95419   0.20487   0.00000  Uiso   1.00
O301   O     0.45420   0.79581   0.12846   0.00000  Uiso   1.00
O302   O     0.45420   0.79581   0.20487   0.00000  Uiso   1.00
O303   O     0.04581   0.70419   0.12846   0.00000  Uiso   1.00
O304   O     0.45420   0.70419   0.12846   0.00000  Uiso   1.00
O305   O     0.04581   0.79581   0.20487   0.00000  Uiso   1.00
O306   O     0.04581   0.79581   0.12846   0.00000  Uiso   1.00
O307   O     0.45420   0.70419   0.20487   0.00000  Uiso   1.00
O308   O     0.29581   0.95419   0.20487   0.00000  Uiso   1.00
Zn309  Zn    0.00000   0.75000   0.21771   0.00000  Uiso   1.00
Zn310  Zn    0.00000   0.75000   0.11563   0.00000  Uiso   1.00
Zn311  Zn    0.25000   0.50000   0.21771   0.00000  Uiso   1.00
Zn312  Zn    0.25000   0.50000   0.11563   0.00000  Uiso   1.00
C313   C     0.55985   0.68996   0.16671   0.00000  Uiso   1.00
C314   C     0.99649   0.71068   0.31019   0.00000  Uiso   1.00
C315   C     0.99772   0.71080   0.02463   0.00000  Uiso   1.00
C316   C     0.50392   0.78911   0.30935   0.00000  Uiso   1.00
C317   C     0.74814   0.53920   0.02426   0.00000  Uiso   1.00
C318   C     0.75316   0.96066   0.31014   0.00000  Uiso   1.00
C319   C     0.75183   0.96080   0.02456   0.00000  Uiso   1.00
C320   C     0.74682   0.53935   0.30984   0.00000  Uiso   1.00
C321   C     0.89699   0.63473   0.12691   0.00000  Uiso   1.00
C322   C     0.61731   0.85005   0.20585   0.00000  Uiso   1.00
C323   C     0.60227   0.86647   0.12728   0.00000  Uiso   1.00
C324   C     0.94020   0.81010   0.16663   0.00000  Uiso   1.00
C325   C     0.88360   0.64863   0.20619   0.00000  Uiso   1.00
C326   C     0.60146   0.63283   0.20611   0.00000  Uiso   1.00
C327   C     0.88448   0.85223   0.12703   0.00000  Uiso   1.00
C328   C     0.89858   0.86686   0.20609   0.00000  Uiso   1.00
C329   C     0.61571   0.64830   0.12712   0.00000  Uiso   1.00
C330   C     0.63412   0.89853   0.12731   0.00000  Uiso   1.00
C331   C     0.85179   0.61648   0.20622   0.00000  Uiso   1.00
C332   C     0.86502   0.60278   0.12685   0.00000  Uiso   1.00
C333   C     0.64902   0.88233   0.20601   0.00000  Uiso   1.00
C334   C     0.86670   0.89897   0.20607   0.00000  Uiso   1.00
C335   C     0.93994   0.69016   0.16669   0.00000  Uiso   1.00
C336   C     0.64761   0.61624   0.12707   0.00000  Uiso   1.00
C337   C     0.63320   0.60059   0.20597   0.00000  Uiso   1.00
C338   C     0.85249   0.88417   0.12710   0.00000  Uiso   1.00
C339   C     0.59372   0.84250   0.16657   0.00000  Uiso   1.00
C340   C     0.90641   0.65739   0.16663   0.00000  Uiso   1.00
C341   C     0.90732   0.84352   0.16658   0.00000  Uiso   1.00
C342   C     0.59283   0.65663   0.16669   0.00000  Uiso   1.00
C343   C     0.84265   0.59356   0.16657   0.00000  Uiso   1.00
C344   C     0.65729   0.90652   0.16674   0.00000  Uiso   1.00
C345   C     0.65644   0.59263   0.16653   0.00000  Uiso   1.00
C346   C     0.56013   0.80978   0.16662   0.00000  Uiso   1.00
C347   C     0.84350   0.90730   0.16666   0.00000  Uiso   1.00
C348   C     0.81003   0.94013   0.16670   0.00000  Uiso   1.00
C349   C     0.68993   0.55983   0.16662   0.00000  Uiso   1.00
C350   C     0.69019   0.93992   0.16672   0.00000  Uiso   1.00
C351   C     0.80979   0.56011   0.16663   0.00000  Uiso   1.00
C352   C     0.50270   0.78932   0.02337   0.00000  Uiso   1.00
H353   H     0.91438   0.64136   0.09607   0.00000  Uiso   1.00
H354   H     0.83439   0.60985   0.23710   0.00000  Uiso   1.00
H355   H     0.85821   0.58510   0.09598   0.00000  Uiso   1.00
H356   H     0.66709   0.88803   0.23661   0.00000  Uiso   1.00
H357   H     0.86054   0.91734   0.23664   0.00000  Uiso   1.00
H358   H     0.66545   0.61030   0.09640   0.00000  Uiso   1.00
H359   H     0.63925   0.58183   0.23648   0.00000  Uiso   1.00
H360   H     0.83471   0.89043   0.09641   0.00000  Uiso   1.00
H361   H     0.99886   0.83028   0.07854   0.00000  Uiso   1.00
H362   H     0.53674   0.84418   0.04052   0.00000  Uiso   1.00
H363   H     0.51360   0.66407   0.26381   0.00000  Uiso   1.00
H364   H     0.61155   0.83096   0.23622   0.00000  Uiso   1.00
H365   H     0.95909   0.66751   0.27522   0.00000  Uiso   1.00
H366   H     0.96827   0.65227   0.03988   0.00000  Uiso   1.00
H367   H     0.52328   0.65043   0.03994   0.00000  Uiso   1.00
H368   H     0.54240   0.83209   0.27484   0.00000  Uiso   1.00
H369   H     0.98812   0.83571   0.26178   0.00000  Uiso   1.00
H370   H     0.77397   0.59948   0.03895   0.00000  Uiso   1.00
H371   H     0.71893   0.59783   0.03925   0.00000  Uiso   1.00
H372   H     0.73600   0.91402   0.26382   0.00000  Uiso   1.00
H373   H     0.79052   0.91743   0.27515   0.00000  Uiso   1.00
H374   H     0.78085   0.90204   0.03992   0.00000  Uiso   1.00
H375   H     0.58422   0.86085   0.09677   0.00000  Uiso   1.00
H376   H     0.72581   0.90061   0.03975   0.00000  Uiso   1.00
H377   H     0.70934   0.58267   0.27470   0.00000  Uiso   1.00
H378   H     0.76385   0.58612   0.26314   0.00000  Uiso   1.00
H379   H     0.89002   0.66668   0.23690   0.00000  Uiso   1.00
H380   H     0.58364   0.63879   0.23682   0.00000  Uiso   1.00
H381   H     0.89096   0.83417   0.09631   0.00000  Uiso   1.00
H382   H     0.91638   0.86061   0.23680   0.00000  Uiso   1.00
H383   H     0.60933   0.66674   0.09644   0.00000  Uiso   1.00
H384   H     0.64022   0.91725   0.09675   0.00000  Uiso   1.00
N385   N     0.50000   0.75000   0.28573   0.00000  Uiso   1.00
N386   N     0.75927   0.91847   0.28862   0.00000  Uiso   1.00
N387   N     0.75286   0.91961   0.04918   0.00000  Uiso   1.00
N388   N     0.74065   0.58156   0.28803   0.00000  Uiso   1.00
N389   N     0.50000   0.75000   0.04760   0.00000  Uiso   1.00
N390   N     0.75000   0.50000   0.28573   0.00000  Uiso   1.00
N391   N     0.75000   0.50000   0.04760   0.00000  Uiso   1.00
N392   N     0.50507   0.83218   0.04465   0.00000  Uiso   1.00
N393   N     0.99035   0.66850   0.28866   0.00000  Uiso   1.00
N394   N     0.99632   0.66964   0.04927   0.00000  Uiso   1.00
N395   N     0.51071   0.83111   0.28722   0.00000  Uiso   1.00
N396   N     0.74701   0.58037   0.04857   0.00000  Uiso   1.00
O397   O     0.54581   0.70419   0.20487   0.00000  Uiso   1.00
O398   O     0.70420   0.54581   0.12846   0.00000  Uiso   1.00
O399   O     0.70420   0.54581   0.20487   0.00000  Uiso   1.00
O400   O     0.79581   0.95419   0.12846   0.00000  Uiso   1.00
O401   O     0.70420   0.95419   0.12846   0.00000  Uiso   1.00
O402   O     0.79581   0.54581   0.20487   0.00000  Uiso   1.00
O403   O     0.79581   0.54581   0.12846   0.00000  Uiso   1.00
O404   O     0.70420   0.95419   0.20487   0.00000  Uiso   1.00
O405   O     0.95420   0.79581   0.12846   0.00000  Uiso   1.00
O406   O     0.95420   0.79581   0.20487   0.00000  Uiso   1.00
O407   O     0.54581   0.70419   0.12846   0.00000  Uiso   1.00
O408   O     0.95420   0.70419   0.12846   0.00000  Uiso   1.00
O409   O     0.54581   0.79581   0.20487   0.00000  Uiso   1.00
O410   O     0.54581   0.79581   0.12846   0.00000  Uiso   1.00
O411   O     0.95420   0.70419   0.20487   0.00000  Uiso   1.00
O412   O     0.79581   0.95419   0.20487   0.00000  Uiso   1.00
Zn413  Zn    0.50000   0.75000   0.21771   0.00000  Uiso   1.00
Zn414  Zn    0.50000   0.75000   0.11563   0.00000  Uiso   1.00
Zn415  Zn    0.75000   0.50000   0.21771   0.00000  Uiso   1.00
Zn416  Zn    0.75000   0.50000   0.11563   0.00000  Uiso   1.00
C417   C     0.05985   0.18996   0.50004   0.00000  Uiso   1.00
C418   C     0.49649   0.21068   0.64352   0.00000  Uiso   1.00
C419   C     0.49772   0.21080   0.35797   0.00000  Uiso   1.00
C420   C     0.00392   0.28911   0.64268   0.00000  Uiso   1.00
C421   C     0.24814   0.03920   0.35759   0.00000  Uiso   1.00
C422   C     0.25316   0.46066   0.64348   0.00000  Uiso   1.00
C423   C     0.25183   0.46080   0.35789   0.00000  Uiso   1.00
C424   C     0.24682   0.03935   0.64318   0.00000  Uiso   1.00
C425   C     0.39699   0.13473   0.46024   0.00000  Uiso   1.00
C426   C     0.11731   0.35005   0.53919   0.00000  Uiso   1.00
C427   C     0.10227   0.36647   0.46061   0.00000  Uiso   1.00
C428   C     0.44020   0.31010   0.49996   0.00000  Uiso   1.00
C429   C     0.38360   0.14863   0.53953   0.00000  Uiso   1.00
C430   C     0.10146   0.13283   0.53944   0.00000  Uiso   1.00
C431   C     0.38448   0.35223   0.46037   0.00000  Uiso   1.00
C432   C     0.39858   0.36686   0.53942   0.00000  Uiso   1.00
C433   C     0.11571   0.14830   0.46045   0.00000  Uiso   1.00
C434   C     0.13412   0.39853   0.46065   0.00000  Uiso   1.00
C435   C     0.35179   0.11648   0.53956   0.00000  Uiso   1.00
C436   C     0.36502   0.10278   0.46018   0.00000  Uiso   1.00
C437   C     0.14902   0.38233   0.53935   0.00000  Uiso   1.00
C438   C     0.36670   0.39897   0.53940   0.00000  Uiso   1.00
C439   C     0.43994   0.19016   0.50003   0.00000  Uiso   1.00
C440   C     0.14761   0.11624   0.46040   0.00000  Uiso   1.00
C441   C     0.13320   0.10059   0.53930   0.00000  Uiso   1.00
C442   C     0.35249   0.38417   0.46043   0.00000  Uiso   1.00
C443   C     0.09372   0.34250   0.49990   0.00000  Uiso   1.00
C444   C     0.40641   0.15739   0.49997   0.00000  Uiso   1.00
C445   C     0.40732   0.34352   0.49992   0.00000  Uiso   1.00
C446   C     0.09283   0.15663   0.50003   0.00000  Uiso   1.00
C447   C     0.34265   0.09356   0.49990   0.00000  Uiso   1.00
C448   C     0.15729   0.40652   0.50008   0.00000  Uiso   1.00
C449   C     0.15644   0.09263   0.49987   0.00000  Uiso   1.00
C450   C     0.06013   0.30978   0.49996   0.00000  Uiso   1.00
C451   C     0.34350   0.40730   0.49999   0.00000  Uiso   1.00
C452   C     0.31003   0.44013   0.50003   0.00000  Uiso   1.00
C453   C     0.18993   0.05983   0.49995   0.00000  Uiso   1.00
C454   C     0.19019   0.43992   0.50005   0.00000  Uiso   1.00
C455   C     0.30979   0.06011   0.49996   0.00000  Uiso   1.00
C456   C     0.00270   0.28932   0.35670   0.00000  Uiso   1.00
H457   H     0.41438   0.14136   0.42941   0.00000  Uiso   1.00
H458   H     0.33439   0.10985   0.57043   0.00000  Uiso   1.00
H459   H     0.35821   0.08510   0.42931   0.00000  Uiso   1.00
H460   H     0.16709   0.38803   0.56994   0.00000  Uiso   1.00
H461   H     0.36054   0.41734   0.56998   0.00000  Uiso   1.00
H462   H     0.16545   0.11030   0.42973   0.00000  Uiso   1.00
H463   H     0.13925   0.08183   0.56982   0.00000  Uiso   1.00
H464   H     0.33471   0.39043   0.42974   0.00000  Uiso   1.00
H465   H     0.49886   0.33028   0.41187   0.00000  Uiso   1.00
H466   H     0.03674   0.34418   0.37385   0.00000  Uiso   1.00
H467   H     0.01360   0.16407   0.59714   0.00000  Uiso   1.00
H468   H     0.11155   0.33096   0.56955   0.00000  Uiso   1.00
H469   H     0.45909   0.16751   0.60856   0.00000  Uiso   1.00
H470   H     0.46827   0.15227   0.37322   0.00000  Uiso   1.00
H471   H     0.02328   0.15043   0.37328   0.00000  Uiso   1.00
H472   H     0.04240   0.33209   0.60818   0.00000  Uiso   1.00
H473   H     0.48812   0.33571   0.59511   0.00000  Uiso   1.00
H474   H     0.27397   0.09948   0.37228   0.00000  Uiso   1.00
H475   H     0.21893   0.09783   0.37258   0.00000  Uiso   1.00
H476   H     0.23600   0.41402   0.59716   0.00000  Uiso   1.00
H477   H     0.29052   0.41743   0.60848   0.00000  Uiso   1.00
H478   H     0.28085   0.40204   0.37325   0.00000  Uiso   1.00
H479   H     0.08422   0.36085   0.43010   0.00000  Uiso   1.00
H480   H     0.22581   0.40061   0.37309   0.00000  Uiso   1.00
H481   H     0.20934   0.08267   0.60803   0.00000  Uiso   1.00
H482   H     0.26385   0.08612   0.59647   0.00000  Uiso   1.00
H483   H     0.39002   0.16668   0.57023   0.00000  Uiso   1.00
H484   H     0.08364   0.13879   0.57015   0.00000  Uiso   1.00
H485   H     0.39096   0.33417   0.42964   0.00000  Uiso   1.00
H486   H     0.41638   0.36061   0.57014   0.00000  Uiso   1.00
H487   H     0.10933   0.16674   0.42978   0.00000  Uiso   1.00
H488   H     0.14022   0.41725   0.43008   0.00000  Uiso   1.00
N489   N     0.00000   0.25000   0.61907   0.00000  Uiso   1.00
N490   N     0.25927   0.41847   0.62196   0.00000  Uiso   1.00
N491   N     0.25286   0.41961   0.38252   0.00000  Uiso   1.00
N492   N     0.24065   0.08156   0.62136   0.00000  Uiso   1.00
N493   N     0.00000   0.25000   0.38093   0.00000  Uiso   1.00
N494   N     0.25000   0.00000   0.61907   0.00000  Uiso   1.00
N495   N     0.25000   0.00000   0.38093   0.00000  Uiso   1.00
N496   N     0.00507   0.33218   0.37798   0.00000  Uiso   1.00
N497   N     0.49035   0.16850   0.62199   0.00000  Uiso   1.00
N498   N     0.49632   0.16964   0.38260   0.00000  Uiso   1.00
N499   N     0.01071   0.33111   0.62056   0.00000  Uiso   1.00
N500   N     0.24701   0.08037   0.38191   0.00000  Uiso   1.00
O501   O     0.04581   0.20419   0.53821   0.00000  Uiso   1.00
O502   O     0.20420   0.04581   0.46179   0.00000  Uiso   1.00
O503   O     0.20420   0.04581   0.53821   0.00000  Uiso   1.00
O504   O     0.29581   0.45419   0.46179   0.00000  Uiso   1.00
O505   O     0.20420   0.45419   0.46179   0.00000  Uiso   1.00
O506   O     0.29581   0.04581   0.53821   0.00000  Uiso   1.00
O507   O     0.29581   0.04581   0.46179   0.00000  Uiso   1.00
O508   O     0.20420   0.45419   0.53821   0.00000  Uiso   1.00
O509   O     0.45420   0.29581   0.46179   0.00000  Uiso   1.00
O510   O     0.45420   0.29581   0.53821   0.00000  Uiso   1.00
O511   O     0.04581   0.20419   0.46179   0.00000  Uiso   1.00
O512   O     0.45420   0.20419   0.46179   0.00000  Uiso   1.00
O513   O     0.04581   0.29581   0.53821   0.00000  Uiso   1.00
O514   O     0.04581   0.29581   0.46179   0.00000  Uiso   1.00
O515   O     0.45420   0.20419   0.53821   0.00000  Uiso   1.00
O516   O     0.29581   0.45419   0.53821   0.00000  Uiso   1.00
Zn517  Zn    0.00000   0.25000   0.55104   0.00000  Uiso   1.00
Zn518  Zn    0.00000   0.25000   0.44896   0.00000  Uiso   1.00
Zn519  Zn    0.25000  -0.00000   0.55104   0.00000  Uiso   1.00
Zn520  Zn    0.25000   0.00000   0.44896   0.00000  Uiso   1.00
C521   C     0.55985   0.18996   0.50004   0.00000  Uiso   1.00
C522   C     0.99649   0.21068   0.64352   0.00000  Uiso   1.00
C523   C     0.99772   0.21080   0.35797   0.00000  Uiso   1.00
C524   C     0.50392   0.28911   0.64268   0.00000  Uiso   1.00
C525   C     0.74814   0.03920   0.35759   0.00000  Uiso   1.00
C526   C     0.75316   0.46066   0.64348   0.00000  Uiso   1.00
C527   C     0.75183   0.46080   0.35789   0.00000  Uiso   1.00
C528   C     0.74682   0.03935   0.64318   0.00000  Uiso   1.00
C529   C     0.89699   0.13473   0.46024   0.00000  Uiso   1.00
C530   C     0.61731   0.35005   0.53919   0.00000  Uiso   1.00
C531   C     0.60227   0.36647   0.46061   0.00000  Uiso   1.00
C532   C     0.94020   0.31010   0.49996   0.00000  Uiso   1.00
C533   C     0.88360   0.14863   0.53953   0.00000  Uiso   1.00
C534   C     0.60146   0.13283   0.53944   0.00000  Uiso   1.00
C535   C     0.88448   0.35223   0.46037   0.00000  Uiso   1.00
C536   C     0.89858   0.36686   0.53942   0.00000  Uiso   1.00
C537   C     0.61571   0.14830   0.46045   0.00000  Uiso   1.00
C538   C     0.63412   0.39853   0.46065   0.00000  Uiso   1.00
C539   C     0.85179   0.11648   0.53956   0.00000  Uiso   1.00
C540   C     0.86502   0.10278   0.46018   0.00000  Uiso   1.00
C541   C     0.64902   0.38233   0.53935   0.00000  Uiso   1.00
C542   C     0.86670   0.39897   0.53940   0.00000  Uiso   1.00
C543   C     0.93994   0.19016   0.50003   0.00000  Uiso   1.00
C544   C     0.64761   0.11624   0.46040   0.00000  Uiso   1.00
C545   C     0.63320   0.10059   0.53930   0.00000  Uiso   1.00
C546   C     0.85249   0.38417   0.46043   0.00000  Uiso   1.00
C547   C     0.59372   0.34250   0.49990   0.00000  Uiso   1.00
C548   C     0.90641   0.15739   0.49997   0.00000  Uiso   1.00
C549   C     0.90732   0.34352   0.49992   0.00000  Uiso   1.00
C550   C     0.59283   0.15663   0.50003   0.00000  Uiso   1.00
C551   C     0.84265   0.09356   0.49990   0.00000  Uiso   1.00
C552   C     0.65729   0.40652   0.50008   0.00000  Uiso   1.00
C553   C     0.65644   0.09263   0.49987   0.00000  Uiso   1.00
C554   C     0.56013   0.30978   0.49996   0.00000  Uiso   1.00
C555   C     0.84350   0.40730   0.49999   0.00000  Uiso   1.00
C556   C     0.81003   0.44013   0.50003   0.00000  Uiso   1.00
C557   C     0.68993   0.05983   0.49995   0.00000  Uiso   1.00
C558   C     0.69019   0.43992   0.50005   0.00000  Uiso   1.00
C559   C     0.80979   0.06011   0.49996   0.00000  Uiso   1.00
C560   C     0.50270   0.28932   0.35670   0.00000  Uiso   1.00
H561   H     0.91438   0.14136   0.42941   0.00000  Uiso   1.00
H562   H     0.83439   0.10985   0.57043   0.00000  Uiso   1.00
H563   H     0.85821   0.08510   0.42931   0.00000  Uiso   1.00
H564   H     0.66709   0.38803   0.56994   0.00000  Uiso   1.00
H565   H     0.86054   0.41734   0.56998   0.00000  Uiso   1.00
H566   H     0.66545   0.11030   0.42973   0.00000  Uiso   1.00
H567   H     0.63925   0.08183   0.56982   0.00000  Uiso   1.00
H568   H     0.83471   0.39043   0.42974   0.00000  Uiso   1.00
H569   H     0.99886   0.33028   0.41187   0.00000  Uiso   1.00
H570   H     0.53674   0.34418   0.37385   0.00000  Uiso   1.00
H571   H     0.51360   0.16407   0.59714   0.00000  Uiso   1.00
H572   H     0.61155   0.33096   0.56955   0.00000  Uiso   1.00
H573   H     0.95909   0.16751   0.60856   0.00000  Uiso   1.00
H574   H     0.96827   0.15227   0.37322   0.00000  Uiso   1.00
H575   H     0.52328   0.15043   0.37328   0.00000  Uiso   1.00
H576   H     0.54240   0.33209   0.60818   0.00000  Uiso   1.00
H577   H     0.98812   0.33571   0.59511   0.00000  Uiso   1.00
H578   H     0.77397   0.09948   0.37228   0.00000  Uiso   1.00
H579   H     0.71893   0.09783   0.37258   0.00000  Uiso   1.00
H580   H     0.73600   0.41402   0.59716   0.00000  Uiso   1.00
H581   H     0.79052   0.41743   0.60848   0.00000  Uiso   1.00
H582   H     0.78085   0.40204   0.37325   0.00000  Uiso   1.00
H583   H     0.58422   0.36085   0.43010   0.00000  Uiso   1.00
H584   H     0.72581   0.40061   0.37309   0.00000  Uiso   1.00
H585   H     0.70934   0.08267   0.60803   0.00000  Uiso   1.00
H586   H     0.76385   0.08612   0.59647   0.00000  Uiso   1.00
H587   H     0.89002   0.16668   0.57023   0.00000  Uiso   1.00
H588   H     0.58364   0.13879   0.57015   0.00000  Uiso   1.00
H589   H     0.89096   0.33417   0.42964   0.00000  Uiso   1.00
H590   H     0.91638   0.36061   0.57014   0.00000  Uiso   1.00
H591   H     0.60933   0.16674   0.42978   0.00000  Uiso   1.00
H592   H     0.64022   0.41725   0.43008   0.00000  Uiso   1.00
N593   N     0.50000   0.25000   0.61907   0.00000  Uiso   1.00
N594   N     0.75927   0.41847   0.62196   0.00000  Uiso   1.00
N595   N     0.75286   0.41961   0.38252   0.00000  Uiso   1.00
N596   N     0.74065   0.08156   0.62136   0.00000  Uiso   1.00
N597   N     0.50000   0.25000   0.38093   0.00000  Uiso   1.00
N598   N     0.75000   0.00000   0.61907   0.00000  Uiso   1.00
N599   N     0.75000   0.00000   0.38093   0.00000  Uiso   1.00
N600   N     0.50507   0.33218   0.37798   0.00000  Uiso   1.00
N601   N     0.99035   0.16850   0.62199   0.00000  Uiso   1.00
N602   N     0.99632   0.16964   0.38260   0.00000  Uiso   1.00
N603   N     0.51071   0.33111   0.62056   0.00000  Uiso   1.00
N604   N     0.74701   0.08037   0.38191   0.00000  Uiso   1.00
O605   O     0.54581   0.20419   0.53821   0.00000  Uiso   1.00
O606   O     0.70420   0.04581   0.46179   0.00000  Uiso   1.00
O607   O     0.70420   0.04581   0.53821   0.00000  Uiso   1.00
O608   O     0.79581   0.45419   0.46179   0.00000  Uiso   1.00
O609   O     0.70420   0.45419   0.46179   0.00000  Uiso   1.00
O610   O     0.79581   0.04581   0.53821   0.00000  Uiso   1.00
O611   O     0.79581   0.04581   0.46179   0.00000  Uiso   1.00
O612   O     0.70420   0.45419   0.53821   0.00000  Uiso   1.00
O613   O     0.95420   0.29581   0.46179   0.00000  Uiso   1.00
O614   O     0.95420   0.29581   0.53821   0.00000  Uiso   1.00
O615   O     0.54581   0.20419   0.46179   0.00000  Uiso   1.00
O616   O     0.95420   0.20419   0.46179   0.00000  Uiso   1.00
O617   O     0.54581   0.29581   0.53821   0.00000  Uiso   1.00
O618   O     0.54581   0.29581   0.46179   0.00000  Uiso   1.00
O619   O     0.95420   0.20419   0.53821   0.00000  Uiso   1.00
O620   O     0.79581   0.45419   0.53821   0.00000  Uiso   1.00
Zn621  Zn    0.50000   0.25000   0.55104   0.00000  Uiso   1.00
Zn622  Zn    0.50000   0.25000   0.44896   0.00000  Uiso   1.00
Zn623  Zn    0.75000  -0.00000   0.55104   0.00000  Uiso   1.00
Zn624  Zn    0.75000   0.00000   0.44896   0.00000  Uiso   1.00
C625   C     0.05985   0.68996   0.50004   0.00000  Uiso   1.00
C626   C     0.49649   0.71068   0.64352   0.00000  Uiso   1.00
C627   C     0.49772   0.71080   0.35797   0.00000  Uiso   1.00
C628   C     0.00392   0.78911   0.64268   0.00000  Uiso   1.00
C629   C     0.24814   0.53920   0.35759   0.00000  Uiso   1.00
C630   C     0.25316   0.96066   0.64348   0.00000  Uiso   1.00
C631   C     0.25183   0.96080   0.35789   0.00000  Uiso   1.00
C632   C     0.24682   0.53935   0.64318   0.00000  Uiso   1.00
C633   C     0.39699   0.63473   0.46024   0.00000  Uiso   1.00
C634   C     0.11731   0.85005   0.53919   0.00000  Uiso   1.00
C635   C     0.10227   0.86647   0.46061   0.00000  Uiso   1.00
C636   C     0.44020   0.81010   0.49996   0.00000  Uiso   1.00
C637   C     0.38360   0.64863   0.53953   0.00000  Uiso   1.00
C638   C     0.10146   0.63283   0.53944   0.00000  Uiso   1.00
C639   C     0.38448   0.85223   0.46037   0.00000  Uiso   1.00
C640   C     0.39858   0.86686   0.53942   0.00000  Uiso   1.00
C641   C     0.11571   0.64830   0.46045   0.00000  Uiso   1.00
C642   C     0.13412   0.89853   0.46065   0.00000  Uiso   1.00
C643   C     0.35179   0.61648   0.53956   0.00000  Uiso   1.00
C644   C     0.36502   0.60278   0.46018   0.00000  Uiso   1.00
C645   C     0.14902   0.88233   0.53935   0.00000  Uiso   1.00
C646   C     0.36670   0.89897   0.53940   0.00000  Uiso   1.00
C647   C     0.43994   0.69016   0.50003   0.00000  Uiso   1.00
C648   C     0.14761   0.61624   0.46040   0.00000  Uiso   1.00
C649   C     0.13320   0.60059   0.53930   0.00000  Uiso   1.00
C650   C     0.35249   0.88417   0.46043   0.00000  Uiso   1.00
C651   C     0.09372   0.84250   0.49990   0.00000  Uiso   1.00
C652   C     0.40641   0.65739   0.49997   0.00000  Uiso   1.00
C653   C     0.40732   0.84352   0.49992   0.00000  Uiso   1.00
C654   C     0.09283   0.65663   0.50003   0.00000  Uiso   1.00
C655   C     0.34265   0.59356   0.49990   0.00000  Uiso   1.00
C656   C     0.15729   0.90652   0.50008   0.00000  Uiso   1.00
C657   C     0.15644   0.59263   0.49987   0.00000  Uiso   1.00
C658   C     0.06013   0.80978   0.49996   0.00000  Uiso   1.00
C659   C     0.34350   0.90730   0.49999   0.00000  Uiso   1.00
C660   C     0.31003   0.94013   0.50003   0.00000  Uiso   1.00
C661   C     0.18993   0.55983   0.49995   0.00000  Uiso   1.00
C662   C     0.19019   0.93992   0.50005   0.00000  Uiso   1.00
C663   C     0.30979   0.56011   0.49996   0.00000  Uiso   1.00
C664   C     0.00270   0.78932   0.35670   0.00000  Uiso   1.00
H665   H     0.41438   0.64136   0.42941   0.00000  Uiso   1.00
H666   H     0.33439   0.60985   0.57043   0.00000  Uiso   1.00
H667   H     0.35821   0.58510   0.42931   0.00000  Uiso   1.00
H668   H     0.16709   0.88803   0.56994   0.00000  Uiso   1.00
H669   H     0.36054   0.91734   0.56998   0.00000  Uiso   1.00
H670   H     0.16545   0.61030   0.42973   0.00000  Uiso   1.00
H671   H     0.13925   0.58183   0.56982   0.00000  Uiso   1.00
H672   H     0.33471   0.89043   0.42974   0.00000  Uiso   1.00
H673   H     0.49886   0.83028   0.41187   0.00000  Uiso   1.00
H674   H     0.03674   0.84418   0.37385   0.00000  Uiso   1.00
H675   H     0.01360   0.66407   0.59714   0.00000  Uiso   1.00
H676   H     0.11155   0.83096   0.56955   0.00000  Uiso   1.00
H677   H     0.45909   0.66751   0.60856   0.00000  Uiso   1.00
H678   H     0.46827   0.65227   0.37322   0.00000  Uiso   1.00
H679   H     0.02328   0.65043   0.37328   0.00000  Uiso   1.00
H680   H     0.04240   0.83209   0.60818   0.00000  Uiso   1.00
H681   H     0.48812   0.83571   0.59511   0.00000  Uiso   1.00
H682   H     0.27397   0.59948   0.37228   0.00000  Uiso   1.00
H683   H     0.21893   0.59783   0.37258   0.00000  Uiso   1.00
H684   H     0.23600   0.91402   0.59716   0.00000  Uiso   1.00
H685   H     0.29052   0.91743   0.60848   0.00000  Uiso   1.00
H686   H     0.28085   0.90204   0.37325   0.00000  Uiso   1.00
H687   H     0.08422   0.86085   0.43010   0.00000  Uiso   1.00
H688   H     0.22581   0.90061   0.37309   0.00000  Uiso   1.00
H689   H     0.20934   0.58267   0.60803   0.00000  Uiso   1.00
H690   H     0.26385   0.58612   0.59647   0.00000  Uiso   1.00
H691   H     0.39002   0.66668   0.57023   0.00000  Uiso   1.00
H692   H     0.08364   0.63879   0.57015   0.00000  Uiso   1.00
H693   H     0.39096   0.83417   0.42964   0.00000  Uiso   1.00
H694   H     0.41638   0.86061   0.57014   0.00000  Uiso   1.00
H695   H     0.10933   0.66674   0.42978   0.00000  Uiso   1.00
H696   H     0.14022   0.91725   0.43008   0.00000  Uiso   1.00
N697   N     0.00000   0.75000   0.61907   0.00000  Uiso   1.00
N698   N     0.25927   0.91847   0.62196   0.00000  Uiso   1.00
N699   N     0.25286   0.91961   0.38252   0.00000  Uiso   1.00
N700   N     0.24065   0.58156   0.62136   0.00000  Uiso   1.00
N701   N     0.00000   0.75000   0.38093   0.00000  Uiso   1.00
N702   N     0.25000   0.50000   0.61907   0.00000  Uiso   1.00
N703   N     0.25000   0.50000   0.38093   0.00000  Uiso   1.00
N704   N     0.00507   0.83218   0.37798   0.00000  Uiso   1.00
N705   N     0.49035   0.66850   0.62199   0.00000  Uiso   1.00
N706   N     0.49632   0.66964   0.38260   0.00000  Uiso   1.00
N707   N     0.01071   0.83111   0.62056   0.00000  Uiso   1.00
N708   N     0.24701   0.58037   0.38191   0.00000  Uiso   1.00
O709   O     0.04581   0.70419   0.53821   0.00000  Uiso   1.00
O710   O     0.20420   0.54581   0.46179   0.00000  Uiso   1.00
O711   O     0.20420   0.54581   0.53821   0.00000  Uiso   1.00
O712   O     0.29581   0.95419   0.46179   0.00000  Uiso   1.00
O713   O     0.20420   0.95419   0.46179   0.00000  Uiso   1.00
O714   O     0.29581   0.54581   0.53821   0.00000  Uiso   1.00
O715   O     0.29581   0.54581   0.46179   0.00000  Uiso   1.00
O716   O     0.20420   0.95419   0.53821   0.00000  Uiso   1.00
O717   O     0.45420   0.79581   0.46179   0.00000  Uiso   1.00
O718   O     0.45420   0.79581   0.53821   0.00000  Uiso   1.00
O719   O     0.04581   0.70419   0.46179   0.00000  Uiso   1.00
O720   O     0.45420   0.70419   0.46179   0.00000  Uiso   1.00
O721   O     0.04581   0.79581   0.53821   0.00000  Uiso   1.00
O722   O     0.04581   0.79581   0.46179   0.00000  Uiso   1.00
O723   O     0.45420   0.70419   0.53821   0.00000  Uiso   1.00
O724   O     0.29581   0.95419   0.53821   0.00000  Uiso   1.00
Zn725  Zn    0.00000   0.75000   0.55104   0.00000  Uiso   1.00
Zn726  Zn    0.00000   0.75000   0.44896   0.00000  Uiso   1.00
Zn727  Zn    0.25000   0.50000   0.55104   0.00000  Uiso   1.00
Zn728  Zn    0.25000   0.50000   0.44896   0.00000  Uiso   1.00
C729   C     0.55985   0.68996   0.50004   0.00000  Uiso   1.00
C730   C     0.99649   0.71068   0.64352   0.00000  Uiso   1.00
C731   C     0.99772   0.71080   0.35797   0.00000  Uiso   1.00
C732   C     0.50392   0.78911   0.64268   0.00000  Uiso   1.00
C733   C     0.74814   0.53920   0.35759   0.00000  Uiso   1.00
C734   C     0.75316   0.96066   0.64348   0.00000  Uiso   1.00
C735   C     0.75183   0.96080   0.35789   0.00000  Uiso   1.00
C736   C     0.74682   0.53935   0.64318   0.00000  Uiso   1.00
C737   C     0.89699   0.63473   0.46024   0.00000  Uiso   1.00
C738   C     0.61731   0.85005   0.53919   0.00000  Uiso   1.00
C739   C     0.60227   0.86647   0.46061   0.00000  Uiso   1.00
C740   C     0.94020   0.81010   0.49996   0.00000  Uiso   1.00
C741   C     0.88360   0.64863   0.53953   0.00000  Uiso   1.00
C742   C     0.60146   0.63283   0.53944   0.00000  Uiso   1.00
C743   C     0.88448   0.85223   0.46037   0.00000  Uiso   1.00
C744   C     0.89858   0.86686   0.53942   0.00000  Uiso   1.00
C745   C     0.61571   0.64830   0.46045   0.00000  Uiso   1.00
C746   C     0.63412   0.89853   0.46065   0.00000  Uiso   1.00
C747   C     0.85179   0.61648   0.53956   0.00000  Uiso   1.00
C748   C     0.86502   0.60278   0.46018   0.00000  Uiso   1.00
C749   C     0.64902   0.88233   0.53935   0.00000  Uiso   1.00
C750   C     0.86670   0.89897   0.53940   0.00000  Uiso   1.00
C751   C     0.93994   0.69016   0.50003   0.00000  Uiso   1.00
C752   C     0.64761   0.61624   0.46040   0.00000  Uiso   1.00
C753   C     0.63320   0.60059   0.53930   0.00000  Uiso   1.00
C754   C     0.85249   0.88417   0.46043   0.00000  Uiso   1.00
C755   C     0.59372   0.84250   0.49990   0.00000  Uiso   1.00
C756   C     0.90641   0.65739   0.49997   0.00000  Uiso   1.00
C757   C     0.90732   0.84352   0.49992   0.00000  Uiso   1.00
C758   C     0.59283   0.65663   0.50003   0.00000  Uiso   1.00
C759   C     0.84265   0.59356   0.49990   0.00000  Uiso   1.00
C760   C     0.65729   0.90652   0.50008   0.00000  Uiso   1.00
C761   C     0.65644   0.59263   0.49987   0.00000  Uiso   1.00
C762   C     0.56013   0.80978   0.49996   0.00000  Uiso   1.00
C763   C     0.84350   0.90730   0.49999   0.00000  Uiso   1.00
C764   C     0.81003   0.94013   0.50003   0.00000  Uiso   1.00
C765   C     0.68993   0.55983   0.49995   0.00000  Uiso   1.00
C766   C     0.69019   0.93992   0.50005   0.00000  Uiso   1.00
C767   C     0.80979   0.56011   0.49996   0.00000  Uiso   1.00
C768   C     0.50270   0.78932   0.35670   0.00000  Uiso   1.00
H769   H     0.91438   0.64136   0.42941   0.00000  Uiso   1.00
H770   H     0.83439   0.60985   0.57043   0.00000  Uiso   1.00
H771   H     0.85821   0.58510   0.42931   0.00000  Uiso   1.00
H772   H     0.66709   0.88803   0.56994   0.00000  Uiso   1.00
H773   H     0.86054   0.91734   0.56998   0.00000  Uiso   1.00
H774   H     0.66545   0.61030   0.42973   0.00000  Uiso   1.00
H775   H     0.63925   0.58183   0.56982   0.00000  Uiso   1.00
H776   H     0.83471   0.89043   0.42974   0.00000  Uiso   1.00
H777   H     0.99886   0.83028   0.41187   0.00000  Uiso   1.00
H778   H     0.53674   0.84418   0.37385   0.00000  Uiso   1.00
H779   H     0.51360   0.66407   0.59714   0.00000  Uiso   1.00
H780   H     0.61155   0.83096   0.56955   0.00000  Uiso   1.00
H781   H     0.95909   0.66751   0.60856   0.00000  Uiso   1.00
H782   H     0.96827   0.65227   0.37322   0.00000  Uiso   1.00
H783   H     0.52328   0.65043   0.37328   0.00000  Uiso   1.00
H784   H     0.54240   0.83209   0.60818   0.00000  Uiso   1.00
H785   H     0.98812   0.83571   0.59511   0.00000  Uiso   1.00
H786   H     0.77397   0.59948   0.37228   0.00000  Uiso   1.00
H787   H     0.71893   0.59783   0.37258   0.00000  Uiso   1.00
H788   H     0.73600   0.91402   0.59716   0.00000  Uiso   1.00
H789   H     0.79052   0.91743   0.60848   0.00000  Uiso   1.00
H790   H     0.78085   0.90204   0.37325   0.00000  Uiso   1.00
H791   H     0.58422   0.86085   0.43010   0.00000  Uiso   1.00
H792   H     0.72581   0.90061   0.37309   0.00000  Uiso   1.00
H793   H     0.70934   0.58267   0.60803   0.00000  Uiso   1.00
H794   H     0.76385   0.58612   0.59647   0.00000  Uiso   1.00
H795   H     0.89002   0.66668   0.57023   0.00000  Uiso   1.00
H796   H     0.58364   0.63879   0.57015   0.00000  Uiso   1.00
H797   H     0.89096   0.83417   0.42964   0.00000  Uiso   1.00
H798   H     0.91638   0.86061   0.57014   0.00000  Uiso   1.00
H799   H     0.60933   0.66674   0.42978   0.00000  Uiso   1.00
H800   H     0.64022   0.91725   0.43008   0.00000  Uiso   1.00
N801   N     0.50000   0.75000   0.61907   0.00000  Uiso   1.00
N802   N     0.75927   0.91847   0.62196   0.00000  Uiso   1.00
N803   N     0.75286   0.91961   0.38252   0.00000  Uiso   1.00
N804   N     0.74065   0.58156   0.62136   0.00000  Uiso   1.00
N805   N     0.50000   0.75000   0.38093   0.00000  Uiso   1.00
N806   N     0.75000   0.50000   0.61907   0.00000  Uiso   1.00
N807   N     0.75000   0.50000   0.38093   0.00000  Uiso   1.00
N808   N     0.50507   0.83218   0.37798   0.00000  Uiso   1.00
N809   N     0.99035   0.66850   0.62199   0.00000  Uiso   1.00
N810   N     0.99632   0.66964   0.38260   0.00000  Uiso   1.00
N811   N     0.51071   0.83111   0.62056   0.00000  Uiso   1.00
N812   N     0.74701   0.58037   0.38191   0.00000  Uiso   1.00
O813   O     0.54581   0.70419   0.53821   0.00000  Uiso   1.00
O814   O     0.70420   0.54581   0.46179   0.00000  Uiso   1.00
O815   O     0.70420   0.54581   0.53821   0.00000  Uiso   1.00
O816   O     0.79581   0.95419   0.46179   0.00000  Uiso   1.00
O817   O     0.70420   0.95419   0.46179   0.00000  Uiso   1.00
O818   O     0.79581   0.54581   0.53821   0.00000  Uiso   1.00
O819   O     0.79581   0.54581   0.46179   0.00000  Uiso   1.00
O820   O     0.70420   0.95419   0.53821   0.00000  Uiso   1.00
O821   O     0.95420   0.79581   0.46179   0.00000  Uiso   1.00
O822   O     0.95420   0.79581   0.53821   0.00000  Uiso   1.00
O823   O     0.54581   0.70419   0.46179   0.00000  Uiso   1.00
O824   O     0.95420   0.70419   0.46179   0.00000  Uiso   1.00
O825   O     0.54581   0.79581   0.53821   0.00000  Uiso   1.00
O826   O     0.54581   0.79581   0.46179   0.00000  Uiso   1.00
O827   O     0.95420   0.70419   0.53821   0.00000  Uiso   1.00
O828   O     0.79581   0.95419   0.53821   0.00000  Uiso   1.00
Zn829  Zn    0.50000   0.75000   0.55104   0.00000  Uiso   1.00
Zn830  Zn    0.50000   0.75000   0.44896   0.00000  Uiso   1.00
Zn831  Zn    0.75000   0.50000   0.55104   0.00000  Uiso   1.00
Zn832  Zn    0.75000   0.50000   0.44896   0.00000  Uiso   1.00
C833   C     0.05985   0.18996   0.83337   0.00000  Uiso   1.00
C834   C     0.49649   0.21068   0.97686   0.00000  Uiso   1.00
C835   C     0.49772   0.21080   0.69130   0.00000  Uiso   1.00
C836   C     0.00392   0.28911   0.97602   0.00000  Uiso   1.00
C837   C     0.24814   0.03920   0.69092   0.00000  Uiso   1.00
C838   C     0.25316   0.46066   0.97681   0.00000  Uiso   1.00
C839   C     0.25183   0.46080   0.69123   0.00000  Uiso   1.00
C840   C     0.24682   0.03935   0.97651   0.00000  Uiso   1.00
C841   C     0.39699   0.13473   0.79358   0.00000  Uiso   1.00
C842   C     0.11731   0.35005   0.87252   0.00000  Uiso   1.00
C843   C     0.10227   0.36647   0.79394   0.00000  Uiso   1.00
C844   C     0.44020   0.31010   0.83330   0.00000  Uiso   1.00
C845   C     0.38360   0.14863   0.87286   0.00000  Uiso   1.00
C846   C     0.10146   0.13283   0.87277   0.00000  Uiso   1.00
C847   C     0.38448   0.35223   0.79370   0.00000  Uiso   1.00
C848   C     0.39858   0.36686   0.87275   0.00000  Uiso   1.00
C849   C     0.11571   0.14830   0.79378   0.00000  Uiso   1.00
C850   C     0.13412   0.39853   0.79398   0.00000  Uiso   1.00
C851   C     0.35179   0.11648   0.87289   0.00000  Uiso   1.00
C852   C     0.36502   0.10278   0.79351   0.00000  Uiso   1.00
C853   C     0.14902   0.38233   0.87268   0.00000  Uiso   1.00
C854   C     0.36670   0.39897   0.87274   0.00000  Uiso   1.00
C855   C     0.43994   0.19016   0.83336   0.00000  Uiso   1.00
C856   C     0.14761   0.11624   0.79373   0.00000  Uiso   1.00
C857   C     0.13320   0.10059   0.87263   0.00000  Uiso   1.00
C858   C     0.35249   0.38417   0.79376   0.00000  Uiso   1.00
C859   C     0.09372   0.34250   0.83324   0.00000  Uiso   1.00
C860   C     0.40641   0.15739   0.83330   0.00000  Uiso   1.00
C861   C     0.40732   0.34352   0.83325   0.00000  Uiso   1.00
C862   C     0.09283   0.15663   0.83336   0.00000  Uiso   1.00
C863   C     0.34265   0.09356   0.83324   0.00000  Uiso   1.00
C864   C     0.15729   0.40652   0.83341   0.00000  Uiso   1.00
C865   C     0.15644   0.09263   0.83320   0.00000  Uiso   1.00
C866   C     0.06013   0.30978   0.83329   0.00000  Uiso   1.00
C867   C     0.34350   0.40730   0.83332   0.00000  Uiso   1.00
C868   C     0.31003   0.44013   0.83336   0.00000  Uiso   1.00
C869   C     0.18993   0.05983   0.83328   0.00000  Uiso   1.00
C870   C     0.19019   0.43992   0.83339   0.00000  Uiso   1.00
C871   C     0.30979   0.06011   0.83329   0.00000  Uiso   1.00
C872   C     0.00270   0.28932   0.69003   0.00000  Uiso   1.00
H873   H     0.41438   0.14136   0.76274   0.00000  Uiso   1.00
H874   H     0.33439   0.10985   0.90376   0.00000  Uiso   1.00
H875   H     0.35821   0.08510   0.76264   0.00000  Uiso   1.00
H876   H     0.16709   0.38803   0.90328   0.00000  Uiso   1.00
H877   H     0.36054   0.41734   0.90331   0.00000  Uiso   1.00
H878   H     0.16545   0.11030   0.76307   0.00000  Uiso   1.00
H879   H     0.13925   0.08183   0.90315   0.00000  Uiso   1.00
H880   H     0.33471   0.39043   0.76308   0.00000  Uiso   1.00
H881   H     0.49886   0.33028   0.74521   0.00000  Uiso   1.00
H882   H     0.03674   0.34418   0.70719   0.00000  Uiso   1.00
H883   H     0.01360   0.16407   0.93048   0.00000  Uiso   1.00
H884   H     0.11155   0.33096   0.90289   0.00000  Uiso   1.00
H885   H     0.45909   0.16751   0.94189   0.00000  Uiso   1.00
H886   H     0.46827   0.15227   0.70655   0.00000  Uiso   1.00
H887   H     0.02328   0.15043   0.70661   0.00000  Uiso   1.00
H888   H     0.04240   0.33209   0.94151   0.00000  Uiso   1.00
H889   H     0.48812   0.33571   0.92844   0.00000  Uiso   1.00
H890   H     0.27397   0.09948   0.70562   0.00000  Uiso   1.00
H891   H     0.21893   0.09783   0.70592   0.00000  Uiso   1.00
H892   H     0.23600   0.41402   0.93049   0.00000  Uiso   1.00
H893   H     0.29052   0.41743   0.94181   0.00000  Uiso   1.00
H894   H     0.28085   0.40204   0.70658   0.00000  Uiso   1.00
H895   H     0.08422   0.36085   0.76343   0.00000  Uiso   1.00
H896   H     0.22581   0.40061   0.70642   0.00000  Uiso   1.00
H897   H     0.20934   0.08267   0.94137   0.00000  Uiso   1.00
H898   H     0.26385   0.08612   0.92981   0.00000  Uiso   1.00
H899   H     0.39002   0.16668   0.90356   0.00000  Uiso   1.00
H900   H     0.08364   0.13879   0.90348   0.00000  Uiso   1.00
H901   H     0.39096   0.33417   0.76297   0.00000  Uiso   1.00
H902   H     0.41638   0.36061   0.90347   0.00000  Uiso   1.00
H903   H     0.10933   0.16674   0.76311   0.00000  Uiso   1.00
H904   H     0.14022   0.41725   0.76342   0.00000  Uiso   1.00
N905   N     0.00000   0.25000   0.95240   0.00000  Uiso   1.00
N906   N     0.25927   0.41847   0.95529   0.00000  Uiso   1.00
N907   N     0.25286   0.41961   0.71585   0.00000  Uiso   1.00
N908   N     0.24065   0.08156   0.95470   0.00000  Uiso   1.00
N909   N     0.00000   0.25000   0.71427   0.00000  Uiso   1.00
N910   N     0.25000   0.00000   0.95240   0.00000  Uiso   1.00
N911   N     0.25000   0.00000   0.71427   0.00000  Uiso   1.00
N912   N     0.00507   0.33218   0.71132   0.00000  Uiso   1.00
N913   N     0.49035   0.16850   0.95532   0.00000  Uiso   1.00
N914   N     0.49632   0.16964   0.71594   0.00000  Uiso   1.00
N915   N     0.01071   0.33111   0.95389   0.00000  Uiso   1.00
N916   N     0.24701   0.08037   0.71524   0.00000  Uiso   1.00
O917   O     0.04581   0.20419   0.87154   0.00000  Uiso   1.00
O918   O     0.20420   0.04581   0.79513   0.00000  Uiso   1.00
O919   O     0.20420   0.04581   0.87154   0.00000  Uiso   1.00
O920   O     0.29581   0.45419   0.79513   0.00000  Uiso   1.00
O921   O     0.20420   0.45419   0.79513   0.00000  Uiso   1.00
O922   O     0.29581   0.04581   0.87154   0.00000  Uiso   1.00
O923   O     0.29581   0.04581   0.79513   0.00000  Uiso   1.00
O924   O     0.20420   0.45419   0.87154   0.00000  Uiso   1.00
O925   O     0.45420   0.29581   0.79513   0.00000  Uiso   1.00
O926   O     0.45420   0.29581   0.87154   0.00000  Uiso   1.00
O927   O     0.04581   0.20419   0.79513   0.00000  Uiso   1.00
O928   O     0.45420   0.20419   0.79513   0.00000  Uiso   1.00
O929   O     0.04581   0.29581   0.87154   0.00000  Uiso   1.00
O930   O     0.04581   0.29581   0.79513   0.00000  Uiso   1.00
O931   O     0.45420   0.20419   0.87154   0.00000  Uiso   1.00
O932   O     0.29581   0.45419   0.87154   0.00000  Uiso   1.00
Zn933  Zn    0.00000   0.25000   0.88437   0.00000  Uiso   1.00
Zn934  Zn    0.00000   0.25000   0.78229   0.00000  Uiso   1.00
Zn935  Zn    0.25000  -0.00000   0.88437   0.00000  Uiso   1.00
Zn936  Zn    0.25000   0.00000   0.78229   0.00000  Uiso   1.00
C937   C     0.55985   0.18996   0.83337   0.00000  Uiso   1.00
C938   C     0.99649   0.21068   0.97686   0.00000  Uiso   1.00
C939   C     0.99772   0.21080   0.69130   0.00000  Uiso   1.00
C940   C     0.50392   0.28911   0.97602   0.00000  Uiso   1.00
C941   C     0.74814   0.03920   0.69092   0.00000  Uiso   1.00
C942   C     0.75316   0.46066   0.97681   0.00000  Uiso   1.00
C943   C     0.75183   0.46080   0.69123   0.00000  Uiso   1.00
C944   C     0.74682   0.03935   0.97651   0.00000  Uiso   1.00
C945   C     0.89699   0.13473   0.79358   0.00000  Uiso   1.00
C946   C     0.61731   0.35005   0.87252   0.00000  Uiso   1.00
C947   C     0.60227   0.36647   0.79394   0.00000  Uiso   1.00
C948   C     0.94020   0.31010   0.83330   0.00000  Uiso   1.00
C949   C     0.88360   0.14863   0.87286   0.00000  Uiso   1.00
C950   C     0.60146   0.13283   0.87277   0.00000  Uiso   1.00
C951   C     0.88448   0.35223   0.79370   0.00000  Uiso   1.00
C952   C     0.89858   0.36686   0.87275   0.00000  Uiso   1.00
C953   C     0.61571   0.14830   0.79378   0.00000  Uiso   1.00
C954   C     0.63412   0.39853   0.79398   0.00000  Uiso   1.00
C955   C     0.85179   0.11648   0.87289   0.00000  Uiso   1.00
C956   C     0.86502   0.10278   0.79351   0.00000  Uiso   1.00
C957   C     0.64902   0.38233   0.87268   0.00000  Uiso   1.00
C958   C     0.86670   0.39897   0.87274   0.00000  Uiso   1.00
C959   C     0.93994   0.19016   0.83336   0.00000  Uiso   1.00
C960   C     0.64761   0.11624   0.79373   0.00000  Uiso   1.00
C961   C     0.63320   0.10059   0.87263   0.00000  Uiso   1.00
C962   C     0.85249   0.38417   0.79376   0.00000  Uiso   1.00
C963   C     0.59372   0.34250   0.83324   0.00000  Uiso   1.00
C964   C     0.90641   0.15739   0.83330   0.00000  Uiso   1.00
C965   C     0.90732   0.34352   0.83325   0.00000  Uiso   1.00
C966   C     0.59283   0.15663   0.83336   0.00000  Uiso   1.00
C967   C     0.84265   0.09356   0.83324   0.00000  Uiso   1.00
C968   C     0.65729   0.40652   0.83341   0.00000  Uiso   1.00
C969   C     0.65644   0.09263   0.83320   0.00000  Uiso   1.00
C970   C     0.56013   0.30978   0.83329   0.00000  Uiso   1.00
C971   C     0.84350   0.40730   0.83332   0.00000  Uiso   1.00
C972   C     0.81003   0.44013   0.83336   0.00000  Uiso   1.00
C973   C     0.68993   0.05983   0.83328   0.00000  Uiso   1.00
C974   C     0.69019   0.43992   0.83339   0.00000  Uiso   1.00
C975   C     0.80979   0.06011   0.83329   0.00000  Uiso   1.00
C976   C     0.50270   0.28932   0.69003   0.00000  Uiso   1.00
H977   H     0.91438   0.14136   0.76274   0.00000  Uiso   1.00
H978   H     0.83439   0.10985   0.90376   0.00000  Uiso   1.00
H979   H     0.85821   0.08510   0.76264   0.00000  Uiso   1.00
H980   H     0.66709   0.38803   0.90328   0.00000  Uiso   1.00
H981   H     0.86054   0.41734   0.90331   0.00000  Uiso   1.00
H982   H     0.66545   0.11030   0.76307   0.00000  Uiso   1.00
H983   H     0.63925   0.08183   0.90315   0.00000  Uiso   1.00
H984   H     0.83471   0.39043   0.76308   0.00000  Uiso   1.00
H985   H     0.99886   0.33028   0.74521   0.00000  Uiso   1.00
H986   H     0.53674   0.34418   0.70719   0.00000  Uiso   1.00
H987   H     0.51360   0.16407   0.93048   0.00000  Uiso   1.00
H988   H     0.61155   0.33096   0.90289   0.00000  Uiso   1.00
H989   H     0.95909   0.16751   0.94189   0.00000  Uiso   1.00
H990   H     0.96827   0.15227   0.70655   0.00000  Uiso   1.00
H991   H     0.52328   0.15043   0.70661   0.00000  Uiso   1.00
H992   H     0.54240   0.33209   0.94151   0.00000  Uiso   1.00
H993   H     0.98812   0.33571   0.92844   0.00000  Uiso   1.00
H994   H     0.77397   0.09948   0.70562   0.00000  Uiso   1.00
H995   H     0.71893   0.09783   0.70592   0.00000  Uiso   1.00
H996   H     0.73600   0.41402   0.93049   0.00000  Uiso   1.00
H997   H     0.79052   0.41743   0.94181   0.00000  Uiso   1.00
H998   H     0.78085   0.40204   0.70658   0.00000  Uiso   1.00
H999   H     0.58422   0.36085   0.76343   0.00000  Uiso   1.00
H1000  H     0.72581   0.40061   0.70642   0.00000  Uiso   1.00
H1001  H     0.70934   0.08267   0.94137   0.00000  Uiso   1.00
H1002  H     0.76385   0.08612   0.92981   0.00000  Uiso   1.00
H1003  H     0.89002   0.16668   0.90356   0.00000  Uiso   1.00
H1004  H     0.58364   0.13879   0.90348   0.00000  Uiso   1.00
H1005  H     0.89096   0.33417   0.76297   0.00000  Uiso   1.00
H1006  H     0.91638   0.36061   0.90347   0.00000  Uiso   1.00
H1007  H     0.60933   0.16674   0.76311   0.00000  Uiso   1.00
H1008  H     0.64022   0.41725   0.76342   0.00000  Uiso   1.00
N1009  N     0.50000   0.25000   0.95240   0.00000  Uiso   1.00
N1010  N     0.75927   0.41847   0.95529   0.00000  Uiso   1.00
N1011  N     0.75286   0.41961   0.71585   0.00000  Uiso   1.00
N1012  N     0.74065   0.08156   0.95470   0.00000  Uiso   1.00
N1013  N     0.50000   0.25000   0.71427   0.00000  Uiso   1.00
N1014  N     0.75000   0.00000   0.95240   0.00000  Uiso   1.00
N1015  N     0.75000   0.00000   0.71427   0.00000  Uiso   1.00
N1016  N     0.50507   0.33218   0.71132   0.00000  Uiso   1.00
N1017  N     0.99035   0.16850   0.95532   0.00000  Uiso   1.00
N1018  N     0.99632   0.16964   0.71594   0.00000  Uiso   1.00
N1019  N     0.51071   0.33111   0.95389   0.00000  Uiso   1.00
N1020  N     0.74701   0.08037   0.71524   0.00000  Uiso   1.00
O1021  O     0.54581   0.20419   0.87154   0.00000  Uiso   1.00
O1022  O     0.70420   0.04581   0.79513   0.00000  Uiso   1.00
O1023  O     0.70420   0.04581   0.87154   0.00000  Uiso   1.00
O1024  O     0.79581   0.45419   0.79513   0.00000  Uiso   1.00
O1025  O     0.70420   0.45419   0.79513   0.00000  Uiso   1.00
O1026  O     0.79581   0.04581   0.87154   0.00000  Uiso   1.00
O1027  O     0.79581   0.04581   0.79513   0.00000  Uiso   1.00
O1028  O     0.70420   0.45419   0.87154   0.00000  Uiso   1.00
O1029  O     0.95420   0.29581   0.79513   0.00000  Uiso   1.00
O1030  O     0.95420   0.29581   0.87154   0.00000  Uiso   1.00
O1031  O     0.54581   0.20419   0.79513   0.00000  Uiso   1.00
O1032  O     0.95420   0.20419   0.79513   0.00000  Uiso   1.00
O1033  O     0.54581   0.29581   0.87154   0.00000  Uiso   1.00
O1034  O     0.54581   0.29581   0.79513   0.00000  Uiso   1.00
O1035  O     0.95420   0.20419   0.87154   0.00000  Uiso   1.00
O1036  O     0.79581   0.45419   0.87154   0.00000  Uiso   1.00
Zn1037 Zn    0.50000   0.25000   0.88437   0.00000  Uiso   1.00
Zn1038 Zn    0.50000   0.25000   0.78229   0.00000  Uiso   1.00
Zn1039 Zn    0.75000  -0.00000   0.88437   0.00000  Uiso   1.00
Zn1040 Zn    0.75000   0.00000   0.78229   0.00000  Uiso   1.00
C1041  C     0.05985   0.68996   0.83337   0.00000  Uiso   1.00
C1042  C     0.49649   0.71068   0.97686   0.00000  Uiso   1.00
C1043  C     0.49772   0.71080   0.69130   0.00000  Uiso   1.00
C1044  C     0.00392   0.78911   0.97602   0.00000  Uiso   1.00
C1045  C     0.24814   0.53920   0.69092   0.00000  Uiso   1.00
C1046  C     0.25316   0.96066   0.97681   0.00000  Uiso   1.00
C1047  C     0.25183   0.96080   0.69123   0.00000  Uiso   1.00
C1048  C     0.24682   0.53935   0.97651   0.00000  Uiso   1.00
C1049  C     0.39699   0.63473   0.79358   0.00000  Uiso   1.00
C1050  C     0.11731   0.85005   0.87252   0.00000  Uiso   1.00
C1051  C     0.10227   0.86647   0.79394   0.00000  Uiso   1.00
C1052  C     0.44020   0.81010   0.83330   0.00000  Uiso   1.00
C1053  C     0.38360   0.64863   0.87286   0.00000  Uiso   1.00
C1054  C     0.10146   0.63283   0.87277   0.00000  Uiso   1.00
C1055  C     0.38448   0.85223   0.79370   0.00000  Uiso   1.00
C1056  C     0.39858   0.86686   0.87275   0.00000  Uiso   1.00
C1057  C     0.11571   0.64830   0.79378   0.00000  Uiso   1.00
C1058  C     0.13412   0.89853   0.79398   0.00000  Uiso   1.00
C1059  C     0.35179   0.61648   0.87289   0.00000  Uiso   1.00
C1060  C     0.36502   0.60278   0.79351   0.00000  Uiso   1.00
C1061  C     0.14902   0.88233   0.87268   0.00000  Uiso   1.00
C1062  C     0.36670   0.89897   0.87274   0.00000  Uiso   1.00
C1063  C     0.43994   0.69016   0.83336   0.00000  Uiso   1.00
C1064  C     0.14761   0.61624   0.79373   0.00000  Uiso   1.00
C1065  C     0.13320   0.60059   0.87263   0.00000  Uiso   1.00
C1066  C     0.35249   0.88417   0.79376   0.00000  Uiso   1.00
C1067  C     0.09372   0.84250   0.83324   0.00000  Uiso   1.00
C1068  C     0.40641   0.65739   0.83330   0.00000  Uiso   1.00
C1069  C     0.40732   0.84352   0.83325   0.00000  Uiso   1.00
C1070  C     0.09283   0.65663   0.83336   0.00000  Uiso   1.00
C1071  C     0.34265   0.59356   0.83324   0.00000  Uiso   1.00
C1072  C     0.15729   0.90652   0.83341   0.00000  Uiso   1.00
C1073  C     0.15644   0.59263   0.83320   0.00000  Uiso   1.00
C1074  C     0.06013   0.80978   0.83329   0.00000  Uiso   1.00
C1075  C     0.34350   0.90730   0.83332   0.00000  Uiso   1.00
C1076  C     0.31003   0.94013   0.83336   0.00000  Uiso   1.00
C1077  C     0.18993   0.55983   0.83328   0.00000  Uiso   1.00
C1078  C     0.19019   0.93992   0.83339   0.00000  Uiso   1.00
C1079  C     0.30979   0.56011   0.83329   0.00000  Uiso   1.00
C1080  C     0.00270   0.78932   0.69003   0.00000  Uiso   1.00
H1081  H     0.41438   0.64136   0.76274   0.00000  Uiso   1.00
H1082  H     0.33439   0.60985   0.90376   0.00000  Uiso   1.00
H1083  H     0.35821   0.58510   0.76264   0.00000  Uiso   1.00
H1084  H     0.16709   0.88803   0.90328   0.00000  Uiso   1.00
H1085  H     0.36054   0.91734   0.90331   0.00000  Uiso   1.00
H1086  H     0.16545   0.61030   0.76307   0.00000  Uiso   1.00
H1087  H     0.13925   0.58183   0.90315   0.00000  Uiso   1.00
H1088  H     0.33471   0.89043   0.76308   0.00000  Uiso   1.00
H1089  H     0.49886   0.83028   0.74521   0.00000  Uiso   1.00
H1090  H     0.03674   0.84418   0.70719   0.00000  Uiso   1.00
H1091  H     0.01360   0.66407   0.93048   0.00000  Uiso   1.00
H1092  H     0.11155   0.83096   0.90289   0.00000  Uiso   1.00
H1093  H     0.45909   0.66751   0.94189   0.00000  Uiso   1.00
H1094  H     0.46827   0.65227   0.70655   0.00000  Uiso   1.00
H1095  H     0.02328   0.65043   0.70661   0.00000  Uiso   1.00
H1096  H     0.04240   0.83209   0.94151   0.00000  Uiso   1.00
H1097  H     0.48812   0.83571   0.92844   0.00000  Uiso   1.00
H1098  H     0.27397   0.59948   0.70562   0.00000  Uiso   1.00
H1099  H     0.21893   0.59783   0.70592   0.00000  Uiso   1.00
H1100  H     0.23600   0.91402   0.93049   0.00000  Uiso   1.00
H1101  H     0.29052   0.91743   0.94181   0.00000  Uiso   1.00
H1102  H     0.28085   0.90204   0.70658   0.00000  Uiso   1.00
H1103  H     0.08422   0.86085   0.76343   0.00000  Uiso   1.00
H1104  H     0.22581   0.90061   0.70642   0.00000  Uiso   1.00
H1105  H     0.20934   0.58267   0.94137   0.00000  Uiso   1.00
H1106  H     0.26385   0.58612   0.92981   0.00000  Uiso   1.00
H1107  H     0.39002   0.66668   0.90356   0.00000  Uiso   1.00
H1108  H     0.08364   0.63879   0.90348   0.00000  Uiso   1.00
H1109  H     0.39096   0.83417   0.76297   0.00000  Uiso   1.00
H1110  H     0.41638   0.86061   0.90347   0.00000  Uiso   1.00
H1111  H     0.10933   0.66674   0.76311   0.00000  Uiso   1.00
H1112  H     0.14022   0.91725   0.76342   0.00000  Uiso   1.00
N1113  N     0.00000   0.75000   0.95240   0.00000  Uiso   1.00
N1114  N     0.25927   0.91847   0.95529   0.00000  Uiso   1.00
N1115  N     0.25286   0.91961   0.71585   0.00000  Uiso   1.00
N1116  N     0.24065   0.58156   0.95470   0.00000  Uiso   1.00
N1117  N     0.00000   0.75000   0.71427   0.00000  Uiso   1.00
N1118  N     0.25000   0.50000   0.95240   0.00000  Uiso   1.00
N1119  N     0.25000   0.50000   0.71427   0.00000  Uiso   1.00
N1120  N     0.00507   0.83218   0.71132   0.00000  Uiso   1.00
N1121  N     0.49035   0.66850   0.95532   0.00000  Uiso   1.00
N1122  N     0.49632   0.66964   0.71594   0.00000  Uiso   1.00
N1123  N     0.01071   0.83111   0.95389   0.00000  Uiso   1.00
N1124  N     0.24701   0.58037   0.71524   0.00000  Uiso   1.00
O1125  O     0.04581   0.70419   0.87154   0.00000  Uiso   1.00
O1126  O     0.20420   0.54581   0.79513   0.00000  Uiso   1.00
O1127  O     0.20420   0.54581   0.87154   0.00000  Uiso   1.00
O1128  O     0.29581   0.95419   0.79513   0.00000  Uiso   1.00
O1129  O     0.20420   0.95419   0.79513   0.00000  Uiso   1.00
O1130  O     0.29581   0.54581   0.87154   0.00000  Uiso   1.00
O1131  O     0.29581   0.54581   0.79513   0.00000  Uiso   1.00
O1132  O     0.20420   0.95419   0.87154   0.00000  Uiso   1.00
O1133  O     0.45420   0.79581   0.79513   0.00000  Uiso   1.00
O1134  O     0.45420   0.79581   0.87154   0.00000  Uiso   1.00
O1135  O     0.04581   0.70419   0.79513   0.00000  Uiso   1.00
O1136  O     0.45420   0.70419   0.79513   0.00000  Uiso   1.00
O1137  O     0.04581   0.79581   0.87154   0.00000  Uiso   1.00
O1138  O     0.04581   0.79581   0.79513   0.00000  Uiso   1.00
O1139  O     0.45420   0.70419   0.87154   0.00000  Uiso   1.00
O1140  O     0.29581   0.95419   0.87154   0.00000  Uiso   1.00
Zn1141 Zn    0.00000   0.75000   0.88437   0.00000  Uiso   1.00
Zn1142 Zn    0.00000   0.75000   0.78229   0.00000  Uiso   1.00
Zn1143 Zn    0.25000   0.50000   0.88437   0.00000  Uiso   1.00
Zn1144 Zn    0.25000   0.50000   0.78229   0.00000  Uiso   1.00
C1145  C     0.55985   0.68996   0.83337   0.00000  Uiso   1.00
C1146  C     0.99649   0.71068   0.97686   0.00000  Uiso   1.00
C1147  C     0.99772   0.71080   0.69130   0.00000  Uiso   1.00
C1148  C     0.50392   0.78911   0.97602   0.00000  Uiso   1.00
C1149  C     0.74814   0.53920   0.69092   0.00000  Uiso   1.00
C1150  C     0.75316   0.96066   0.97681   0.00000  Uiso   1.00
C1151  C     0.75183   0.96080   0.69123   0.00000  Uiso   1.00
C1152  C     0.74682   0.53935   0.97651   0.00000  Uiso   1.00
C1153  C     0.89699   0.63473   0.79358   0.00000  Uiso   1.00
C1154  C     0.61731   0.85005   0.87252   0.00000  Uiso   1.00
C1155  C     0.60227   0.86647   0.79394   0.00000  Uiso   1.00
C1156  C     0.94020   0.81010   0.83330   0.00000  Uiso   1.00
C1157  C     0.88360   0.64863   0.87286   0.00000  Uiso   1.00
C1158  C     0.60146   0.63283   0.87277   0.00000  Uiso   1.00
C1159  C     0.88448   0.85223   0.79370   0.00000  Uiso   1.00
C1160  C     0.89858   0.86686   0.87275   0.00000  Uiso   1.00
C1161  C     0.61571   0.64830   0.79378   0.00000  Uiso   1.00
C1162  C     0.63412   0.89853   0.79398   0.00000  Uiso   1.00
C1163  C     0.85179   0.61648   0.87289   0.00000  Uiso   1.00
C1164  C     0.86502   0.60278   0.79351   0.00000  Uiso   1.00
C1165  C     0.64902   0.88233   0.87268   0.00000  Uiso   1.00
C1166  C     0.86670   0.89897   0.87274   0.00000  Uiso   1.00
C1167  C     0.93994   0.69016   0.83336   0.00000  Uiso   1.00
C1168  C     0.64761   0.61624   0.79373   0.00000  Uiso   1.00
C1169  C     0.63320   0.60059   0.87263   0.00000  Uiso   1.00
C1170  C     0.85249   0.88417   0.79376   0.00000  Uiso   1.00
C1171  C     0.59372   0.84250   0.83324   0.00000  Uiso   1.00
C1172  C     0.90641   0.65739   0.83330   0.00000  Uiso   1.00
C1173  C     0.90732   0.84352   0.83325   0.00000  Uiso   1.00
C1174  C     0.59283   0.65663   0.83336   0.00000  Uiso   1.00
C1175  C     0.84265   0.59356   0.83324   0.00000  Uiso   1.00
C1176  C     0.65729   0.90652   0.83341   0.00000  Uiso   1.00
C1177  C     0.65644   0.59263   0.83320   0.00000  Uiso   1.00
C1178  C     0.56013   0.80978   0.83329   0.00000  Uiso   1.00
C1179  C     0.84350   0.90730   0.83332   0.00000  Uiso   1.00
C1180  C     0.81003   0.94013   0.83336   0.00000  Uiso   1.00
C1181  C     0.68993   0.55983   0.83328   0.00000  Uiso   1.00
C1182  C     0.69019   0.93992   0.83339   0.00000  Uiso   1.00
C1183  C     0.80979   0.56011   0.83329   0.00000  Uiso   1.00
C1184  C     0.50270   0.78932   0.69003   0.00000  Uiso   1.00
H1185  H     0.91438   0.64136   0.76274   0.00000  Uiso   1.00
H1186  H     0.83439   0.60985   0.90376   0.00000  Uiso   1.00
H1187  H     0.85821   0.58510   0.76264   0.00000  Uiso   1.00
H1188  H     0.66709   0.88803   0.90328   0.00000  Uiso   1.00
H1189  H     0.86054   0.91734   0.90331   0.00000  Uiso   1.00
H1190  H     0.66545   0.61030   0.76307   0.00000  Uiso   1.00
H1191  H     0.63925   0.58183   0.90315   0.00000  Uiso   1.00
H1192  H     0.83471   0.89043   0.76308   0.00000  Uiso   1.00
H1193  H     0.99886   0.83028   0.74521   0.00000  Uiso   1.00
H1194  H     0.53674   0.84418   0.70719   0.00000  Uiso   1.00
H1195  H     0.51360   0.66407   0.93048   0.00000  Uiso   1.00
H1196  H     0.61155   0.83096   0.90289   0.00000  Uiso   1.00
H1197  H     0.95909   0.66751   0.94189   0.00000  Uiso   1.00
H1198  H     0.96827   0.65227   0.70655   0.00000  Uiso   1.00
H1199  H     0.52328   0.65043   0.70661   0.00000  Uiso   1.00
H1200  H     0.54240   0.83209   0.94151   0.00000  Uiso   1.00
H1201  H     0.98812   0.83571   0.92844   0.00000  Uiso   1.00
H1202  H     0.77397   0.59948   0.70562   0.00000  Uiso   1.00
H1203  H     0.71893   0.59783   0.70592   0.00000  Uiso   1.00
H1204  H     0.73600   0.91402   0.93049   0.00000  Uiso   1.00
H1205  H     0.79052   0.91743   0.94181   0.00000  Uiso   1.00
H1206  H     0.78085   0.90204   0.70658   0.00000  Uiso   1.00
H1207  H     0.58422   0.86085   0.76343   0.00000  Uiso   1.00
H1208  H     0.72581   0.90061   0.70642   0.00000  Uiso   1.00
H1209  H     0.70934   0.58267   0.94137   0.00000  Uiso   1.00
H1210  H     0.76385   0.58612   0.92981   0.00000  Uiso   1.00
H1211  H     0.89002   0.66668   0.90356   0.00000  Uiso   1.00
H1212  H     0.58364   0.63879   0.90348   0.00000  Uiso   1.00
H1213  H     0.89096   0.83417   0.76297   0.00000  Uiso   1.00
H1214  H     0.91638   0.86061   0.90347   0.00000  Uiso   1.00
H1215  H     0.60933   0.66674   0.76311   0.00000  Uiso   1.00
H1216  H     0.64022   0.91725   0.76342   0.00000  Uiso   1.00
N1217  N     0.50000   0.75000   0.95240   0.00000  Uiso   1.00
N1218  N     0.75927   0.91847   0.95529   0.00000  Uiso   1.00
N1219  N     0.75286   0.91961   0.71585   0.00000  Uiso   1.00
N1220  N     0.74065   0.58156   0.95470   0.00000  Uiso   1.00
N1221  N     0.50000   0.75000   0.71427   0.00000  Uiso   1.00
N1222  N     0.75000   0.50000   0.95240   0.00000  Uiso   1.00
N1223  N     0.75000   0.50000   0.71427   0.00000  Uiso   1.00
N1224  N     0.50507   0.83218   0.71132   0.00000  Uiso   1.00
N1225  N     0.99035   0.66850   0.95532   0.00000  Uiso   1.00
N1226  N     0.99632   0.66964   0.71594   0.00000  Uiso   1.00
N1227  N     0.51071   0.83111   0.95389   0.00000  Uiso   1.00
N1228  N     0.74701   0.58037   0.71524   0.00000  Uiso   1.00
O1229  O     0.54581   0.70419   0.87154   0.00000  Uiso   1.00
O1230  O     0.70420   0.54581   0.79513   0.00000  Uiso   1.00
O1231  O     0.70420   0.54581   0.87154   0.00000  Uiso   1.00
O1232  O     0.79581   0.95419   0.79513   0.00000  Uiso   1.00
O1233  O     0.70420   0.95419   0.79513   0.00000  Uiso   1.00
O1234  O     0.79581   0.54581   0.87154   0.00000  Uiso   1.00
O1235  O     0.79581   0.54581   0.79513   0.00000  Uiso   1.00
O1236  O     0.70420   0.95419   0.87154   0.00000  Uiso   1.00
O1237  O     0.95420   0.79581   0.79513   0.00000  Uiso   1.00
O1238  O     0.95420   0.79581   0.87154   0.00000  Uiso   1.00
O1239  O     0.54581   0.70419   0.79513   0.00000  Uiso   1.00
O1240  O     0.95420   0.70419   0.79513   0.00000  Uiso   1.00
O1241  O     0.54581   0.79581   0.87154   0.00000  Uiso   1.00
O1242  O     0.54581   0.79581   0.79513   0.00000  Uiso   1.00
O1243  O     0.95420   0.70419   0.87154   0.00000  Uiso   1.00
O1244  O     0.79581   0.95419   0.87154   0.00000  Uiso   1.00
Zn1245 Zn    0.50000   0.75000   0.88437   0.00000  Uiso   1.00
Zn1246 Zn    0.50000   0.75000   0.78229   0.00000  Uiso   1.00
Zn1247 Zn    0.75000   0.50000   0.88437   0.00000  Uiso   1.00
Zn1248 Zn    0.75000   0.50000   0.78229   0.00000  Uiso   1.00
loop_
_geom_bond_atom_site_label_1
_geom_bond_atom_site_label_2
_geom_bond_distance
_geom_bond_site_symmetry_2
_ccdc_geom_bond_type
C1     O95     1.290   .     A
C1     O85     1.291   .     A
C1     C30     1.420   .     S
C2     N177    1.384   .     A
C2     N81     1.429   .     S
C2     C419    1.426   .     S
C3     N82     1.430   .     S
C3     N181    1.361   .     A
C3     C834    1.426   1_554 S
C4     N83     1.430   .     S
C4     C456    1.413   .     S
C4     N73     1.372   .     S
C5     N84     1.430   .     S
C5     C840    1.425   1_554 S
C5     N79     1.361   .     S
C6     N286    1.383   .     A
C6     N74     1.429   .     S
C6     C423    1.425   .     S
C7     N75     1.430   .     S
C7     N287    1.361   .     A
C7     C838    1.425   1_554 S
C8     N76     1.429   .     S
C8     C421    1.425   .     S
C8     N78     1.384   .     S
C9     C20     1.370   .     A
C9     H41     1.081   .     S
C9     C28     1.397   .     A
C10    C27     1.397   .     A
C10    H52     1.083   .     S
C10    C21     1.371   .     A
C11    C18     1.369   .     A
C11    H63     1.079   .     S
C11    C27     1.396   .     A
C12    C29     1.420   .     S
C12    O94     1.290   .     A
C12    O93     1.291   .     A
C13    C28     1.396   .     A
C13    C19     1.370   .     A
C13    H67     1.083   .     S
C14    C30     1.397   .     A
C14    C25     1.370   .     A
C14    H68     1.082   .     S
C15    C29     1.396   .     A
C15    H69     1.084   .     S
C15    C26     1.370   .     A
C16    H70     1.083   .     S
C16    C29     1.398   .     A
C16    C22     1.370   .     A
C17    C30     1.397   .     A
C17    C24     1.370   .     A
C17    H71     1.084   .     S
C18    H72     1.084   .     S
C18    C32     1.396   .     A
C19    H42     1.082   .     S
C19    C31     1.398   .     A
C20    H43     1.084   .     S
C20    C31     1.396   .     A
C21    C32     1.397   .     A
C21    H44     1.082   .     S
C22    C35     1.396   .     A
C22    H45     1.083   .     S
C23    O99     1.292   .     A
C23    O96     1.290   .     A
C23    C28     1.421   .     S
C24    C33     1.396   .     A
C24    H46     1.082   .     S
C25    H47     1.083   .     S
C25    C33     1.397   .     A
C26    H48     1.081   .     S
C26    C35     1.397   .     A
C27    C34     1.421   .     S
C31    C39     1.420   .     S
C32    C38     1.420   .     S
C33    C37     1.421   .     S
C34    O97     1.290   .     A
C34    O98     1.291   .     A
C35    C36     1.421   .     S
C36    O88     1.290   .     A
C36    O100    1.291   .     A
C37    O86     1.291   .     A
C37    O87     1.291   .     A
C38    O89     1.290   .     A
C38    O92     1.291   .     A
C39    O90     1.290   .     A
C39    O91     1.291   .     A
C40    N80     1.433   .     S
C40    C836    1.413   1_554 S
C40    N77     1.379   .     S
H49    N184    1.030   .     S
H50    N80     1.044   .     S
H51    N185    1.038   1_455 S
H53    N81     1.041   .     S
H54    N82     1.045   .     S
H55    N186    1.045   1_455 S
H56    N83     1.041   .     S
H57    N187    1.037   .     S
H58    N84     1.045   .     S
H59    N84     1.045   .     S
H60    N74     1.038   .     S
H61    N74     1.041   .     S
H62    N75     1.045   .     S
H64    N75     1.045   .     S
H65    N76     1.041   .     S
H66    N76     1.038   .     S
N73    C106    1.384   1_455 A
N73    Zn101   2.029   .     S
N77    Zn102   2.029   .     S
N77    C107    1.361   1_455 A
N78    C214    1.383   1_545 A
N78    Zn103   2.029   .     S
N79    Zn104   2.029   .     S
N79    C215    1.361   1_545 A
N80    H153    1.030   1_455 S
N81    H155    1.038   .     S
N82    H159    1.045   .     S
N83    H161    1.037   1_455 S
O85    Zn101   2.000   .     S
O86    Zn104   2.000   .     S
O87    Zn103   1.998   .     S
O88    Zn312   1.998   .     S
O89    Zn312   1.999   .     S
O90    Zn103   1.999   .     S
O91    Zn104   2.001   .     S
O92    Zn311   2.001   .     S
O93    Zn206   2.000   .     S
O94    Zn205   1.998   .     S
O95    Zn102   1.998   .     S
O96    Zn206   1.999   .     S
O97    Zn101   1.999   .     S
O98    Zn102   2.001   .     S
O99    Zn205   2.001   .     S
O100   Zn311   2.000   .     S
Zn101  O203    2.001   1_455 S
Zn101  O198    1.998   1_455 S
Zn102  O200    1.999   1_455 S
Zn102  O197    2.000   1_455 S
Zn103  O300    2.001   1_545 S
Zn103  O308    2.000   1_545 S
Zn104  O296    1.998   1_545 S
Zn104  O297    1.999   1_545 S
C105   O199    1.290   .     A
C105   O189    1.291   .     A
C105   C134    1.420   .     S
C106   N73     1.384   1_655 A
C106   N185    1.429   .     S
C106   C523    1.426   .     S
C107   N186    1.430   .     S
C107   N77     1.361   1_655 A
C107   C938    1.426   1_554 S
C108   N187    1.430   .     S
C108   C560    1.413   .     S
C108   N177    1.372   .     S
C109   N188    1.430   .     S
C109   C944    1.425   1_554 S
C109   N183    1.361   .     S
C110   N390    1.383   .     A
C110   N178    1.429   .     S
C110   C527    1.425   .     S
C111   N179    1.430   .     S
C111   N391    1.361   .     A
C111   C942    1.425   1_554 S
C112   N180    1.429   .     S
C112   C525    1.425   .     S
C112   N182    1.384   .     S
C113   C124    1.370   .     A
C113   H145    1.081   .     S
C113   C132    1.397   .     A
C114   C131    1.397   .     A
C114   H156    1.083   .     S
C114   C125    1.371   .     A
C115   C122    1.369   .     A
C115   H167    1.079   .     S
C115   C131    1.396   .     A
C116   C133    1.420   .     S
C116   O198    1.290   .     A
C116   O197    1.291   .     A
C117   C132    1.396   .     A
C117   C123    1.370   .     A
C117   H171    1.083   .     S
C118   C134    1.397   .     A
C118   C129    1.370   .     A
C118   H172    1.082   .     S
C119   C133    1.396   .     A
C119   H173    1.084   .     S
C119   C130    1.370   .     A
C120   H174    1.083   .     S
C120   C133    1.398   .     A
C120   C126    1.370   .     A
C121   C134    1.397   .     A
C121   C128    1.370   .     A
C121   H175    1.084   .     S
C122   H176    1.084   .     S
C122   C136    1.396   .     A
C123   H146    1.082   .     S
C123   C135    1.398   .     A
C124   H147    1.084   .     S
C124   C135    1.396   .     A
C125   C136    1.397   .     A
C125   H148    1.082   .     S
C126   C139    1.396   .     A
C126   H149    1.083   .     S
C127   O203    1.292   .     A
C127   O200    1.290   .     A
C127   C132    1.421   .     S
C128   C137    1.396   .     A
C128   H150    1.082   .     S
C129   H151    1.083   .     S
C129   C137    1.397   .     A
C130   H152    1.081   .     S
C130   C139    1.397   .     A
C131   C138    1.421   .     S
C135   C143    1.420   .     S
C136   C142    1.420   .     S
C137   C141    1.421   .     S
C138   O201    1.290   .     A
C138   O202    1.291   .     A
C139   C140    1.421   .     S
C140   O192    1.290   .     A
C140   O204    1.291   .     A
C141   O190    1.291   .     A
C141   O191    1.291   .     A
C142   O193    1.290   .     A
C142   O196    1.291   .     A
C143   O194    1.290   .     A
C143   O195    1.291   .     A
C144   N184    1.433   .     S
C144   C940    1.413   1_554 S
C144   N181    1.379   .     S
H153   N80     1.030   1_655 S
H154   N184    1.044   .     S
H157   N185    1.041   .     S
H158   N186    1.045   .     S
H160   N187    1.041   .     S
H161   N83     1.037   1_655 S
H162   N188    1.045   .     S
H163   N188    1.045   .     S
H164   N178    1.038   .     S
H165   N178    1.041   .     S
H166   N179    1.045   .     S
H168   N179    1.045   .     S
H169   N180    1.041   .     S
H170   N180    1.038   .     S
N177   Zn205   2.029   .     S
N181   Zn206   2.029   .     S
N182   C318    1.383   1_545 A
N182   Zn207   2.029   .     S
N183   Zn208   2.029   .     S
N183   C319    1.361   1_545 A
N185   H51     1.038   1_655 S
N186   H55     1.045   1_655 S
O189   Zn205   2.000   .     S
O190   Zn208   2.000   .     S
O191   Zn207   1.998   .     S
O192   Zn416   1.998   .     S
O193   Zn416   1.999   .     S
O194   Zn207   1.999   .     S
O195   Zn208   2.001   .     S
O196   Zn415   2.001   .     S
O197   Zn102   2.000   1_655 S
O198   Zn101   1.998   1_655 S
O199   Zn206   1.998   .     S
O200   Zn102   1.999   1_655 S
O201   Zn205   1.999   .     S
O202   Zn206   2.001   .     S
O203   Zn101   2.001   1_655 S
O204   Zn415   2.000   .     S
Zn207  O404    2.001   1_545 S
Zn207  O412    2.000   1_545 S
Zn208  O400    1.998   1_545 S
Zn208  O401    1.999   1_545 S
C209   O303    1.290   .     A
C209   O293    1.291   .     A
C209   C238    1.420   .     S
C210   N385    1.384   .     A
C210   N289    1.429   .     S
C210   C627    1.426   .     S
C211   N290    1.430   .     S
C211   N389    1.361   .     A
C211   C1042   1.426   1_554 S
C212   N291    1.430   .     S
C212   C664    1.413   .     S
C212   N281    1.372   .     S
C213   N292    1.430   .     S
C213   C1048   1.425   1_554 S
C213   N287    1.361   .     S
C214   N78     1.383   1_565 A
C214   N282    1.429   .     S
C214   C631    1.425   .     S
C215   N283    1.430   .     S
C215   N79     1.361   1_565 A
C215   C1046   1.425   1_554 S
C216   N284    1.429   .     S
C216   C629    1.425   .     S
C216   N286    1.384   .     S
C217   C228    1.370   .     A
C217   H249    1.081   .     S
C217   C236    1.397   .     A
C218   C235    1.397   .     A
C218   H260    1.083   .     S
C218   C229    1.371   .     A
C219   C226    1.369   .     A
C219   H271    1.079   .     S
C219   C235    1.396   .     A
C220   C237    1.420   .     S
C220   O302    1.290   .     A
C220   O301    1.291   .     A
C221   C236    1.396   .     A
C221   C227    1.370   .     A
C221   H275    1.083   .     S
C222   C238    1.397   .     A
C222   C233    1.370   .     A
C222   H276    1.082   .     S
C223   C237    1.396   .     A
C223   H277    1.084   .     S
C223   C234    1.370   .     A
C224   H278    1.083   .     S
C224   C237    1.398   .     A
C224   C230    1.370   .     A
C225   C238    1.397   .     A
C225   C232    1.370   .     A
C225   H279    1.084   .     S
C226   H280    1.084   .     S
C226   C240    1.396   .     A
C227   H250    1.082   .     S
C227   C239    1.398   .     A
C228   H251    1.084   .     S
C228   C239    1.396   .     A
C229   C240    1.397   .     A
C229   H252    1.082   .     S
C230   C243    1.396   .     A
C230   H253    1.083   .     S
C231   O307    1.292   .     A
C231   O304    1.290   .     A
C231   C236    1.421   .     S
C232   C241    1.396   .     A
C232   H254    1.082   .     S
C233   H255    1.083   .     S
C233   C241    1.397   .     A
C234   H256    1.081   .     S
C234   C243    1.397   .     A
C235   C242    1.421   .     S
C239   C247    1.420   .     S
C240   C246    1.420   .     S
C241   C245    1.421   .     S
C242   O305    1.290   .     A
C242   O306    1.291   .     A
C243   C244    1.421   .     S
C244   O296    1.290   .     A
C244   O308    1.291   .     A
C245   O294    1.291   .     A
C245   O295    1.291   .     A
C246   O297    1.290   .     A
C246   O300    1.291   .     A
C247   O298    1.290   .     A
C247   O299    1.291   .     A
C248   N288    1.433   .     S
C248   C1044   1.413   1_554 S
C248   N285    1.379   .     S
H257   N392    1.030   .     S
H258   N288    1.044   .     S
H259   N393    1.038   1_455 S
H261   N289    1.041   .     S
H262   N290    1.045   .     S
H263   N394    1.045   1_455 S
H264   N291    1.041   .     S
H265   N395    1.037   .     S
H266   N292    1.045   .     S
H267   N292    1.045   .     S
H268   N282    1.038   .     S
H269   N282    1.041   .     S
H270   N283    1.045   .     S
H272   N283    1.045   .     S
H273   N284    1.041   .     S
H274   N284    1.038   .     S
N281   C314    1.384   1_455 A
N281   Zn309   2.029   .     S
N285   Zn310   2.029   .     S
N285   C315    1.361   1_455 A
N286   Zn311   2.029   .     S
N287   Zn312   2.029   .     S
N288   H361    1.030   1_455 S
N289   H363    1.038   .     S
N290   H367    1.045   .     S
N291   H369    1.037   1_455 S
O293   Zn309   2.000   .     S
O294   Zn312   2.000   .     S
O295   Zn311   1.998   .     S
O296   Zn104   1.998   1_565 S
O297   Zn104   1.999   1_565 S
O298   Zn311   1.999   .     S
O299   Zn312   2.001   .     S
O300   Zn103   2.001   1_565 S
O301   Zn414   2.000   .     S
O302   Zn413   1.998   .     S
O303   Zn310   1.998   .     S
O304   Zn414   1.999   .     S
O305   Zn309   1.999   .     S
O306   Zn310   2.001   .     S
O307   Zn413   2.001   .     S
O308   Zn103   2.000   1_565 S
Zn309  O411    2.001   1_455 S
Zn309  O406    1.998   1_455 S
Zn310  O408    1.999   1_455 S
Zn310  O405    2.000   1_455 S
C313   O407    1.290   .     A
C313   O397    1.291   .     A
C313   C342    1.420   .     S
C314   N281    1.384   1_655 A
C314   N393    1.429   .     S
C314   C731    1.426   .     S
C315   N394    1.430   .     S
C315   N285    1.361   1_655 A
C315   C1146   1.426   1_554 S
C316   N395    1.430   .     S
C316   C768    1.413   .     S
C316   N385    1.372   .     S
C317   N396    1.430   .     S
C317   C1152   1.425   1_554 S
C317   N391    1.361   .     S
C318   N182    1.383   1_565 A
C318   N386    1.429   .     S
C318   C735    1.425   .     S
C319   N387    1.430   .     S
C319   N183    1.361   1_565 A
C319   C1150   1.425   1_554 S
C320   N388    1.429   .     S
C320   C733    1.425   .     S
C320   N390    1.384   .     S
C321   C332    1.370   .     A
C321   H353    1.081   .     S
C321   C340    1.397   .     A
C322   C339    1.397   .     A
C322   H364    1.083   .     S
C322   C333    1.371   .     A
C323   C330    1.369   .     A
C323   H375    1.079   .     S
C323   C339    1.396   .     A
C324   C341    1.420   .     S
C324   O406    1.290   .     A
C324   O405    1.291   .     A
C325   C340    1.396   .     A
C325   C331    1.370   .     A
C325   H379    1.083   .     S
C326   C342    1.397   .     A
C326   C337    1.370   .     A
C326   H380    1.082   .     S
C327   C341    1.396   .     A
C327   H381    1.084   .     S
C327   C338    1.370   .     A
C328   H382    1.083   .     S
C328   C341    1.398   .     A
C328   C334    1.370   .     A
C329   C342    1.397   .     A
C329   C336    1.370   .     A
C329   H383    1.084   .     S
C330   H384    1.084   .     S
C330   C344    1.396   .     A
C331   H354    1.082   .     S
C331   C343    1.398   .     A
C332   H355    1.084   .     S
C332   C343    1.396   .     A
C333   C344    1.397   .     A
C333   H356    1.082   .     S
C334   C347    1.396   .     A
C334   H357    1.083   .     S
C335   O411    1.292   .     A
C335   O408    1.290   .     A
C335   C340    1.421   .     S
C336   C345    1.396   .     A
C336   H358    1.082   .     S
C337   H359    1.083   .     S
C337   C345    1.397   .     A
C338   H360    1.081   .     S
C338   C347    1.397   .     A
C339   C346    1.421   .     S
C343   C351    1.420   .     S
C344   C350    1.420   .     S
C345   C349    1.421   .     S
C346   O409    1.290   .     A
C346   O410    1.291   .     A
C347   C348    1.421   .     S
C348   O400    1.290   .     A
C348   O412    1.291   .     A
C349   O398    1.291   .     A
C349   O399    1.291   .     A
C350   O401    1.290   .     A
C350   O404    1.291   .     A
C351   O402    1.290   .     A
C351   O403    1.291   .     A
C352   N392    1.433   .     S
C352   C1148   1.413   1_554 S
C352   N389    1.379   .     S
H361   N288    1.030   1_655 S
H362   N392    1.044   .     S
H365   N393    1.041   .     S
H366   N394    1.045   .     S
H368   N395    1.041   .     S
H369   N291    1.037   1_655 S
H370   N396    1.045   .     S
H371   N396    1.045   .     S
H372   N386    1.038   .     S
H373   N386    1.041   .     S
H374   N387    1.045   .     S
H376   N387    1.045   .     S
H377   N388    1.041   .     S
H378   N388    1.038   .     S
N385   Zn413   2.029   .     S
N389   Zn414   2.029   .     S
N390   Zn415   2.029   .     S
N391   Zn416   2.029   .     S
N393   H259    1.038   1_655 S
N394   H263    1.045   1_655 S
O397   Zn413   2.000   .     S
O398   Zn416   2.000   .     S
O399   Zn415   1.998   .     S
O400   Zn208   1.998   1_565 S
O401   Zn208   1.999   1_565 S
O402   Zn415   1.999   .     S
O403   Zn416   2.001   .     S
O404   Zn207   2.001   1_565 S
O405   Zn310   2.000   1_655 S
O406   Zn309   1.998   1_655 S
O407   Zn414   1.998   .     S
O408   Zn310   1.999   1_655 S
O409   Zn413   1.999   .     S
O410   Zn414   2.001   .     S
O411   Zn309   2.001   1_655 S
O412   Zn207   2.000   1_565 S
C417   O511    1.290   .     A
C417   O501    1.291   .     A
C417   C446    1.420   .     S
C418   N593    1.384   .     A
C418   N497    1.429   .     S
C418   C835    1.426   .     S
C419   N498    1.430   .     S
C419   N597    1.361   .     A
C420   N499    1.430   .     S
C420   C872    1.413   .     S
C420   N489    1.372   .     S
C421   N500    1.430   .     S
C421   N495    1.361   .     S
C422   N702    1.383   .     A
C422   N490    1.429   .     S
C422   C839    1.425   .     S
C423   N491    1.430   .     S
C423   N703    1.361   .     A
C424   N492    1.429   .     S
C424   C837    1.425   .     S
C424   N494    1.384   .     S
C425   C436    1.370   .     A
C425   H457    1.081   .     S
C425   C444    1.397   .     A
C426   C443    1.397   .     A
C426   H468    1.083   .     S
C426   C437    1.371   .     A
C427   C434    1.369   .     A
C427   H479    1.079   .     S
C427   C443    1.396   .     A
C428   C445    1.420   .     S
C428   O510    1.290   .     A
C428   O509    1.291   .     A
C429   C444    1.396   .     A
C429   C435    1.370   .     A
C429   H483    1.083   .     S
C430   C446    1.397   .     A
C430   C441    1.370   .     A
C430   H484    1.082   .     S
C431   C445    1.396   .     A
C431   H485    1.084   .     S
C431   C442    1.370   .     A
C432   H486    1.083   .     S
C432   C445    1.398   .     A
C432   C438    1.370   .     A
C433   C446    1.397   .     A
C433   C440    1.370   .     A
C433   H487    1.084   .     S
C434   H488    1.084   .     S
C434   C448    1.396   .     A
C435   H458    1.082   .     S
C435   C447    1.398   .     A
C436   H459    1.084   .     S
C436   C447    1.396   .     A
C437   C448    1.397   .     A
C437   H460    1.082   .     S
C438   C451    1.396   .     A
C438   H461    1.083   .     S
C439   O515    1.292   .     A
C439   O512    1.290   .     A
C439   C444    1.421   .     S
C440   C449    1.396   .     A
C440   H462    1.082   .     S
C441   H463    1.083   .     S
C441   C449    1.397   .     A
C442   H464    1.081   .     S
C442   C451    1.397   .     A
C443   C450    1.421   .     S
C447   C455    1.420   .     S
C448   C454    1.420   .     S
C449   C453    1.421   .     S
C450   O513    1.290   .     A
C450   O514    1.291   .     A
C451   C452    1.421   .     S
C452   O504    1.290   .     A
C452   O516    1.291   .     A
C453   O502    1.291   .     A
C453   O503    1.291   .     A
C454   O505    1.290   .     A
C454   O508    1.291   .     A
C455   O506    1.290   .     A
C455   O507    1.291   .     A
C456   N496    1.433   .     S
C456   N493    1.379   .     S
H465   N600    1.030   .     S
H466   N496    1.044   .     S
H467   N601    1.038   1_455 S
H469   N497    1.041   .     S
H470   N498    1.045   .     S
H471   N602    1.045   1_455 S
H472   N499    1.041   .     S
H473   N603    1.037   .     S
H474   N500    1.045   .     S
H475   N500    1.045   .     S
H476   N490    1.038   .     S
H477   N490    1.041   .     S
H478   N491    1.045   .     S
H480   N491    1.045   .     S
H481   N492    1.041   .     S
H482   N492    1.038   .     S
N489   C522    1.384   1_455 A
N489   Zn517   2.029   .     S
N493   Zn518   2.029   .     S
N493   C523    1.361   1_455 A
N494   C630    1.383   1_545 A
N494   Zn519   2.029   .     S
N495   Zn520   2.029   .     S
N495   C631    1.361   1_545 A
N496   H569    1.030   1_455 S
N497   H571    1.038   .     S
N498   H575    1.045   .     S
N499   H577    1.037   1_455 S
O501   Zn517   2.000   .     S
O502   Zn520   2.000   .     S
O503   Zn519   1.998   .     S
O504   Zn728   1.998   .     S
O505   Zn728   1.999   .     S
O506   Zn519   1.999   .     S
O507   Zn520   2.001   .     S
O508   Zn727   2.001   .     S
O509   Zn622   2.000   .     S
O510   Zn621   1.998   .     S
O511   Zn518   1.998   .     S
O512   Zn622   1.999   .     S
O513   Zn517   1.999   .     S
O514   Zn518   2.001   .     S
O515   Zn621   2.001   .     S
O516   Zn727   2.000   .     S
Zn517  O619    2.001   1_455 S
Zn517  O614    1.998   1_455 S
Zn518  O616    1.999   1_455 S
Zn518  O613    2.000   1_455 S
Zn519  O716    2.001   1_545 S
Zn519  O724    2.000   1_545 S
Zn520  O712    1.998   1_545 S
Zn520  O713    1.999   1_545 S
C521   O615    1.290   .     A
C521   O605    1.291   .     A
C521   C550    1.420   .     S
C522   N489    1.384   1_655 A
C522   N601    1.429   .     S
C522   C939    1.426   .     S
C523   N602    1.430   .     S
C523   N493    1.361   1_655 A
C524   N603    1.430   .     S
C524   C976    1.413   .     S
C524   N593    1.372   .     S
C525   N604    1.430   .     S
C525   N599    1.361   .     S
C526   N806    1.383   .     A
C526   N594    1.429   .     S
C526   C943    1.425   .     S
C527   N595    1.430   .     S
C527   N807    1.361   .     A
C528   N596    1.429   .     S
C528   C941    1.425   .     S
C528   N598    1.384   .     S
C529   C540    1.370   .     A
C529   H561    1.081   .     S
C529   C548    1.397   .     A
C530   C547    1.397   .     A
C530   H572    1.083   .     S
C530   C541    1.371   .     A
C531   C538    1.369   .     A
C531   H583    1.079   .     S
C531   C547    1.396   .     A
C532   C549    1.420   .     S
C532   O614    1.290   .     A
C532   O613    1.291   .     A
C533   C548    1.396   .     A
C533   C539    1.370   .     A
C533   H587    1.083   .     S
C534   C550    1.397   .     A
C534   C545    1.370   .     A
C534   H588    1.082   .     S
C535   C549    1.396   .     A
C535   H589    1.084   .     S
C535   C546    1.370   .     A
C536   H590    1.083   .     S
C536   C549    1.398   .     A
C536   C542    1.370   .     A
C537   C550    1.397   .     A
C537   C544    1.370   .     A
C537   H591    1.084   .     S
C538   H592    1.084   .     S
C538   C552    1.396   .     A
C539   H562    1.082   .     S
C539   C551    1.398   .     A
C540   H563    1.084   .     S
C540   C551    1.396   .     A
C541   C552    1.397   .     A
C541   H564    1.082   .     S
C542   C555    1.396   .     A
C542   H565    1.083   .     S
C543   O619    1.292   .     A
C543   O616    1.290   .     A
C543   C548    1.421   .     S
C544   C553    1.396   .     A
C544   H566    1.082   .     S
C545   H567    1.083   .     S
C545   C553    1.397   .     A
C546   H568    1.081   .     S
C546   C555    1.397   .     A
C547   C554    1.421   .     S
C551   C559    1.420   .     S
C552   C558    1.420   .     S
C553   C557    1.421   .     S
C554   O617    1.290   .     A
C554   O618    1.291   .     A
C555   C556    1.421   .     S
C556   O608    1.290   .     A
C556   O620    1.291   .     A
C557   O606    1.291   .     A
C557   O607    1.291   .     A
C558   O609    1.290   .     A
C558   O612    1.291   .     A
C559   O610    1.290   .     A
C559   O611    1.291   .     A
C560   N600    1.433   .     S
C560   N597    1.379   .     S
H569   N496    1.030   1_655 S
H570   N600    1.044   .     S
H573   N601    1.041   .     S
H574   N602    1.045   .     S
H576   N603    1.041   .     S
H577   N499    1.037   1_655 S
H578   N604    1.045   .     S
H579   N604    1.045   .     S
H580   N594    1.038   .     S
H581   N594    1.041   .     S
H582   N595    1.045   .     S
H584   N595    1.045   .     S
H585   N596    1.041   .     S
H586   N596    1.038   .     S
N593   Zn621   2.029   .     S
N597   Zn622   2.029   .     S
N598   C734    1.383   1_545 A
N598   Zn623   2.029   .     S
N599   Zn624   2.029   .     S
N599   C735    1.361   1_545 A
N601   H467    1.038   1_655 S
N602   H471    1.045   1_655 S
O605   Zn621   2.000   .     S
O606   Zn624   2.000   .     S
O607   Zn623   1.998   .     S
O608   Zn832   1.998   .     S
O609   Zn832   1.999   .     S
O610   Zn623   1.999   .     S
O611   Zn624   2.001   .     S
O612   Zn831   2.001   .     S
O613   Zn518   2.000   1_655 S
O614   Zn517   1.998   1_655 S
O615   Zn622   1.998   .     S
O616   Zn518   1.999   1_655 S
O617   Zn621   1.999   .     S
O618   Zn622   2.001   .     S
O619   Zn517   2.001   1_655 S
O620   Zn831   2.000   .     S
Zn623  O820    2.001   1_545 S
Zn623  O828    2.000   1_545 S
Zn624  O816    1.998   1_545 S
Zn624  O817    1.999   1_545 S
C625   O719    1.290   .     A
C625   O709    1.291   .     A
C625   C654    1.420   .     S
C626   N801    1.384   .     A
C626   N705    1.429   .     S
C626   C1043   1.426   .     S
C627   N706    1.430   .     S
C627   N805    1.361   .     A
C628   N707    1.430   .     S
C628   C1080   1.413   .     S
C628   N697    1.372   .     S
C629   N708    1.430   .     S
C629   N703    1.361   .     S
C630   N494    1.383   1_565 A
C630   N698    1.429   .     S
C630   C1047   1.425   .     S
C631   N699    1.430   .     S
C631   N495    1.361   1_565 A
C632   N700    1.429   .     S
C632   C1045   1.425   .     S
C632   N702    1.384   .     S
C633   C644    1.370   .     A
C633   H665    1.081   .     S
C633   C652    1.397   .     A
C634   C651    1.397   .     A
C634   H676    1.083   .     S
C634   C645    1.371   .     A
C635   C642    1.369   .     A
C635   H687    1.079   .     S
C635   C651    1.396   .     A
C636   C653    1.420   .     S
C636   O718    1.290   .     A
C636   O717    1.291   .     A
C637   C652    1.396   .     A
C637   C643    1.370   .     A
C637   H691    1.083   .     S
C638   C654    1.397   .     A
C638   C649    1.370   .     A
C638   H692    1.082   .     S
C639   C653    1.396   .     A
C639   H693    1.084   .     S
C639   C650    1.370   .     A
C640   H694    1.083   .     S
C640   C653    1.398   .     A
C640   C646    1.370   .     A
C641   C654    1.397   .     A
C641   C648    1.370   .     A
C641   H695    1.084   .     S
C642   H696    1.084   .     S
C642   C656    1.396   .     A
C643   H666    1.082   .     S
C643   C655    1.398   .     A
C644   H667    1.084   .     S
C644   C655    1.396   .     A
C645   C656    1.397   .     A
C645   H668    1.082   .     S
C646   C659    1.396   .     A
C646   H669    1.083   .     S
C647   O723    1.292   .     A
C647   O720    1.290   .     A
C647   C652    1.421   .     S
C648   C657    1.396   .     A
C648   H670    1.082   .     S
C649   H671    1.083   .     S
C649   C657    1.397   .     A
C650   H672    1.081   .     S
C650   C659    1.397   .     A
C651   C658    1.421   .     S
C655   C663    1.420   .     S
C656   C662    1.420   .     S
C657   C661    1.421   .     S
C658   O721    1.290   .     A
C658   O722    1.291   .     A
C659   C660    1.421   .     S
C660   O712    1.290   .     A
C660   O724    1.291   .     A
C661   O710    1.291   .     A
C661   O711    1.291   .     A
C662   O713    1.290   .     A
C662   O716    1.291   .     A
C663   O714    1.290   .     A
C663   O715    1.291   .     A
C664   N704    1.433   .     S
C664   N701    1.379   .     S
H673   N808    1.030   .     S
H674   N704    1.044   .     S
H675   N809    1.038   1_455 S
H677   N705    1.041   .     S
H678   N706    1.045   .     S
H679   N810    1.045   1_455 S
H680   N707    1.041   .     S
H681   N811    1.037   .     S
H682   N708    1.045   .     S
H683   N708    1.045   .     S
H684   N698    1.038   .     S
H685   N698    1.041   .     S
H686   N699    1.045   .     S
H688   N699    1.045   .     S
H689   N700    1.041   .     S
H690   N700    1.038   .     S
N697   C730    1.384   1_455 A
N697   Zn725   2.029   .     S
N701   Zn726   2.029   .     S
N701   C731    1.361   1_455 A
N702   Zn727   2.029   .     S
N703   Zn728   2.029   .     S
N704   H777    1.030   1_455 S
N705   H779    1.038   .     S
N706   H783    1.045   .     S
N707   H785    1.037   1_455 S
O709   Zn725   2.000   .     S
O710   Zn728   2.000   .     S
O711   Zn727   1.998   .     S
O712   Zn520   1.998   1_565 S
O713   Zn520   1.999   1_565 S
O714   Zn727   1.999   .     S
O715   Zn728   2.001   .     S
O716   Zn519   2.001   1_565 S
O717   Zn830   2.000   .     S
O718   Zn829   1.998   .     S
O719   Zn726   1.998   .     S
O720   Zn830   1.999   .     S
O721   Zn725   1.999   .     S
O722   Zn726   2.001   .     S
O723   Zn829   2.001   .     S
O724   Zn519   2.000   1_565 S
Zn725  O827    2.001   1_455 S
Zn725  O822    1.998   1_455 S
Zn726  O824    1.999   1_455 S
Zn726  O821    2.000   1_455 S
C729   O823    1.290   .     A
C729   O813    1.291   .     A
C729   C758    1.420   .     S
C730   N697    1.384   1_655 A
C730   N809    1.429   .     S
C730   C1147   1.426   .     S
C731   N810    1.430   .     S
C731   N701    1.361   1_655 A
C732   N811    1.430   .     S
C732   C1184   1.413   .     S
C732   N801    1.372   .     S
C733   N812    1.430   .     S
C733   N807    1.361   .     S
C734   N598    1.383   1_565 A
C734   N802    1.429   .     S
C734   C1151   1.425   .     S
C735   N803    1.430   .     S
C735   N599    1.361   1_565 A
C736   N804    1.429   .     S
C736   C1149   1.425   .     S
C736   N806    1.384   .     S
C737   C748    1.370   .     A
C737   H769    1.081   .     S
C737   C756    1.397   .     A
C738   C755    1.397   .     A
C738   H780    1.083   .     S
C738   C749    1.371   .     A
C739   C746    1.369   .     A
C739   H791    1.079   .     S
C739   C755    1.396   .     A
C740   C757    1.420   .     S
C740   O822    1.290   .     A
C740   O821    1.291   .     A
C741   C756    1.396   .     A
C741   C747    1.370   .     A
C741   H795    1.083   .     S
C742   C758    1.397   .     A
C742   C753    1.370   .     A
C742   H796    1.082   .     S
C743   C757    1.396   .     A
C743   H797    1.084   .     S
C743   C754    1.370   .     A
C744   H798    1.083   .     S
C744   C757    1.398   .     A
C744   C750    1.370   .     A
C745   C758    1.397   .     A
C745   C752    1.370   .     A
C745   H799    1.084   .     S
C746   H800    1.084   .     S
C746   C760    1.396   .     A
C747   H770    1.082   .     S
C747   C759    1.398   .     A
C748   H771    1.084   .     S
C748   C759    1.396   .     A
C749   C760    1.397   .     A
C749   H772    1.082   .     S
C750   C763    1.396   .     A
C750   H773    1.083   .     S
C751   O827    1.292   .     A
C751   O824    1.290   .     A
C751   C756    1.421   .     S
C752   C761    1.396   .     A
C752   H774    1.082   .     S
C753   H775    1.083   .     S
C753   C761    1.397   .     A
C754   H776    1.081   .     S
C754   C763    1.397   .     A
C755   C762    1.421   .     S
C759   C767    1.420   .     S
C760   C766    1.420   .     S
C761   C765    1.421   .     S
C762   O825    1.290   .     A
C762   O826    1.291   .     A
C763   C764    1.421   .     S
C764   O816    1.290   .     A
C764   O828    1.291   .     A
C765   O814    1.291   .     A
C765   O815    1.291   .     A
C766   O817    1.290   .     A
C766   O820    1.291   .     A
C767   O818    1.290   .     A
C767   O819    1.291   .     A
C768   N808    1.433   .     S
C768   N805    1.379   .     S
H777   N704    1.030   1_655 S
H778   N808    1.044   .     S
H781   N809    1.041   .     S
H782   N810    1.045   .     S
H784   N811    1.041   .     S
H785   N707    1.037   1_655 S
H786   N812    1.045   .     S
H787   N812    1.045   .     S
H788   N802    1.038   .     S
H789   N802    1.041   .     S
H790   N803    1.045   .     S
H792   N803    1.045   .     S
H793   N804    1.041   .     S
H794   N804    1.038   .     S
N801   Zn829   2.029   .     S
N805   Zn830   2.029   .     S
N806   Zn831   2.029   .     S
N807   Zn832   2.029   .     S
N809   H675    1.038   1_655 S
N810   H679    1.045   1_655 S
O813   Zn829   2.000   .     S
O814   Zn832   2.000   .     S
O815   Zn831   1.998   .     S
O816   Zn624   1.998   1_565 S
O817   Zn624   1.999   1_565 S
O818   Zn831   1.999   .     S
O819   Zn832   2.001   .     S
O820   Zn623   2.001   1_565 S
O821   Zn726   2.000   1_655 S
O822   Zn725   1.998   1_655 S
O823   Zn830   1.998   .     S
O824   Zn726   1.999   1_655 S
O825   Zn829   1.999   .     S
O826   Zn830   2.001   .     S
O827   Zn725   2.001   1_655 S
O828   Zn623   2.000   1_565 S
C833   O927    1.290   .     A
C833   O917    1.291   .     A
C833   C862    1.420   .     S
C834   N1009   1.384   .     A
C834   N913    1.429   .     S
C834   C3      1.426   1_556 S
C835   N914    1.430   .     S
C835   N1013   1.361   .     A
C836   N915    1.430   .     S
C836   C40     1.413   1_556 S
C836   N905    1.372   .     S
C837   N916    1.430   .     S
C837   N911    1.361   .     S
C838   N1118   1.383   .     A
C838   N906    1.429   .     S
C838   C7      1.425   1_556 S
C839   N907    1.430   .     S
C839   N1119   1.361   .     A
C840   N908    1.429   .     S
C840   C5      1.425   1_556 S
C840   N910    1.384   .     S
C841   C852    1.370   .     A
C841   H873    1.081   .     S
C841   C860    1.397   .     A
C842   C859    1.397   .     A
C842   H884    1.083   .     S
C842   C853    1.371   .     A
C843   C850    1.369   .     A
C843   H895    1.079   .     S
C843   C859    1.396   .     A
C844   C861    1.420   .     S
C844   O926    1.290   .     A
C844   O925    1.291   .     A
C845   C860    1.396   .     A
C845   C851    1.370   .     A
C845   H899    1.083   .     S
C846   C862    1.397   .     A
C846   C857    1.370   .     A
C846   H900    1.082   .     S
C847   C861    1.396   .     A
C847   H901    1.084   .     S
C847   C858    1.370   .     A
C848   H902    1.083   .     S
C848   C861    1.398   .     A
C848   C854    1.370   .     A
C849   C862    1.397   .     A
C849   C856    1.370   .     A
C849   H903    1.084   .     S
C850   H904    1.084   .     S
C850   C864    1.396   .     A
C851   H874    1.082   .     S
C851   C863    1.398   .     A
C852   H875    1.084   .     S
C852   C863    1.396   .     A
C853   C864    1.397   .     A
C853   H876    1.082   .     S
C854   C867    1.396   .     A
C854   H877    1.083   .     S
C855   O931    1.292   .     A
C855   O928    1.290   .     A
C855   C860    1.421   .     S
C856   C865    1.396   .     A
C856   H878    1.082   .     S
C857   H879    1.083   .     S
C857   C865    1.397   .     A
C858   H880    1.081   .     S
C858   C867    1.397   .     A
C859   C866    1.421   .     S
C863   C871    1.420   .     S
C864   C870    1.420   .     S
C865   C869    1.421   .     S
C866   O929    1.290   .     A
C866   O930    1.291   .     A
C867   C868    1.421   .     S
C868   O920    1.290   .     A
C868   O932    1.291   .     A
C869   O918    1.291   .     A
C869   O919    1.291   .     A
C870   O921    1.290   .     A
C870   O924    1.291   .     A
C871   O922    1.290   .     A
C871   O923    1.291   .     A
C872   N912    1.433   .     S
C872   N909    1.379   .     S
H881   N1016   1.030   .     S
H882   N912    1.044   .     S
H883   N1017   1.038   1_455 S
H885   N913    1.041   .     S
H886   N914    1.045   .     S
H887   N1018   1.045   1_455 S
H888   N915    1.041   .     S
H889   N1019   1.037   .     S
H890   N916    1.045   .     S
H891   N916    1.045   .     S
H892   N906    1.038   .     S
H893   N906    1.041   .     S
H894   N907    1.045   .     S
H896   N907    1.045   .     S
H897   N908    1.041   .     S
H898   N908    1.038   .     S
N905   C938    1.384   1_455 A
N905   Zn933   2.029   .     S
N909   Zn934   2.029   .     S
N909   C939    1.361   1_455 A
N910   C1046   1.383   1_545 A
N910   Zn935   2.029   .     S
N911   Zn936   2.029   .     S
N911   C1047   1.361   1_545 A
N912   H985    1.030   1_455 S
N913   H987    1.038   .     S
N914   H991    1.045   .     S
N915   H993    1.037   1_455 S
O917   Zn933   2.000   .     S
O918   Zn936   2.000   .     S
O919   Zn935   1.998   .     S
O920   Zn1144  1.998   .     S
O921   Zn1144  1.999   .     S
O922   Zn935   1.999   .     S
O923   Zn936   2.001   .     S
O924   Zn1143  2.001   .     S
O925   Zn1038  2.000   .     S
O926   Zn1037  1.998   .     S
O927   Zn934   1.998   .     S
O928   Zn1038  1.999   .     S
O929   Zn933   1.999   .     S
O930   Zn934   2.001   .     S
O931   Zn1037  2.001   .     S
O932   Zn1143  2.000   .     S
Zn933  O1035   2.001   1_455 S
Zn933  O1030   1.998   1_455 S
Zn934  O1032   1.999   1_455 S
Zn934  O1029   2.000   1_455 S
Zn935  O1132   2.001   1_545 S
Zn935  O1140   2.000   1_545 S
Zn936  O1128   1.998   1_545 S
Zn936  O1129   1.999   1_545 S
C937   O1031   1.290   .     A
C937   O1021   1.291   .     A
C937   C966    1.420   .     S
C938   N905    1.384   1_655 A
C938   N1017   1.429   .     S
C938   C107    1.426   1_556 S
C939   N1018   1.430   .     S
C939   N909    1.361   1_655 A
C940   N1019   1.430   .     S
C940   C144    1.413   1_556 S
C940   N1009   1.372   .     S
C941   N1020   1.430   .     S
C941   N1015   1.361   .     S
C942   N1222   1.383   .     A
C942   N1010   1.429   .     S
C942   C111    1.425   1_556 S
C943   N1011   1.430   .     S
C943   N1223   1.361   .     A
C944   N1012   1.429   .     S
C944   C109    1.425   1_556 S
C944   N1014   1.384   .     S
C945   C956    1.370   .     A
C945   H977    1.081   .     S
C945   C964    1.397   .     A
C946   C963    1.397   .     A
C946   H988    1.083   .     S
C946   C957    1.371   .     A
C947   C954    1.369   .     A
C947   H999    1.079   .     S
C947   C963    1.396   .     A
C948   C965    1.420   .     S
C948   O1030   1.290   .     A
C948   O1029   1.291   .     A
C949   C964    1.396   .     A
C949   C955    1.370   .     A
C949   H1003   1.083   .     S
C950   C966    1.397   .     A
C950   C961    1.370   .     A
C950   H1004   1.082   .     S
C951   C965    1.396   .     A
C951   H1005   1.084   .     S
C951   C962    1.370   .     A
C952   H1006   1.083   .     S
C952   C965    1.398   .     A
C952   C958    1.370   .     A
C953   C966    1.397   .     A
C953   C960    1.370   .     A
C953   H1007   1.084   .     S
C954   H1008   1.084   .     S
C954   C968    1.396   .     A
C955   H978    1.082   .     S
C955   C967    1.398   .     A
C956   H979    1.084   .     S
C956   C967    1.396   .     A
C957   C968    1.397   .     A
C957   H980    1.082   .     S
C958   C971    1.396   .     A
C958   H981    1.083   .     S
C959   O1035   1.292   .     A
C959   O1032   1.290   .     A
C959   C964    1.421   .     S
C960   C969    1.396   .     A
C960   H982    1.082   .     S
C961   H983    1.083   .     S
C961   C969    1.397   .     A
C962   H984    1.081   .     S
C962   C971    1.397   .     A
C963   C970    1.421   .     S
C967   C975    1.420   .     S
C968   C974    1.420   .     S
C969   C973    1.421   .     S
C970   O1033   1.290   .     A
C970   O1034   1.291   .     A
C971   C972    1.421   .     S
C972   O1024   1.290   .     A
C972   O1036   1.291   .     A
C973   O1022   1.291   .     A
C973   O1023   1.291   .     A
C974   O1025   1.290   .     A
C974   O1028   1.291   .     A
C975   O1026   1.290   .     A
C975   O1027   1.291   .     A
C976   N1016   1.433   .     S
C976   N1013   1.379   .     S
H985   N912    1.030   1_655 S
H986   N1016   1.044   .     S
H989   N1017   1.041   .     S
H990   N1018   1.045   .     S
H992   N1019   1.041   .     S
H993   N915    1.037   1_655 S
H994   N1020   1.045   .     S
H995   N1020   1.045   .     S
H996   N1010   1.038   .     S
H997   N1010   1.041   .     S
H998   N1011   1.045   .     S
H1000  N1011   1.045   .     S
H1001  N1012   1.041   .     S
H1002  N1012   1.038   .     S
N1009  Zn1037  2.029   .     S
N1013  Zn1038  2.029   .     S
N1014  C1150   1.383   1_545 A
N1014  Zn1039  2.029   .     S
N1015  Zn1040  2.029   .     S
N1015  C1151   1.361   1_545 A
N1017  H883    1.038   1_655 S
N1018  H887    1.045   1_655 S
O1021  Zn1037  2.000   .     S
O1022  Zn1040  2.000   .     S
O1023  Zn1039  1.998   .     S
O1024  Zn1248  1.998   .     S
O1025  Zn1248  1.999   .     S
O1026  Zn1039  1.999   .     S
O1027  Zn1040  2.001   .     S
O1028  Zn1247  2.001   .     S
O1029  Zn934   2.000   1_655 S
O1030  Zn933   1.998   1_655 S
O1031  Zn1038  1.998   .     S
O1032  Zn934   1.999   1_655 S
O1033  Zn1037  1.999   .     S
O1034  Zn1038  2.001   .     S
O1035  Zn933   2.001   1_655 S
O1036  Zn1247  2.000   .     S
Zn1039 O1236   2.001   1_545 S
Zn1039 O1244   2.000   1_545 S
Zn1040 O1232   1.998   1_545 S
Zn1040 O1233   1.999   1_545 S
C1041  O1135   1.290   .     A
C1041  O1125   1.291   .     A
C1041  C1070   1.420   .     S
C1042  N1217   1.384   .     A
C1042  N1121   1.429   .     S
C1042  C211    1.426   1_556 S
C1043  N1122   1.430   .     S
C1043  N1221   1.361   .     A
C1044  N1123   1.430   .     S
C1044  C248    1.413   1_556 S
C1044  N1113   1.372   .     S
C1045  N1124   1.430   .     S
C1045  N1119   1.361   .     S
C1046  N910    1.383   1_565 A
C1046  N1114   1.429   .     S
C1046  C215    1.425   1_556 S
C1047  N1115   1.430   .     S
C1047  N911    1.361   1_565 A
C1048  N1116   1.429   .     S
C1048  C213    1.425   1_556 S
C1048  N1118   1.384   .     S
C1049  C1060   1.370   .     A
C1049  H1081   1.081   .     S
C1049  C1068   1.397   .     A
C1050  C1067   1.397   .     A
C1050  H1092   1.083   .     S
C1050  C1061   1.371   .     A
C1051  C1058   1.369   .     A
C1051  H1103   1.079   .     S
C1051  C1067   1.396   .     A
C1052  C1069   1.420   .     S
C1052  O1134   1.290   .     A
C1052  O1133   1.291   .     A
C1053  C1068   1.396   .     A
C1053  C1059   1.370   .     A
C1053  H1107   1.083   .     S
C1054  C1070   1.397   .     A
C1054  C1065   1.370   .     A
C1054  H1108   1.082   .     S
C1055  C1069   1.396   .     A
C1055  H1109   1.084   .     S
C1055  C1066   1.370   .     A
C1056  H1110   1.083   .     S
C1056  C1069   1.398   .     A
C1056  C1062   1.370   .     A
C1057  C1070   1.397   .     A
C1057  C1064   1.370   .     A
C1057  H1111   1.084   .     S
C1058  H1112   1.084   .     S
C1058  C1072   1.396   .     A
C1059  H1082   1.082   .     S
C1059  C1071   1.398   .     A
C1060  H1083   1.084   .     S
C1060  C1071   1.396   .     A
C1061  C1072   1.397   .     A
C1061  H1084   1.082   .     S
C1062  C1075   1.396   .     A
C1062  H1085   1.083   .     S
C1063  O1139   1.292   .     A
C1063  O1136   1.290   .     A
C1063  C1068   1.421   .     S
C1064  C1073   1.396   .     A
C1064  H1086   1.082   .     S
C1065  H1087   1.083   .     S
C1065  C1073   1.397   .     A
C1066  H1088   1.081   .     S
C1066  C1075   1.397   .     A
C1067  C1074   1.421   .     S
C1071  C1079   1.420   .     S
C1072  C1078   1.420   .     S
C1073  C1077   1.421   .     S
C1074  O1137   1.290   .     A
C1074  O1138   1.291   .     A
C1075  C1076   1.421   .     S
C1076  O1128   1.290   .     A
C1076  O1140   1.291   .     A
C1077  O1126   1.291   .     A
C1077  O1127   1.291   .     A
C1078  O1129   1.290   .     A
C1078  O1132   1.291   .     A
C1079  O1130   1.290   .     A
C1079  O1131   1.291   .     A
C1080  N1120   1.433   .     S
C1080  N1117   1.379   .     S
H1089  N1224   1.030   .     S
H1090  N1120   1.044   .     S
H1091  N1225   1.038   1_455 S
H1093  N1121   1.041   .     S
H1094  N1122   1.045   .     S
H1095  N1226   1.045   1_455 S
H1096  N1123   1.041   .     S
H1097  N1227   1.037   .     S
H1098  N1124   1.045   .     S
H1099  N1124   1.045   .     S
H1100  N1114   1.038   .     S
H1101  N1114   1.041   .     S
H1102  N1115   1.045   .     S
H1104  N1115   1.045   .     S
H1105  N1116   1.041   .     S
H1106  N1116   1.038   .     S
N1113  C1146   1.384   1_455 A
N1113  Zn1141  2.029   .     S
N1117  Zn1142  2.029   .     S
N1117  C1147   1.361   1_455 A
N1118  Zn1143  2.029   .     S
N1119  Zn1144  2.029   .     S
N1120  H1193   1.030   1_455 S
N1121  H1195   1.038   .     S
N1122  H1199   1.045   .     S
N1123  H1201   1.037   1_455 S
O1125  Zn1141  2.000   .     S
O1126  Zn1144  2.000   .     S
O1127  Zn1143  1.998   .     S
O1128  Zn936   1.998   1_565 S
O1129  Zn936   1.999   1_565 S
O1130  Zn1143  1.999   .     S
O1131  Zn1144  2.001   .     S
O1132  Zn935   2.001   1_565 S
O1133  Zn1246  2.000   .     S
O1134  Zn1245  1.998   .     S
O1135  Zn1142  1.998   .     S
O1136  Zn1246  1.999   .     S
O1137  Zn1141  1.999   .     S
O1138  Zn1142  2.001   .     S
O1139  Zn1245  2.001   .     S
O1140  Zn935   2.000   1_565 S
Zn1141 O1243   2.001   1_455 S
Zn1141 O1238   1.998   1_455 S
Zn1142 O1240   1.999   1_455 S
Zn1142 O1237   2.000   1_455 S
C1145  O1239   1.290   .     A
C1145  O1229   1.291   .     A
C1145  C1174   1.420   .     S
C1146  N1113   1.384   1_655 A
C1146  N1225   1.429   .     S
C1146  C315    1.426   1_556 S
C1147  N1226   1.430   .     S
C1147  N1117   1.361   1_655 A
C1148  N1227   1.430   .     S
C1148  C352    1.413   1_556 S
C1148  N1217   1.372   .     S
C1149  N1228   1.430   .     S
C1149  N1223   1.361   .     S
C1150  N1014   1.383   1_565 A
C1150  N1218   1.429   .     S
C1150  C319    1.425   1_556 S
C1151  N1219   1.430   .     S
C1151  N1015   1.361   1_565 A
C1152  N1220   1.429   .     S
C1152  C317    1.425   1_556 S
C1152  N1222   1.384   .     S
C1153  C1164   1.370   .     A
C1153  H1185   1.081   .     S
C1153  C1172   1.397   .     A
C1154  C1171   1.397   .     A
C1154  H1196   1.083   .     S
C1154  C1165   1.371   .     A
C1155  C1162   1.369   .     A
C1155  H1207   1.079   .     S
C1155  C1171   1.396   .     A
C1156  C1173   1.420   .     S
C1156  O1238   1.290   .     A
C1156  O1237   1.291   .     A
C1157  C1172   1.396   .     A
C1157  C1163   1.370   .     A
C1157  H1211   1.083   .     S
C1158  C1174   1.397   .     A
C1158  C1169   1.370   .     A
C1158  H1212   1.082   .     S
C1159  C1173   1.396   .     A
C1159  H1213   1.084   .     S
C1159  C1170   1.370   .     A
C1160  H1214   1.083   .     S
C1160  C1173   1.398   .     A
C1160  C1166   1.370   .     A
C1161  C1174   1.397   .     A
C1161  C1168   1.370   .     A
C1161  H1215   1.084   .     S
C1162  H1216   1.084   .     S
C1162  C1176   1.396   .     A
C1163  H1186   1.082   .     S
C1163  C1175   1.398   .     A
C1164  H1187   1.084   .     S
C1164  C1175   1.396   .     A
C1165  C1176   1.397   .     A
C1165  H1188   1.082   .     S
C1166  C1179   1.396   .     A
C1166  H1189   1.083   .     S
C1167  O1243   1.292   .     A
C1167  O1240   1.290   .     A
C1167  C1172   1.421   .     S
C1168  C1177   1.396   .     A
C1168  H1190   1.082   .     S
C1169  H1191   1.083   .     S
C1169  C1177   1.397   .     A
C1170  H1192   1.081   .     S
C1170  C1179   1.397   .     A
C1171  C1178   1.421   .     S
C1175  C1183   1.420   .     S
C1176  C1182   1.420   .     S
C1177  C1181   1.421   .     S
C1178  O1241   1.290   .     A
C1178  O1242   1.291   .     A
C1179  C1180   1.421   .     S
C1180  O1232   1.290   .     A
C1180  O1244   1.291   .     A
C1181  O1230   1.291   .     A
C1181  O1231   1.291   .     A
C1182  O1233   1.290   .     A
C1182  O1236   1.291   .     A
C1183  O1234   1.290   .     A
C1183  O1235   1.291   .     A
C1184  N1224   1.433   .     S
C1184  N1221   1.379   .     S
H1193  N1120   1.030   1_655 S
H1194  N1224   1.044   .     S
H1197  N1225   1.041   .     S
H1198  N1226   1.045   .     S
H1200  N1227   1.041   .     S
H1201  N1123   1.037   1_655 S
H1202  N1228   1.045   .     S
H1203  N1228   1.045   .     S
H1204  N1218   1.038   .     S
H1205  N1218   1.041   .     S
H1206  N1219   1.045   .     S
H1208  N1219   1.045   .     S
H1209  N1220   1.041   .     S
H1210  N1220   1.038   .     S
N1217  Zn1245  2.029   .     S
N1221  Zn1246  2.029   .     S
N1222  Zn1247  2.029   .     S
N1223  Zn1248  2.029   .     S
N1225  H1091   1.038   1_655 S
N1226  H1095   1.045   1_655 S
O1229  Zn1245  2.000   .     S
O1230  Zn1248  2.000   .     S
O1231  Zn1247  1.998   .     S
O1232  Zn1040  1.998   1_565 S
O1233  Zn1040  1.999   1_565 S
O1234  Zn1247  1.999   .     S
O1235  Zn1248  2.001   .     S
O1236  Zn1039  2.001   1_565 S
O1237  Zn1142  2.000   1_655 S
O1238  Zn1141  1.998   1_655 S
O1239  Zn1246  1.998   .     S
O1240  Zn1142  1.999   1_655 S
O1241  Zn1245  1.999   .     S
O1242  Zn1246  2.001   .     S
O1243  Zn1141  2.001   1_655 S
O1244  Zn1039  2.000   1_565 S
