data_str_m3_o1_o16_pcu_sym.231
_audit_creation_date              2020-01-03
_audit_creation_method            'Materials Studio'
_symmetry_space_group_name_H-M    'P1'
_symmetry_Int_Tables_number       1
_symmetry_cell_setting            triclinic
loop_
_symmetry_equiv_pos_as_xyz
  x,y,z
_cell_length_a                    29.5777
_cell_length_b                    32.0427
_cell_length_c                    26.3076
_cell_angle_alpha                 90.9966
_cell_angle_beta                  71.1481
_cell_angle_gamma                 90.6613
loop_
_atom_site_label
_atom_site_type_symbol
_atom_site_fract_x
_atom_site_fract_y
_atom_site_fract_z
_atom_site_U_iso_or_equiv
_atom_site_adp_type
_atom_site_occupancy
O1     O     0.12846   0.22775   0.25001   0.00000  Uiso   1.00
O2     O     0.20490   0.22774   0.25001   0.00000  Uiso   1.00
C3     C     0.16678   0.24667   0.25025   0.00000  Uiso   1.00
O4     O     0.10947   0.16666   0.32681   0.00000  Uiso   1.00
O5     O     0.18591   0.16665   0.32681   0.00000  Uiso   1.00
C6     C     0.14047   0.16452   0.35175   0.00000  Uiso   1.00
Zn7    Zn    0.11562   0.16667   0.25000   0.00000  Uiso   1.00
Zn8    Zn    0.21771   0.16666   0.25000   0.00000  Uiso   1.00
O9     O     0.12843   0.10559   0.25000   0.00000  Uiso   1.00
O10    O     0.20488   0.10558   0.25000   0.00000  Uiso   1.00
O11    O     0.14742   0.16668   0.17319   0.00000  Uiso   1.00
O12    O     0.22387   0.16667   0.17319   0.00000  Uiso   1.00
C13    C     0.16654   0.08666   0.24980   0.00000  Uiso   1.00
C14    C     0.19272   0.16562   0.14803   0.00000  Uiso   1.00
C15    C     0.25589   0.11883   0.01224   0.00000  Uiso   1.00
H16    H     0.27504   0.12882   0.08357   0.00000  Uiso   1.00
H17    H     0.28901   0.10284   0.49177   0.00000  Uiso   1.00
C18    C     0.20676   0.15624   0.09076   0.00000  Uiso   1.00
C19    C     0.07888   0.17636   0.43919   0.00000  Uiso   1.00
C20    C     0.06237   0.17526   0.49560   0.00000  Uiso   1.00
C21    C     0.09267   0.15901   0.02176   0.00000  Uiso   1.00
C22    C     0.14078   0.14855   0.49231   0.00000  Uiso   1.00
C23    C     0.15319   0.14258   0.43662   0.00000  Uiso   1.00
C24    C     0.17696   0.14379   0.01609   0.00000  Uiso   1.00
C25    C     0.22052   0.12369   0.48760   0.00000  Uiso   1.00
C26    C     0.22809   0.10967   0.43479   0.00000  Uiso   1.00
C27    C     0.19449   0.11914   0.40964   0.00000  Uiso   1.00
C28    C     0.17241   0.16212   0.06575   0.00000  Uiso   1.00
C29    C     0.24866   0.13453   0.06402   0.00000  Uiso   1.00
C30    C     0.12368   0.16000   0.40989   0.00000  Uiso   1.00
H31    H     0.14183   0.18138   0.08576   0.00000  Uiso   1.00
H32    H     0.05671   0.18884   0.41755   0.00000  Uiso   1.00
H33    H     0.20090   0.10732   0.36919   0.00000  Uiso   1.00
C34    C     0.21009   0.31214   0.22951   0.00000  Uiso   1.00
H35    H     0.24367   0.29583   0.21294   0.00000  Uiso   1.00
C36    C     0.20994   0.02158   0.22917   0.00000  Uiso   1.00
H37    H     0.24351   0.03817   0.21259   0.00000  Uiso   1.00
C38    C     0.16647   0.04253   0.24959   0.00000  Uiso   1.00
C39    C     0.12319   0.02121   0.27039   0.00000  Uiso   1.00
H40    H     0.08961   0.03753   0.28696   0.00000  Uiso   1.00
C41    C     0.12336   0.31178   0.27079   0.00000  Uiso   1.00
H42    H     0.08978   0.29518   0.28740   0.00000  Uiso   1.00
C43    C     0.16683   0.29082   0.25041   0.00000  Uiso   1.00
C44    C     0.31507   0.13438   0.22752   0.00000  Uiso   1.00
H45    H     0.30129   0.10858   0.20975   0.00000  Uiso   1.00
C46    C     0.02948   0.13390   0.22771   0.00000  Uiso   1.00
N47    N     0.04760   0.16668   0.25002   0.00000  Uiso   1.00
C48    C     0.01777   0.19858   0.27377   0.00000  Uiso   1.00
H49    H     0.03141   0.22299   0.29375   0.00000  Uiso   1.00
C50    C     0.30265   0.19904   0.27377   0.00000  Uiso   1.00
N51    N     0.28573   0.16665   0.25001   0.00000  Uiso   1.00
N52    N     0.05750   0.09768   0.20637   0.00000  Uiso   1.00
O53    O     0.09674   0.10103   0.16610   0.00000  Uiso   1.00
O54    O     0.03870   0.06080   0.21879   0.00000  Uiso   1.00
O55    O     0.27030   0.22929   0.30147   0.00000  Uiso   1.00
C56    C     0.29110   0.26954   0.29627   0.00000  Uiso   1.00
H57    H     0.26201   0.29288   0.30636   0.00000  Uiso   1.00
H58    H     0.31461   0.27574   0.25448   0.00000  Uiso   1.00
H59    H     0.31073   0.27439   0.32549   0.00000  Uiso   1.00
O60    O     0.26794   0.08625   0.40793   0.00000  Uiso   1.00
C61    C     0.30183   0.11243   0.37229   0.00000  Uiso   1.00
H62    H     0.31218   0.13920   0.39390   0.00000  Uiso   1.00
H63    H     0.28823   0.12392   0.34042   0.00000  Uiso   1.00
H64    H     0.00121   0.09408   0.35235   0.00000  Uiso   1.00
O65    O     0.07298   0.14874   0.07524   0.00000  Uiso   1.00
C66    C     0.05302   0.10823   0.07740   0.00000  Uiso   1.00
H67    H     0.08170   0.08436   0.06616   0.00000  Uiso   1.00
H68    H     0.02989   0.10442   0.05153   0.00000  Uiso   1.00
H69    H     0.02971   0.10227   0.11890   0.00000  Uiso   1.00
O70    O     0.01623   0.18618   0.02746   0.00000  Uiso   1.00
C71    C     0.32839   0.21624   0.00389   0.00000  Uiso   1.00
H72    H     0.31477   0.20142   0.47314   0.00000  Uiso   1.00
H73    H     0.01992   0.24259   0.48689   0.00000  Uiso   1.00
H74    H     0.29709   0.22950   0.03560   0.00000  Uiso   1.00
O75    O     0.46179   0.22775   0.25001   0.00000  Uiso   1.00
O76    O     0.53823   0.22774   0.25001   0.00000  Uiso   1.00
C77    C     0.50011   0.24667   0.25025   0.00000  Uiso   1.00
O78    O     0.44280   0.16666   0.32681   0.00000  Uiso   1.00
O79    O     0.51924   0.16665   0.32681   0.00000  Uiso   1.00
C80    C     0.47381   0.16452   0.35175   0.00000  Uiso   1.00
Zn81   Zn    0.44896   0.16667   0.25000   0.00000  Uiso   1.00
Zn82   Zn    0.55104   0.16666   0.25000   0.00000  Uiso   1.00
O83    O     0.46177   0.10559   0.25000   0.00000  Uiso   1.00
O84    O     0.53821   0.10558   0.25000   0.00000  Uiso   1.00
O85    O     0.48076   0.16668   0.17319   0.00000  Uiso   1.00
O86    O     0.55720   0.16667   0.17319   0.00000  Uiso   1.00
C87    C     0.49987   0.08666   0.24980   0.00000  Uiso   1.00
C88    C     0.52606   0.16562   0.14803   0.00000  Uiso   1.00
C89    C     0.58923   0.11883   0.01224   0.00000  Uiso   1.00
H90    H     0.60838   0.12882   0.08357   0.00000  Uiso   1.00
H91    H     0.62234   0.10284   0.49177   0.00000  Uiso   1.00
C92    C     0.54009   0.15624   0.09076   0.00000  Uiso   1.00
C93    C     0.41221   0.17636   0.43919   0.00000  Uiso   1.00
C94    C     0.39570   0.17526   0.49560   0.00000  Uiso   1.00
C95    C     0.42600   0.15901   0.02176   0.00000  Uiso   1.00
C96    C     0.47412   0.14855   0.49231   0.00000  Uiso   1.00
C97    C     0.48653   0.14258   0.43662   0.00000  Uiso   1.00
C98    C     0.51029   0.14379   0.01609   0.00000  Uiso   1.00
C99    C     0.55385   0.12369   0.48760   0.00000  Uiso   1.00
C100   C     0.56143   0.10967   0.43479   0.00000  Uiso   1.00
C101   C     0.52783   0.11914   0.40964   0.00000  Uiso   1.00
C102   C     0.50574   0.16212   0.06575   0.00000  Uiso   1.00
C103   C     0.58200   0.13453   0.06402   0.00000  Uiso   1.00
C104   C     0.45701   0.16000   0.40989   0.00000  Uiso   1.00
H105   H     0.47517   0.18138   0.08576   0.00000  Uiso   1.00
H106   H     0.39005   0.18884   0.41755   0.00000  Uiso   1.00
H107   H     0.53423   0.10732   0.36919   0.00000  Uiso   1.00
C108   C     0.54342   0.31214   0.22951   0.00000  Uiso   1.00
H109   H     0.57701   0.29583   0.21294   0.00000  Uiso   1.00
C110   C     0.54327   0.02158   0.22917   0.00000  Uiso   1.00
H111   H     0.57684   0.03817   0.21259   0.00000  Uiso   1.00
C112   C     0.49981   0.04253   0.24959   0.00000  Uiso   1.00
C113   C     0.45653   0.02121   0.27039   0.00000  Uiso   1.00
H114   H     0.42294   0.03753   0.28696   0.00000  Uiso   1.00
C115   C     0.45669   0.31178   0.27079   0.00000  Uiso   1.00
H116   H     0.42312   0.29518   0.28740   0.00000  Uiso   1.00
C117   C     0.50016   0.29082   0.25041   0.00000  Uiso   1.00
C118   C     0.64840   0.13438   0.22752   0.00000  Uiso   1.00
H119   H     0.63463   0.10858   0.20975   0.00000  Uiso   1.00
C120   C     0.36281   0.13390   0.22771   0.00000  Uiso   1.00
N121   N     0.38093   0.16668   0.25002   0.00000  Uiso   1.00
C122   C     0.35110   0.19858   0.27377   0.00000  Uiso   1.00
H123   H     0.36474   0.22299   0.29375   0.00000  Uiso   1.00
C124   C     0.63598   0.19904   0.27377   0.00000  Uiso   1.00
N125   N     0.61906   0.16665   0.25001   0.00000  Uiso   1.00
N126   N     0.39084   0.09768   0.20637   0.00000  Uiso   1.00
O127   O     0.43007   0.10103   0.16610   0.00000  Uiso   1.00
O128   O     0.37204   0.06080   0.21879   0.00000  Uiso   1.00
O129   O     0.60364   0.22929   0.30147   0.00000  Uiso   1.00
C130   C     0.62443   0.26954   0.29627   0.00000  Uiso   1.00
H131   H     0.59535   0.29288   0.30636   0.00000  Uiso   1.00
H132   H     0.64795   0.27574   0.25448   0.00000  Uiso   1.00
H133   H     0.64406   0.27439   0.32549   0.00000  Uiso   1.00
O134   O     0.60127   0.08625   0.40793   0.00000  Uiso   1.00
C135   C     0.63516   0.11243   0.37229   0.00000  Uiso   1.00
H136   H     0.64552   0.13920   0.39390   0.00000  Uiso   1.00
H137   H     0.62156   0.12392   0.34042   0.00000  Uiso   1.00
H138   H     0.33454   0.09408   0.35235   0.00000  Uiso   1.00
O139   O     0.40631   0.14874   0.07524   0.00000  Uiso   1.00
C140   C     0.38635   0.10823   0.07740   0.00000  Uiso   1.00
H141   H     0.41503   0.08436   0.06616   0.00000  Uiso   1.00
H142   H     0.36322   0.10442   0.05153   0.00000  Uiso   1.00
H143   H     0.36305   0.10227   0.11890   0.00000  Uiso   1.00
O144   O     0.34956   0.18618   0.02746   0.00000  Uiso   1.00
C145   C     0.66172   0.21624   0.00389   0.00000  Uiso   1.00
H146   H     0.64810   0.20142   0.47314   0.00000  Uiso   1.00
H147   H     0.35325   0.24259   0.48689   0.00000  Uiso   1.00
H148   H     0.63043   0.22950   0.03560   0.00000  Uiso   1.00
O149   O     0.79512   0.22775   0.25001   0.00000  Uiso   1.00
O150   O     0.87157   0.22774   0.25001   0.00000  Uiso   1.00
C151   C     0.83344   0.24667   0.25025   0.00000  Uiso   1.00
O152   O     0.77613   0.16666   0.32681   0.00000  Uiso   1.00
O153   O     0.85258   0.16665   0.32681   0.00000  Uiso   1.00
C154   C     0.80714   0.16452   0.35175   0.00000  Uiso   1.00
Zn155  Zn    0.78229   0.16667   0.25000   0.00000  Uiso   1.00
Zn156  Zn    0.88438   0.16666   0.25000   0.00000  Uiso   1.00
O157   O     0.79510   0.10559   0.25000   0.00000  Uiso   1.00
O158   O     0.87154   0.10558   0.25000   0.00000  Uiso   1.00
O159   O     0.81409   0.16668   0.17319   0.00000  Uiso   1.00
O160   O     0.89053   0.16667   0.17319   0.00000  Uiso   1.00
C161   C     0.83321   0.08666   0.24980   0.00000  Uiso   1.00
C162   C     0.85939   0.16562   0.14803   0.00000  Uiso   1.00
C163   C     0.92256   0.11883   0.01224   0.00000  Uiso   1.00
H164   H     0.94171   0.12882   0.08357   0.00000  Uiso   1.00
H165   H     0.95568   0.10284   0.49177   0.00000  Uiso   1.00
C166   C     0.87342   0.15624   0.09076   0.00000  Uiso   1.00
C167   C     0.74554   0.17636   0.43919   0.00000  Uiso   1.00
C168   C     0.72904   0.17526   0.49560   0.00000  Uiso   1.00
C169   C     0.75934   0.15901   0.02176   0.00000  Uiso   1.00
C170   C     0.80745   0.14855   0.49231   0.00000  Uiso   1.00
C171   C     0.81986   0.14258   0.43662   0.00000  Uiso   1.00
C172   C     0.84363   0.14379   0.01609   0.00000  Uiso   1.00
C173   C     0.88718   0.12369   0.48760   0.00000  Uiso   1.00
C174   C     0.89476   0.10967   0.43479   0.00000  Uiso   1.00
C175   C     0.86116   0.11914   0.40964   0.00000  Uiso   1.00
C176   C     0.83907   0.16212   0.06575   0.00000  Uiso   1.00
C177   C     0.91533   0.13453   0.06402   0.00000  Uiso   1.00
C178   C     0.79034   0.16000   0.40989   0.00000  Uiso   1.00
H179   H     0.80850   0.18138   0.08576   0.00000  Uiso   1.00
H180   H     0.72338   0.18884   0.41755   0.00000  Uiso   1.00
H181   H     0.86756   0.10732   0.36919   0.00000  Uiso   1.00
C182   C     0.87676   0.31214   0.22951   0.00000  Uiso   1.00
H183   H     0.91034   0.29583   0.21294   0.00000  Uiso   1.00
C184   C     0.87660   0.02158   0.22917   0.00000  Uiso   1.00
H185   H     0.91017   0.03817   0.21259   0.00000  Uiso   1.00
C186   C     0.83314   0.04253   0.24959   0.00000  Uiso   1.00
C187   C     0.78986   0.02121   0.27039   0.00000  Uiso   1.00
H188   H     0.75628   0.03753   0.28696   0.00000  Uiso   1.00
C189   C     0.79002   0.31178   0.27079   0.00000  Uiso   1.00
H190   H     0.75645   0.29518   0.28740   0.00000  Uiso   1.00
C191   C     0.83350   0.29082   0.25041   0.00000  Uiso   1.00
C192   C     0.98174   0.13438   0.22752   0.00000  Uiso   1.00
H193   H     0.96796   0.10858   0.20975   0.00000  Uiso   1.00
C194   C     0.69614   0.13390   0.22771   0.00000  Uiso   1.00
N195   N     0.71426   0.16668   0.25002   0.00000  Uiso   1.00
C196   C     0.68444   0.19858   0.27377   0.00000  Uiso   1.00
H197   H     0.69808   0.22299   0.29375   0.00000  Uiso   1.00
C198   C     0.96932   0.19904   0.27377   0.00000  Uiso   1.00
N199   N     0.95239   0.16665   0.25001   0.00000  Uiso   1.00
N200   N     0.72417   0.09768   0.20637   0.00000  Uiso   1.00
O201   O     0.76340   0.10103   0.16610   0.00000  Uiso   1.00
O202   O     0.70537   0.06080   0.21879   0.00000  Uiso   1.00
O203   O     0.93697   0.22929   0.30147   0.00000  Uiso   1.00
C204   C     0.95776   0.26954   0.29627   0.00000  Uiso   1.00
H205   H     0.92868   0.29288   0.30636   0.00000  Uiso   1.00
H206   H     0.98128   0.27574   0.25448   0.00000  Uiso   1.00
H207   H     0.97739   0.27439   0.32549   0.00000  Uiso   1.00
O208   O     0.93461   0.08625   0.40793   0.00000  Uiso   1.00
C209   C     0.96850   0.11243   0.37229   0.00000  Uiso   1.00
H210   H     0.97885   0.13920   0.39390   0.00000  Uiso   1.00
H211   H     0.95490   0.12392   0.34042   0.00000  Uiso   1.00
H212   H     0.66788   0.09408   0.35235   0.00000  Uiso   1.00
O213   O     0.73965   0.14874   0.07524   0.00000  Uiso   1.00
C214   C     0.71968   0.10823   0.07740   0.00000  Uiso   1.00
H215   H     0.74836   0.08436   0.06616   0.00000  Uiso   1.00
H216   H     0.69655   0.10442   0.05153   0.00000  Uiso   1.00
H217   H     0.69638   0.10227   0.11890   0.00000  Uiso   1.00
O218   O     0.68289   0.18618   0.02746   0.00000  Uiso   1.00
C219   C     0.99505   0.21624   0.00389   0.00000  Uiso   1.00
H220   H     0.98144   0.20142   0.47314   0.00000  Uiso   1.00
H221   H     0.68658   0.24259   0.48689   0.00000  Uiso   1.00
H222   H     0.96376   0.22950   0.03560   0.00000  Uiso   1.00
O223   O     0.12846   0.56108   0.25001   0.00000  Uiso   1.00
O224   O     0.20490   0.56107   0.25001   0.00000  Uiso   1.00
C225   C     0.16678   0.58001   0.25025   0.00000  Uiso   1.00
O226   O     0.10947   0.50000   0.32681   0.00000  Uiso   1.00
O227   O     0.18591   0.49999   0.32681   0.00000  Uiso   1.00
C228   C     0.14047   0.49786   0.35175   0.00000  Uiso   1.00
Zn229  Zn    0.11562   0.50001   0.25000   0.00000  Uiso   1.00
Zn230  Zn    0.21771   0.49999   0.25000   0.00000  Uiso   1.00
O231   O     0.12843   0.43893   0.25000   0.00000  Uiso   1.00
O232   O     0.20488   0.43892   0.25000   0.00000  Uiso   1.00
O233   O     0.14742   0.50001   0.17319   0.00000  Uiso   1.00
O234   O     0.22387   0.50000   0.17319   0.00000  Uiso   1.00
C235   C     0.16654   0.42000   0.24980   0.00000  Uiso   1.00
C236   C     0.19272   0.49895   0.14803   0.00000  Uiso   1.00
C237   C     0.25589   0.45217   0.01224   0.00000  Uiso   1.00
H238   H     0.27504   0.46216   0.08357   0.00000  Uiso   1.00
H239   H     0.28901   0.43617   0.49177   0.00000  Uiso   1.00
C240   C     0.20676   0.48957   0.09076   0.00000  Uiso   1.00
C241   C     0.07888   0.50969   0.43919   0.00000  Uiso   1.00
C242   C     0.06237   0.50859   0.49560   0.00000  Uiso   1.00
C243   C     0.09267   0.49234   0.02176   0.00000  Uiso   1.00
C244   C     0.14078   0.48188   0.49231   0.00000  Uiso   1.00
C245   C     0.15319   0.47591   0.43662   0.00000  Uiso   1.00
C246   C     0.17696   0.47712   0.01609   0.00000  Uiso   1.00
C247   C     0.22052   0.45702   0.48760   0.00000  Uiso   1.00
C248   C     0.22809   0.44300   0.43479   0.00000  Uiso   1.00
C249   C     0.19449   0.45247   0.40964   0.00000  Uiso   1.00
C250   C     0.17241   0.49545   0.06575   0.00000  Uiso   1.00
C251   C     0.24866   0.46786   0.06402   0.00000  Uiso   1.00
C252   C     0.12368   0.49334   0.40989   0.00000  Uiso   1.00
H253   H     0.14183   0.51472   0.08576   0.00000  Uiso   1.00
H254   H     0.05671   0.52218   0.41755   0.00000  Uiso   1.00
H255   H     0.20090   0.44065   0.36919   0.00000  Uiso   1.00
C256   C     0.21009   0.64548   0.22951   0.00000  Uiso   1.00
H257   H     0.24367   0.62916   0.21294   0.00000  Uiso   1.00
C258   C     0.20994   0.35491   0.22917   0.00000  Uiso   1.00
H259   H     0.24351   0.37150   0.21259   0.00000  Uiso   1.00
C260   C     0.16647   0.37586   0.24959   0.00000  Uiso   1.00
C261   C     0.12319   0.35454   0.27039   0.00000  Uiso   1.00
H262   H     0.08961   0.37086   0.28696   0.00000  Uiso   1.00
C263   C     0.12336   0.64511   0.27079   0.00000  Uiso   1.00
H264   H     0.08978   0.62851   0.28740   0.00000  Uiso   1.00
C265   C     0.16683   0.62416   0.25041   0.00000  Uiso   1.00
C266   C     0.31507   0.46771   0.22752   0.00000  Uiso   1.00
H267   H     0.30129   0.44191   0.20975   0.00000  Uiso   1.00
C268   C     0.02948   0.46723   0.22771   0.00000  Uiso   1.00
N269   N     0.04760   0.50001   0.25002   0.00000  Uiso   1.00
C270   C     0.01777   0.53192   0.27377   0.00000  Uiso   1.00
H271   H     0.03141   0.55632   0.29375   0.00000  Uiso   1.00
C272   C     0.30265   0.53237   0.27377   0.00000  Uiso   1.00
N273   N     0.28573   0.49998   0.25001   0.00000  Uiso   1.00
N274   N     0.05750   0.43101   0.20637   0.00000  Uiso   1.00
O275   O     0.09674   0.43436   0.16610   0.00000  Uiso   1.00
O276   O     0.03870   0.39413   0.21879   0.00000  Uiso   1.00
O277   O     0.27030   0.56262   0.30147   0.00000  Uiso   1.00
C278   C     0.29110   0.60288   0.29627   0.00000  Uiso   1.00
H279   H     0.26201   0.62621   0.30636   0.00000  Uiso   1.00
H280   H     0.31461   0.60907   0.25448   0.00000  Uiso   1.00
H281   H     0.31073   0.60772   0.32549   0.00000  Uiso   1.00
O282   O     0.26794   0.41958   0.40793   0.00000  Uiso   1.00
C283   C     0.30183   0.44576   0.37229   0.00000  Uiso   1.00
H284   H     0.31218   0.47253   0.39390   0.00000  Uiso   1.00
H285   H     0.28823   0.45726   0.34042   0.00000  Uiso   1.00
H286   H     0.00121   0.42742   0.35235   0.00000  Uiso   1.00
O287   O     0.07298   0.48207   0.07524   0.00000  Uiso   1.00
C288   C     0.05302   0.44156   0.07740   0.00000  Uiso   1.00
H289   H     0.08170   0.41770   0.06616   0.00000  Uiso   1.00
H290   H     0.02989   0.43775   0.05153   0.00000  Uiso   1.00
H291   H     0.02971   0.43560   0.11890   0.00000  Uiso   1.00
O292   O     0.01623   0.51951   0.02746   0.00000  Uiso   1.00
C293   C     0.32839   0.54957   0.00389   0.00000  Uiso   1.00
H294   H     0.31477   0.53475   0.47314   0.00000  Uiso   1.00
H295   H     0.01992   0.57592   0.48689   0.00000  Uiso   1.00
H296   H     0.29709   0.56283   0.03560   0.00000  Uiso   1.00
O297   O     0.46179   0.56108   0.25001   0.00000  Uiso   1.00
O298   O     0.53823   0.56107   0.25001   0.00000  Uiso   1.00
C299   C     0.50011   0.58001   0.25025   0.00000  Uiso   1.00
O300   O     0.44280   0.50000   0.32681   0.00000  Uiso   1.00
O301   O     0.51924   0.49999   0.32681   0.00000  Uiso   1.00
C302   C     0.47381   0.49786   0.35175   0.00000  Uiso   1.00
Zn303  Zn    0.44896   0.50001   0.25000   0.00000  Uiso   1.00
Zn304  Zn    0.55104   0.49999   0.25000   0.00000  Uiso   1.00
O305   O     0.46177   0.43893   0.25000   0.00000  Uiso   1.00
O306   O     0.53821   0.43892   0.25000   0.00000  Uiso   1.00
O307   O     0.48076   0.50001   0.17319   0.00000  Uiso   1.00
O308   O     0.55720   0.50000   0.17319   0.00000  Uiso   1.00
C309   C     0.49987   0.42000   0.24980   0.00000  Uiso   1.00
C310   C     0.52606   0.49895   0.14803   0.00000  Uiso   1.00
C311   C     0.58923   0.45217   0.01224   0.00000  Uiso   1.00
H312   H     0.60838   0.46216   0.08357   0.00000  Uiso   1.00
H313   H     0.62234   0.43617   0.49177   0.00000  Uiso   1.00
C314   C     0.54009   0.48957   0.09076   0.00000  Uiso   1.00
C315   C     0.41221   0.50969   0.43919   0.00000  Uiso   1.00
C316   C     0.39570   0.50859   0.49560   0.00000  Uiso   1.00
C317   C     0.42600   0.49234   0.02176   0.00000  Uiso   1.00
C318   C     0.47412   0.48188   0.49231   0.00000  Uiso   1.00
C319   C     0.48653   0.47591   0.43662   0.00000  Uiso   1.00
C320   C     0.51029   0.47712   0.01609   0.00000  Uiso   1.00
C321   C     0.55385   0.45702   0.48760   0.00000  Uiso   1.00
C322   C     0.56143   0.44300   0.43479   0.00000  Uiso   1.00
C323   C     0.52783   0.45247   0.40964   0.00000  Uiso   1.00
C324   C     0.50574   0.49545   0.06575   0.00000  Uiso   1.00
C325   C     0.58200   0.46786   0.06402   0.00000  Uiso   1.00
C326   C     0.45701   0.49334   0.40989   0.00000  Uiso   1.00
H327   H     0.47517   0.51472   0.08576   0.00000  Uiso   1.00
H328   H     0.39005   0.52218   0.41755   0.00000  Uiso   1.00
H329   H     0.53423   0.44065   0.36919   0.00000  Uiso   1.00
C330   C     0.54342   0.64548   0.22951   0.00000  Uiso   1.00
H331   H     0.57701   0.62916   0.21294   0.00000  Uiso   1.00
C332   C     0.54327   0.35491   0.22917   0.00000  Uiso   1.00
H333   H     0.57684   0.37150   0.21259   0.00000  Uiso   1.00
C334   C     0.49981   0.37586   0.24959   0.00000  Uiso   1.00
C335   C     0.45653   0.35454   0.27039   0.00000  Uiso   1.00
H336   H     0.42294   0.37086   0.28696   0.00000  Uiso   1.00
C337   C     0.45669   0.64511   0.27079   0.00000  Uiso   1.00
H338   H     0.42312   0.62851   0.28740   0.00000  Uiso   1.00
C339   C     0.50016   0.62416   0.25041   0.00000  Uiso   1.00
C340   C     0.64840   0.46771   0.22752   0.00000  Uiso   1.00
H341   H     0.63463   0.44191   0.20975   0.00000  Uiso   1.00
C342   C     0.36281   0.46723   0.22771   0.00000  Uiso   1.00
N343   N     0.38093   0.50001   0.25002   0.00000  Uiso   1.00
C344   C     0.35110   0.53192   0.27377   0.00000  Uiso   1.00
H345   H     0.36474   0.55632   0.29375   0.00000  Uiso   1.00
C346   C     0.63598   0.53237   0.27377   0.00000  Uiso   1.00
N347   N     0.61906   0.49998   0.25001   0.00000  Uiso   1.00
N348   N     0.39084   0.43101   0.20637   0.00000  Uiso   1.00
O349   O     0.43007   0.43436   0.16610   0.00000  Uiso   1.00
O350   O     0.37204   0.39413   0.21879   0.00000  Uiso   1.00
O351   O     0.60364   0.56262   0.30147   0.00000  Uiso   1.00
C352   C     0.62443   0.60288   0.29627   0.00000  Uiso   1.00
H353   H     0.59535   0.62621   0.30636   0.00000  Uiso   1.00
H354   H     0.64795   0.60907   0.25448   0.00000  Uiso   1.00
H355   H     0.64406   0.60772   0.32549   0.00000  Uiso   1.00
O356   O     0.60127   0.41958   0.40793   0.00000  Uiso   1.00
C357   C     0.63516   0.44576   0.37229   0.00000  Uiso   1.00
H358   H     0.64552   0.47253   0.39390   0.00000  Uiso   1.00
H359   H     0.62156   0.45726   0.34042   0.00000  Uiso   1.00
H360   H     0.33454   0.42742   0.35235   0.00000  Uiso   1.00
O361   O     0.40631   0.48207   0.07524   0.00000  Uiso   1.00
C362   C     0.38635   0.44156   0.07740   0.00000  Uiso   1.00
H363   H     0.41503   0.41770   0.06616   0.00000  Uiso   1.00
H364   H     0.36322   0.43775   0.05153   0.00000  Uiso   1.00
H365   H     0.36305   0.43560   0.11890   0.00000  Uiso   1.00
O366   O     0.34956   0.51951   0.02746   0.00000  Uiso   1.00
C367   C     0.66172   0.54957   0.00389   0.00000  Uiso   1.00
H368   H     0.64810   0.53475   0.47314   0.00000  Uiso   1.00
H369   H     0.35325   0.57592   0.48689   0.00000  Uiso   1.00
H370   H     0.63043   0.56283   0.03560   0.00000  Uiso   1.00
O371   O     0.79512   0.56108   0.25001   0.00000  Uiso   1.00
O372   O     0.87157   0.56107   0.25001   0.00000  Uiso   1.00
C373   C     0.83344   0.58001   0.25025   0.00000  Uiso   1.00
O374   O     0.77613   0.50000   0.32681   0.00000  Uiso   1.00
O375   O     0.85258   0.49999   0.32681   0.00000  Uiso   1.00
C376   C     0.80714   0.49786   0.35175   0.00000  Uiso   1.00
Zn377  Zn    0.78229   0.50001   0.25000   0.00000  Uiso   1.00
Zn378  Zn    0.88438   0.49999   0.25000   0.00000  Uiso   1.00
O379   O     0.79510   0.43893   0.25000   0.00000  Uiso   1.00
O380   O     0.87154   0.43892   0.25000   0.00000  Uiso   1.00
O381   O     0.81409   0.50001   0.17319   0.00000  Uiso   1.00
O382   O     0.89053   0.50000   0.17319   0.00000  Uiso   1.00
C383   C     0.83321   0.42000   0.24980   0.00000  Uiso   1.00
C384   C     0.85939   0.49895   0.14803   0.00000  Uiso   1.00
C385   C     0.92256   0.45217   0.01224   0.00000  Uiso   1.00
H386   H     0.94171   0.46216   0.08357   0.00000  Uiso   1.00
H387   H     0.95568   0.43617   0.49177   0.00000  Uiso   1.00
C388   C     0.87342   0.48957   0.09076   0.00000  Uiso   1.00
C389   C     0.74554   0.50969   0.43919   0.00000  Uiso   1.00
C390   C     0.72904   0.50859   0.49560   0.00000  Uiso   1.00
C391   C     0.75934   0.49234   0.02176   0.00000  Uiso   1.00
C392   C     0.80745   0.48188   0.49231   0.00000  Uiso   1.00
C393   C     0.81986   0.47591   0.43662   0.00000  Uiso   1.00
C394   C     0.84363   0.47712   0.01609   0.00000  Uiso   1.00
C395   C     0.88718   0.45702   0.48760   0.00000  Uiso   1.00
C396   C     0.89476   0.44300   0.43479   0.00000  Uiso   1.00
C397   C     0.86116   0.45247   0.40964   0.00000  Uiso   1.00
C398   C     0.83907   0.49545   0.06575   0.00000  Uiso   1.00
C399   C     0.91533   0.46786   0.06402   0.00000  Uiso   1.00
C400   C     0.79034   0.49334   0.40989   0.00000  Uiso   1.00
H401   H     0.80850   0.51472   0.08576   0.00000  Uiso   1.00
H402   H     0.72338   0.52218   0.41755   0.00000  Uiso   1.00
H403   H     0.86756   0.44065   0.36919   0.00000  Uiso   1.00
C404   C     0.87676   0.64548   0.22951   0.00000  Uiso   1.00
H405   H     0.91034   0.62916   0.21294   0.00000  Uiso   1.00
C406   C     0.87660   0.35491   0.22917   0.00000  Uiso   1.00
H407   H     0.91017   0.37150   0.21259   0.00000  Uiso   1.00
C408   C     0.83314   0.37586   0.24959   0.00000  Uiso   1.00
C409   C     0.78986   0.35454   0.27039   0.00000  Uiso   1.00
H410   H     0.75628   0.37086   0.28696   0.00000  Uiso   1.00
C411   C     0.79002   0.64511   0.27079   0.00000  Uiso   1.00
H412   H     0.75645   0.62851   0.28740   0.00000  Uiso   1.00
C413   C     0.83350   0.62416   0.25041   0.00000  Uiso   1.00
C414   C     0.98174   0.46771   0.22752   0.00000  Uiso   1.00
H415   H     0.96796   0.44191   0.20975   0.00000  Uiso   1.00
C416   C     0.69614   0.46723   0.22771   0.00000  Uiso   1.00
N417   N     0.71426   0.50001   0.25002   0.00000  Uiso   1.00
C418   C     0.68444   0.53192   0.27377   0.00000  Uiso   1.00
H419   H     0.69808   0.55632   0.29375   0.00000  Uiso   1.00
C420   C     0.96932   0.53237   0.27377   0.00000  Uiso   1.00
N421   N     0.95239   0.49998   0.25001   0.00000  Uiso   1.00
N422   N     0.72417   0.43101   0.20637   0.00000  Uiso   1.00
O423   O     0.76340   0.43436   0.16610   0.00000  Uiso   1.00
O424   O     0.70537   0.39413   0.21879   0.00000  Uiso   1.00
O425   O     0.93697   0.56262   0.30147   0.00000  Uiso   1.00
C426   C     0.95776   0.60288   0.29627   0.00000  Uiso   1.00
H427   H     0.92868   0.62621   0.30636   0.00000  Uiso   1.00
H428   H     0.98128   0.60907   0.25448   0.00000  Uiso   1.00
H429   H     0.97739   0.60772   0.32549   0.00000  Uiso   1.00
O430   O     0.93461   0.41958   0.40793   0.00000  Uiso   1.00
C431   C     0.96850   0.44576   0.37229   0.00000  Uiso   1.00
H432   H     0.97885   0.47253   0.39390   0.00000  Uiso   1.00
H433   H     0.95490   0.45726   0.34042   0.00000  Uiso   1.00
H434   H     0.66788   0.42742   0.35235   0.00000  Uiso   1.00
O435   O     0.73965   0.48207   0.07524   0.00000  Uiso   1.00
C436   C     0.71968   0.44156   0.07740   0.00000  Uiso   1.00
H437   H     0.74836   0.41770   0.06616   0.00000  Uiso   1.00
H438   H     0.69655   0.43775   0.05153   0.00000  Uiso   1.00
H439   H     0.69638   0.43560   0.11890   0.00000  Uiso   1.00
O440   O     0.68289   0.51951   0.02746   0.00000  Uiso   1.00
C441   C     0.99505   0.54957   0.00389   0.00000  Uiso   1.00
H442   H     0.98144   0.53475   0.47314   0.00000  Uiso   1.00
H443   H     0.68658   0.57592   0.48689   0.00000  Uiso   1.00
H444   H     0.96376   0.56283   0.03560   0.00000  Uiso   1.00
O445   O     0.12846   0.89442   0.25001   0.00000  Uiso   1.00
O446   O     0.20490   0.89441   0.25001   0.00000  Uiso   1.00
C447   C     0.16678   0.91334   0.25025   0.00000  Uiso   1.00
O448   O     0.10947   0.83333   0.32681   0.00000  Uiso   1.00
O449   O     0.18591   0.83332   0.32681   0.00000  Uiso   1.00
C450   C     0.14047   0.83119   0.35175   0.00000  Uiso   1.00
Zn451  Zn    0.11562   0.83334   0.25000   0.00000  Uiso   1.00
Zn452  Zn    0.21771   0.83333   0.25000   0.00000  Uiso   1.00
O453   O     0.12843   0.77226   0.25000   0.00000  Uiso   1.00
O454   O     0.20488   0.77225   0.25000   0.00000  Uiso   1.00
O455   O     0.14742   0.83335   0.17319   0.00000  Uiso   1.00
O456   O     0.22387   0.83334   0.17319   0.00000  Uiso   1.00
C457   C     0.16654   0.75333   0.24980   0.00000  Uiso   1.00
C458   C     0.19272   0.83229   0.14803   0.00000  Uiso   1.00
C459   C     0.25589   0.78550   0.01224   0.00000  Uiso   1.00
H460   H     0.27504   0.79549   0.08357   0.00000  Uiso   1.00
H461   H     0.28901   0.76951   0.49177   0.00000  Uiso   1.00
C462   C     0.20676   0.82290   0.09076   0.00000  Uiso   1.00
C463   C     0.07888   0.84302   0.43919   0.00000  Uiso   1.00
C464   C     0.06237   0.84192   0.49560   0.00000  Uiso   1.00
C465   C     0.09267   0.82567   0.02176   0.00000  Uiso   1.00
C466   C     0.14078   0.81522   0.49231   0.00000  Uiso   1.00
C467   C     0.15319   0.80924   0.43662   0.00000  Uiso   1.00
C468   C     0.17696   0.81045   0.01609   0.00000  Uiso   1.00
C469   C     0.22052   0.79035   0.48760   0.00000  Uiso   1.00
C470   C     0.22809   0.77634   0.43479   0.00000  Uiso   1.00
C471   C     0.19449   0.78581   0.40964   0.00000  Uiso   1.00
C472   C     0.17241   0.82879   0.06575   0.00000  Uiso   1.00
C473   C     0.24866   0.80120   0.06402   0.00000  Uiso   1.00
C474   C     0.12368   0.82667   0.40989   0.00000  Uiso   1.00
H475   H     0.14183   0.84805   0.08576   0.00000  Uiso   1.00
H476   H     0.05671   0.85551   0.41755   0.00000  Uiso   1.00
H477   H     0.20090   0.77398   0.36919   0.00000  Uiso   1.00
C478   C     0.21009   0.97881   0.22951   0.00000  Uiso   1.00
H479   H     0.24367   0.96249   0.21294   0.00000  Uiso   1.00
C480   C     0.20994   0.68824   0.22917   0.00000  Uiso   1.00
H481   H     0.24351   0.70484   0.21259   0.00000  Uiso   1.00
C482   C     0.16647   0.70919   0.24959   0.00000  Uiso   1.00
C483   C     0.12319   0.68788   0.27039   0.00000  Uiso   1.00
H484   H     0.08961   0.70420   0.28696   0.00000  Uiso   1.00
C485   C     0.12336   0.97844   0.27079   0.00000  Uiso   1.00
H486   H     0.08978   0.96185   0.28740   0.00000  Uiso   1.00
C487   C     0.16683   0.95749   0.25041   0.00000  Uiso   1.00
C488   C     0.31507   0.80105   0.22752   0.00000  Uiso   1.00
H489   H     0.30129   0.77524   0.20975   0.00000  Uiso   1.00
C490   C     0.02948   0.80057   0.22771   0.00000  Uiso   1.00
N491   N     0.04760   0.83334   0.25002   0.00000  Uiso   1.00
C492   C     0.01777   0.86525   0.27377   0.00000  Uiso   1.00
H493   H     0.03141   0.88965   0.29375   0.00000  Uiso   1.00
C494   C     0.30265   0.86571   0.27377   0.00000  Uiso   1.00
N495   N     0.28573   0.83331   0.25001   0.00000  Uiso   1.00
N496   N     0.05750   0.76435   0.20637   0.00000  Uiso   1.00
O497   O     0.09674   0.76769   0.16610   0.00000  Uiso   1.00
O498   O     0.03870   0.72747   0.21879   0.00000  Uiso   1.00
O499   O     0.27030   0.89595   0.30147   0.00000  Uiso   1.00
C500   C     0.29110   0.93621   0.29627   0.00000  Uiso   1.00
H501   H     0.26201   0.95955   0.30636   0.00000  Uiso   1.00
H502   H     0.31461   0.94240   0.25448   0.00000  Uiso   1.00
H503   H     0.31073   0.94105   0.32549   0.00000  Uiso   1.00
O504   O     0.26794   0.75292   0.40793   0.00000  Uiso   1.00
C505   C     0.30183   0.77910   0.37229   0.00000  Uiso   1.00
H506   H     0.31218   0.80587   0.39390   0.00000  Uiso   1.00
H507   H     0.28823   0.79059   0.34042   0.00000  Uiso   1.00
H508   H     0.00121   0.76075   0.35235   0.00000  Uiso   1.00
O509   O     0.07298   0.81541   0.07524   0.00000  Uiso   1.00
C510   C     0.05302   0.77490   0.07740   0.00000  Uiso   1.00
H511   H     0.08170   0.75103   0.06616   0.00000  Uiso   1.00
H512   H     0.02989   0.77109   0.05153   0.00000  Uiso   1.00
H513   H     0.02971   0.76893   0.11890   0.00000  Uiso   1.00
O514   O     0.01623   0.85285   0.02746   0.00000  Uiso   1.00
C515   C     0.32839   0.88291   0.00389   0.00000  Uiso   1.00
H516   H     0.31477   0.86809   0.47314   0.00000  Uiso   1.00
H517   H     0.01992   0.90926   0.48689   0.00000  Uiso   1.00
H518   H     0.29709   0.89616   0.03560   0.00000  Uiso   1.00
O519   O     0.46179   0.89442   0.25001   0.00000  Uiso   1.00
O520   O     0.53823   0.89441   0.25001   0.00000  Uiso   1.00
C521   C     0.50011   0.91334   0.25025   0.00000  Uiso   1.00
O522   O     0.44280   0.83333   0.32681   0.00000  Uiso   1.00
O523   O     0.51924   0.83332   0.32681   0.00000  Uiso   1.00
C524   C     0.47381   0.83119   0.35175   0.00000  Uiso   1.00
Zn525  Zn    0.44896   0.83334   0.25000   0.00000  Uiso   1.00
Zn526  Zn    0.55104   0.83333   0.25000   0.00000  Uiso   1.00
O527   O     0.46177   0.77226   0.25000   0.00000  Uiso   1.00
O528   O     0.53821   0.77225   0.25000   0.00000  Uiso   1.00
O529   O     0.48076   0.83335   0.17319   0.00000  Uiso   1.00
O530   O     0.55720   0.83334   0.17319   0.00000  Uiso   1.00
C531   C     0.49987   0.75333   0.24980   0.00000  Uiso   1.00
C532   C     0.52606   0.83229   0.14803   0.00000  Uiso   1.00
C533   C     0.58923   0.78550   0.01224   0.00000  Uiso   1.00
H534   H     0.60838   0.79549   0.08357   0.00000  Uiso   1.00
H535   H     0.62234   0.76951   0.49177   0.00000  Uiso   1.00
C536   C     0.54009   0.82290   0.09076   0.00000  Uiso   1.00
C537   C     0.41221   0.84302   0.43919   0.00000  Uiso   1.00
C538   C     0.39570   0.84192   0.49560   0.00000  Uiso   1.00
C539   C     0.42600   0.82567   0.02176   0.00000  Uiso   1.00
C540   C     0.47412   0.81522   0.49231   0.00000  Uiso   1.00
C541   C     0.48653   0.80924   0.43662   0.00000  Uiso   1.00
C542   C     0.51029   0.81045   0.01609   0.00000  Uiso   1.00
C543   C     0.55385   0.79035   0.48760   0.00000  Uiso   1.00
C544   C     0.56143   0.77634   0.43479   0.00000  Uiso   1.00
C545   C     0.52783   0.78581   0.40964   0.00000  Uiso   1.00
C546   C     0.50574   0.82879   0.06575   0.00000  Uiso   1.00
C547   C     0.58200   0.80120   0.06402   0.00000  Uiso   1.00
C548   C     0.45701   0.82667   0.40989   0.00000  Uiso   1.00
H549   H     0.47517   0.84805   0.08576   0.00000  Uiso   1.00
H550   H     0.39005   0.85551   0.41755   0.00000  Uiso   1.00
H551   H     0.53423   0.77398   0.36919   0.00000  Uiso   1.00
C552   C     0.54342   0.97881   0.22951   0.00000  Uiso   1.00
H553   H     0.57701   0.96249   0.21294   0.00000  Uiso   1.00
C554   C     0.54327   0.68824   0.22917   0.00000  Uiso   1.00
H555   H     0.57684   0.70484   0.21259   0.00000  Uiso   1.00
C556   C     0.49981   0.70919   0.24959   0.00000  Uiso   1.00
C557   C     0.45653   0.68788   0.27039   0.00000  Uiso   1.00
H558   H     0.42294   0.70420   0.28696   0.00000  Uiso   1.00
C559   C     0.45669   0.97844   0.27079   0.00000  Uiso   1.00
H560   H     0.42312   0.96185   0.28740   0.00000  Uiso   1.00
C561   C     0.50016   0.95749   0.25041   0.00000  Uiso   1.00
C562   C     0.64840   0.80105   0.22752   0.00000  Uiso   1.00
H563   H     0.63463   0.77524   0.20975   0.00000  Uiso   1.00
C564   C     0.36281   0.80057   0.22771   0.00000  Uiso   1.00
N565   N     0.38093   0.83334   0.25002   0.00000  Uiso   1.00
C566   C     0.35110   0.86525   0.27377   0.00000  Uiso   1.00
H567   H     0.36474   0.88965   0.29375   0.00000  Uiso   1.00
C568   C     0.63598   0.86571   0.27377   0.00000  Uiso   1.00
N569   N     0.61906   0.83331   0.25001   0.00000  Uiso   1.00
N570   N     0.39084   0.76435   0.20637   0.00000  Uiso   1.00
O571   O     0.43007   0.76769   0.16610   0.00000  Uiso   1.00
O572   O     0.37204   0.72747   0.21879   0.00000  Uiso   1.00
O573   O     0.60364   0.89595   0.30147   0.00000  Uiso   1.00
C574   C     0.62443   0.93621   0.29627   0.00000  Uiso   1.00
H575   H     0.59535   0.95955   0.30636   0.00000  Uiso   1.00
H576   H     0.64795   0.94240   0.25448   0.00000  Uiso   1.00
H577   H     0.64406   0.94105   0.32549   0.00000  Uiso   1.00
O578   O     0.60127   0.75292   0.40793   0.00000  Uiso   1.00
C579   C     0.63516   0.77910   0.37229   0.00000  Uiso   1.00
H580   H     0.64552   0.80587   0.39390   0.00000  Uiso   1.00
H581   H     0.62156   0.79059   0.34042   0.00000  Uiso   1.00
H582   H     0.33454   0.76075   0.35235   0.00000  Uiso   1.00
O583   O     0.40631   0.81541   0.07524   0.00000  Uiso   1.00
C584   C     0.38635   0.77490   0.07740   0.00000  Uiso   1.00
H585   H     0.41503   0.75103   0.06616   0.00000  Uiso   1.00
H586   H     0.36322   0.77109   0.05153   0.00000  Uiso   1.00
H587   H     0.36305   0.76893   0.11890   0.00000  Uiso   1.00
O588   O     0.34956   0.85285   0.02746   0.00000  Uiso   1.00
C589   C     0.66172   0.88291   0.00389   0.00000  Uiso   1.00
H590   H     0.64810   0.86809   0.47314   0.00000  Uiso   1.00
H591   H     0.35325   0.90926   0.48689   0.00000  Uiso   1.00
H592   H     0.63043   0.89616   0.03560   0.00000  Uiso   1.00
O593   O     0.79512   0.89442   0.25001   0.00000  Uiso   1.00
O594   O     0.87157   0.89441   0.25001   0.00000  Uiso   1.00
C595   C     0.83344   0.91334   0.25025   0.00000  Uiso   1.00
O596   O     0.77613   0.83333   0.32681   0.00000  Uiso   1.00
O597   O     0.85258   0.83332   0.32681   0.00000  Uiso   1.00
C598   C     0.80714   0.83119   0.35175   0.00000  Uiso   1.00
Zn599  Zn    0.78229   0.83334   0.25000   0.00000  Uiso   1.00
Zn600  Zn    0.88438   0.83333   0.25000   0.00000  Uiso   1.00
O601   O     0.79510   0.77226   0.25000   0.00000  Uiso   1.00
O602   O     0.87154   0.77225   0.25000   0.00000  Uiso   1.00
O603   O     0.81409   0.83335   0.17319   0.00000  Uiso   1.00
O604   O     0.89053   0.83334   0.17319   0.00000  Uiso   1.00
C605   C     0.83321   0.75333   0.24980   0.00000  Uiso   1.00
C606   C     0.85939   0.83229   0.14803   0.00000  Uiso   1.00
C607   C     0.92256   0.78550   0.01224   0.00000  Uiso   1.00
H608   H     0.94171   0.79549   0.08357   0.00000  Uiso   1.00
H609   H     0.95568   0.76951   0.49177   0.00000  Uiso   1.00
C610   C     0.87342   0.82290   0.09076   0.00000  Uiso   1.00
C611   C     0.74554   0.84302   0.43919   0.00000  Uiso   1.00
C612   C     0.72904   0.84192   0.49560   0.00000  Uiso   1.00
C613   C     0.75934   0.82567   0.02176   0.00000  Uiso   1.00
C614   C     0.80745   0.81522   0.49231   0.00000  Uiso   1.00
C615   C     0.81986   0.80924   0.43662   0.00000  Uiso   1.00
C616   C     0.84363   0.81045   0.01609   0.00000  Uiso   1.00
C617   C     0.88718   0.79035   0.48760   0.00000  Uiso   1.00
C618   C     0.89476   0.77634   0.43479   0.00000  Uiso   1.00
C619   C     0.86116   0.78581   0.40964   0.00000  Uiso   1.00
C620   C     0.83907   0.82879   0.06575   0.00000  Uiso   1.00
C621   C     0.91533   0.80120   0.06402   0.00000  Uiso   1.00
C622   C     0.79034   0.82667   0.40989   0.00000  Uiso   1.00
H623   H     0.80850   0.84805   0.08576   0.00000  Uiso   1.00
H624   H     0.72338   0.85551   0.41755   0.00000  Uiso   1.00
H625   H     0.86756   0.77398   0.36919   0.00000  Uiso   1.00
C626   C     0.87676   0.97881   0.22951   0.00000  Uiso   1.00
H627   H     0.91034   0.96249   0.21294   0.00000  Uiso   1.00
C628   C     0.87660   0.68824   0.22917   0.00000  Uiso   1.00
H629   H     0.91017   0.70484   0.21259   0.00000  Uiso   1.00
C630   C     0.83314   0.70919   0.24959   0.00000  Uiso   1.00
C631   C     0.78986   0.68788   0.27039   0.00000  Uiso   1.00
H632   H     0.75628   0.70420   0.28696   0.00000  Uiso   1.00
C633   C     0.79002   0.97844   0.27079   0.00000  Uiso   1.00
H634   H     0.75645   0.96185   0.28740   0.00000  Uiso   1.00
C635   C     0.83350   0.95749   0.25041   0.00000  Uiso   1.00
C636   C     0.98174   0.80105   0.22752   0.00000  Uiso   1.00
H637   H     0.96796   0.77524   0.20975   0.00000  Uiso   1.00
C638   C     0.69614   0.80057   0.22771   0.00000  Uiso   1.00
N639   N     0.71426   0.83334   0.25002   0.00000  Uiso   1.00
C640   C     0.68444   0.86525   0.27377   0.00000  Uiso   1.00
H641   H     0.69808   0.88965   0.29375   0.00000  Uiso   1.00
C642   C     0.96932   0.86571   0.27377   0.00000  Uiso   1.00
N643   N     0.95239   0.83331   0.25001   0.00000  Uiso   1.00
N644   N     0.72417   0.76435   0.20637   0.00000  Uiso   1.00
O645   O     0.76340   0.76769   0.16610   0.00000  Uiso   1.00
O646   O     0.70537   0.72747   0.21879   0.00000  Uiso   1.00
O647   O     0.93697   0.89595   0.30147   0.00000  Uiso   1.00
C648   C     0.95776   0.93621   0.29627   0.00000  Uiso   1.00
H649   H     0.92868   0.95955   0.30636   0.00000  Uiso   1.00
H650   H     0.98128   0.94240   0.25448   0.00000  Uiso   1.00
H651   H     0.97739   0.94105   0.32549   0.00000  Uiso   1.00
O652   O     0.93461   0.75292   0.40793   0.00000  Uiso   1.00
C653   C     0.96850   0.77910   0.37229   0.00000  Uiso   1.00
H654   H     0.97885   0.80587   0.39390   0.00000  Uiso   1.00
H655   H     0.95490   0.79059   0.34042   0.00000  Uiso   1.00
H656   H     0.66788   0.76075   0.35235   0.00000  Uiso   1.00
O657   O     0.73965   0.81541   0.07524   0.00000  Uiso   1.00
C658   C     0.71968   0.77490   0.07740   0.00000  Uiso   1.00
H659   H     0.74836   0.75103   0.06616   0.00000  Uiso   1.00
H660   H     0.69655   0.77109   0.05153   0.00000  Uiso   1.00
H661   H     0.69638   0.76893   0.11890   0.00000  Uiso   1.00
O662   O     0.68289   0.85285   0.02746   0.00000  Uiso   1.00
C663   C     0.99505   0.88291   0.00389   0.00000  Uiso   1.00
H664   H     0.98144   0.86809   0.47314   0.00000  Uiso   1.00
H665   H     0.68658   0.90926   0.48689   0.00000  Uiso   1.00
H666   H     0.96376   0.89616   0.03560   0.00000  Uiso   1.00
O667   O     0.12846   0.22775   0.75001   0.00000  Uiso   1.00
O668   O     0.20490   0.22774   0.75001   0.00000  Uiso   1.00
C669   C     0.16678   0.24667   0.75025   0.00000  Uiso   1.00
O670   O     0.10947   0.16666   0.82681   0.00000  Uiso   1.00
O671   O     0.18591   0.16665   0.82681   0.00000  Uiso   1.00
C672   C     0.14047   0.16452   0.85175   0.00000  Uiso   1.00
Zn673  Zn    0.11562   0.16667   0.75000   0.00000  Uiso   1.00
Zn674  Zn    0.21771   0.16666   0.75000   0.00000  Uiso   1.00
O675   O     0.12843   0.10559   0.75000   0.00000  Uiso   1.00
O676   O     0.20488   0.10558   0.75000   0.00000  Uiso   1.00
O677   O     0.14742   0.16668   0.67319   0.00000  Uiso   1.00
O678   O     0.22387   0.16667   0.67319   0.00000  Uiso   1.00
C679   C     0.16654   0.08666   0.74980   0.00000  Uiso   1.00
C680   C     0.19272   0.16562   0.64803   0.00000  Uiso   1.00
C681   C     0.25589   0.11883   0.51224   0.00000  Uiso   1.00
H682   H     0.27504   0.12882   0.58357   0.00000  Uiso   1.00
H683   H     0.28901   0.10284   0.99177   0.00000  Uiso   1.00
C684   C     0.20676   0.15624   0.59076   0.00000  Uiso   1.00
C685   C     0.07888   0.17636   0.93919   0.00000  Uiso   1.00
C686   C     0.06237   0.17526   0.99560   0.00000  Uiso   1.00
C687   C     0.09267   0.15901   0.52176   0.00000  Uiso   1.00
C688   C     0.14078   0.14855   0.99231   0.00000  Uiso   1.00
C689   C     0.15319   0.14258   0.93662   0.00000  Uiso   1.00
C690   C     0.17696   0.14379   0.51609   0.00000  Uiso   1.00
C691   C     0.22052   0.12369   0.98760   0.00000  Uiso   1.00
C692   C     0.22809   0.10967   0.93479   0.00000  Uiso   1.00
C693   C     0.19449   0.11914   0.90964   0.00000  Uiso   1.00
C694   C     0.17241   0.16212   0.56575   0.00000  Uiso   1.00
C695   C     0.24866   0.13453   0.56402   0.00000  Uiso   1.00
C696   C     0.12368   0.16000   0.90989   0.00000  Uiso   1.00
H697   H     0.14183   0.18138   0.58576   0.00000  Uiso   1.00
H698   H     0.05671   0.18884   0.91755   0.00000  Uiso   1.00
H699   H     0.20090   0.10732   0.86919   0.00000  Uiso   1.00
C700   C     0.21009   0.31214   0.72951   0.00000  Uiso   1.00
H701   H     0.24367   0.29583   0.71294   0.00000  Uiso   1.00
C702   C     0.20994   0.02158   0.72917   0.00000  Uiso   1.00
H703   H     0.24351   0.03817   0.71259   0.00000  Uiso   1.00
C704   C     0.16647   0.04253   0.74959   0.00000  Uiso   1.00
C705   C     0.12319   0.02121   0.77039   0.00000  Uiso   1.00
H706   H     0.08961   0.03753   0.78696   0.00000  Uiso   1.00
C707   C     0.12336   0.31178   0.77079   0.00000  Uiso   1.00
H708   H     0.08978   0.29518   0.78740   0.00000  Uiso   1.00
C709   C     0.16683   0.29082   0.75041   0.00000  Uiso   1.00
C710   C     0.31507   0.13438   0.72752   0.00000  Uiso   1.00
H711   H     0.30129   0.10858   0.70975   0.00000  Uiso   1.00
C712   C     0.02948   0.13390   0.72771   0.00000  Uiso   1.00
N713   N     0.04760   0.16668   0.75002   0.00000  Uiso   1.00
C714   C     0.01777   0.19858   0.77377   0.00000  Uiso   1.00
H715   H     0.03141   0.22299   0.79375   0.00000  Uiso   1.00
C716   C     0.30265   0.19904   0.77377   0.00000  Uiso   1.00
N717   N     0.28573   0.16665   0.75001   0.00000  Uiso   1.00
N718   N     0.05750   0.09768   0.70637   0.00000  Uiso   1.00
O719   O     0.09674   0.10103   0.66610   0.00000  Uiso   1.00
O720   O     0.03870   0.06080   0.71879   0.00000  Uiso   1.00
O721   O     0.27030   0.22929   0.80147   0.00000  Uiso   1.00
C722   C     0.29110   0.26954   0.79627   0.00000  Uiso   1.00
H723   H     0.26201   0.29288   0.80636   0.00000  Uiso   1.00
H724   H     0.31461   0.27574   0.75448   0.00000  Uiso   1.00
H725   H     0.31073   0.27439   0.82549   0.00000  Uiso   1.00
O726   O     0.26794   0.08625   0.90793   0.00000  Uiso   1.00
C727   C     0.30183   0.11243   0.87229   0.00000  Uiso   1.00
H728   H     0.31218   0.13920   0.89390   0.00000  Uiso   1.00
H729   H     0.28823   0.12392   0.84042   0.00000  Uiso   1.00
H730   H     0.00121   0.09408   0.85235   0.00000  Uiso   1.00
O731   O     0.07298   0.14874   0.57524   0.00000  Uiso   1.00
C732   C     0.05302   0.10823   0.57740   0.00000  Uiso   1.00
H733   H     0.08170   0.08436   0.56616   0.00000  Uiso   1.00
H734   H     0.02989   0.10442   0.55153   0.00000  Uiso   1.00
H735   H     0.02971   0.10227   0.61890   0.00000  Uiso   1.00
O736   O     0.01623   0.18618   0.52746   0.00000  Uiso   1.00
C737   C     0.32839   0.21624   0.50389   0.00000  Uiso   1.00
H738   H     0.31477   0.20142   0.97314   0.00000  Uiso   1.00
H739   H     0.01992   0.24259   0.98689   0.00000  Uiso   1.00
H740   H     0.29709   0.22950   0.53560   0.00000  Uiso   1.00
O741   O     0.46179   0.22775   0.75001   0.00000  Uiso   1.00
O742   O     0.53823   0.22774   0.75001   0.00000  Uiso   1.00
C743   C     0.50011   0.24667   0.75025   0.00000  Uiso   1.00
O744   O     0.44280   0.16666   0.82681   0.00000  Uiso   1.00
O745   O     0.51924   0.16665   0.82681   0.00000  Uiso   1.00
C746   C     0.47381   0.16452   0.85175   0.00000  Uiso   1.00
Zn747  Zn    0.44896   0.16667   0.75000   0.00000  Uiso   1.00
Zn748  Zn    0.55104   0.16666   0.75000   0.00000  Uiso   1.00
O749   O     0.46177   0.10559   0.75000   0.00000  Uiso   1.00
O750   O     0.53821   0.10558   0.75000   0.00000  Uiso   1.00
O751   O     0.48076   0.16668   0.67319   0.00000  Uiso   1.00
O752   O     0.55720   0.16667   0.67319   0.00000  Uiso   1.00
C753   C     0.49987   0.08666   0.74980   0.00000  Uiso   1.00
C754   C     0.52606   0.16562   0.64803   0.00000  Uiso   1.00
C755   C     0.58923   0.11883   0.51224   0.00000  Uiso   1.00
H756   H     0.60838   0.12882   0.58357   0.00000  Uiso   1.00
H757   H     0.62234   0.10284   0.99177   0.00000  Uiso   1.00
C758   C     0.54009   0.15624   0.59076   0.00000  Uiso   1.00
C759   C     0.41221   0.17636   0.93919   0.00000  Uiso   1.00
C760   C     0.39570   0.17526   0.99560   0.00000  Uiso   1.00
C761   C     0.42600   0.15901   0.52176   0.00000  Uiso   1.00
C762   C     0.47412   0.14855   0.99231   0.00000  Uiso   1.00
C763   C     0.48653   0.14258   0.93662   0.00000  Uiso   1.00
C764   C     0.51029   0.14379   0.51609   0.00000  Uiso   1.00
C765   C     0.55385   0.12369   0.98760   0.00000  Uiso   1.00
C766   C     0.56143   0.10967   0.93479   0.00000  Uiso   1.00
C767   C     0.52783   0.11914   0.90964   0.00000  Uiso   1.00
C768   C     0.50574   0.16212   0.56575   0.00000  Uiso   1.00
C769   C     0.58200   0.13453   0.56402   0.00000  Uiso   1.00
C770   C     0.45701   0.16000   0.90989   0.00000  Uiso   1.00
H771   H     0.47517   0.18138   0.58576   0.00000  Uiso   1.00
H772   H     0.39005   0.18884   0.91755   0.00000  Uiso   1.00
H773   H     0.53423   0.10732   0.86919   0.00000  Uiso   1.00
C774   C     0.54342   0.31214   0.72951   0.00000  Uiso   1.00
H775   H     0.57701   0.29583   0.71294   0.00000  Uiso   1.00
C776   C     0.54327   0.02158   0.72917   0.00000  Uiso   1.00
H777   H     0.57684   0.03817   0.71259   0.00000  Uiso   1.00
C778   C     0.49981   0.04253   0.74959   0.00000  Uiso   1.00
C779   C     0.45653   0.02121   0.77039   0.00000  Uiso   1.00
H780   H     0.42294   0.03753   0.78696   0.00000  Uiso   1.00
C781   C     0.45669   0.31178   0.77079   0.00000  Uiso   1.00
H782   H     0.42312   0.29518   0.78740   0.00000  Uiso   1.00
C783   C     0.50016   0.29082   0.75041   0.00000  Uiso   1.00
C784   C     0.64840   0.13438   0.72752   0.00000  Uiso   1.00
H785   H     0.63463   0.10858   0.70975   0.00000  Uiso   1.00
C786   C     0.36281   0.13390   0.72771   0.00000  Uiso   1.00
N787   N     0.38093   0.16668   0.75002   0.00000  Uiso   1.00
C788   C     0.35110   0.19858   0.77377   0.00000  Uiso   1.00
H789   H     0.36474   0.22299   0.79375   0.00000  Uiso   1.00
C790   C     0.63598   0.19904   0.77377   0.00000  Uiso   1.00
N791   N     0.61906   0.16665   0.75001   0.00000  Uiso   1.00
N792   N     0.39084   0.09768   0.70637   0.00000  Uiso   1.00
O793   O     0.43007   0.10103   0.66610   0.00000  Uiso   1.00
O794   O     0.37204   0.06080   0.71879   0.00000  Uiso   1.00
O795   O     0.60364   0.22929   0.80147   0.00000  Uiso   1.00
C796   C     0.62443   0.26954   0.79627   0.00000  Uiso   1.00
H797   H     0.59535   0.29288   0.80636   0.00000  Uiso   1.00
H798   H     0.64795   0.27574   0.75448   0.00000  Uiso   1.00
H799   H     0.64406   0.27439   0.82549   0.00000  Uiso   1.00
O800   O     0.60127   0.08625   0.90793   0.00000  Uiso   1.00
C801   C     0.63516   0.11243   0.87229   0.00000  Uiso   1.00
H802   H     0.64552   0.13920   0.89390   0.00000  Uiso   1.00
H803   H     0.62156   0.12392   0.84042   0.00000  Uiso   1.00
H804   H     0.33454   0.09408   0.85235   0.00000  Uiso   1.00
O805   O     0.40631   0.14874   0.57524   0.00000  Uiso   1.00
C806   C     0.38635   0.10823   0.57740   0.00000  Uiso   1.00
H807   H     0.41503   0.08436   0.56616   0.00000  Uiso   1.00
H808   H     0.36322   0.10442   0.55153   0.00000  Uiso   1.00
H809   H     0.36305   0.10227   0.61890   0.00000  Uiso   1.00
O810   O     0.34956   0.18618   0.52746   0.00000  Uiso   1.00
C811   C     0.66172   0.21624   0.50389   0.00000  Uiso   1.00
H812   H     0.64810   0.20142   0.97314   0.00000  Uiso   1.00
H813   H     0.35325   0.24259   0.98689   0.00000  Uiso   1.00
H814   H     0.63043   0.22950   0.53560   0.00000  Uiso   1.00
O815   O     0.79512   0.22775   0.75001   0.00000  Uiso   1.00
O816   O     0.87157   0.22774   0.75001   0.00000  Uiso   1.00
C817   C     0.83344   0.24667   0.75025   0.00000  Uiso   1.00
O818   O     0.77613   0.16666   0.82681   0.00000  Uiso   1.00
O819   O     0.85258   0.16665   0.82681   0.00000  Uiso   1.00
C820   C     0.80714   0.16452   0.85175   0.00000  Uiso   1.00
Zn821  Zn    0.78229   0.16667   0.75000   0.00000  Uiso   1.00
Zn822  Zn    0.88438   0.16666   0.75000   0.00000  Uiso   1.00
O823   O     0.79510   0.10559   0.75000   0.00000  Uiso   1.00
O824   O     0.87154   0.10558   0.75000   0.00000  Uiso   1.00
O825   O     0.81409   0.16668   0.67319   0.00000  Uiso   1.00
O826   O     0.89053   0.16667   0.67319   0.00000  Uiso   1.00
C827   C     0.83321   0.08666   0.74980   0.00000  Uiso   1.00
C828   C     0.85939   0.16562   0.64803   0.00000  Uiso   1.00
C829   C     0.92256   0.11883   0.51224   0.00000  Uiso   1.00
H830   H     0.94171   0.12882   0.58357   0.00000  Uiso   1.00
H831   H     0.95568   0.10284   0.99177   0.00000  Uiso   1.00
C832   C     0.87342   0.15624   0.59076   0.00000  Uiso   1.00
C833   C     0.74554   0.17636   0.93919   0.00000  Uiso   1.00
C834   C     0.72904   0.17526   0.99560   0.00000  Uiso   1.00
C835   C     0.75934   0.15901   0.52176   0.00000  Uiso   1.00
C836   C     0.80745   0.14855   0.99231   0.00000  Uiso   1.00
C837   C     0.81986   0.14258   0.93662   0.00000  Uiso   1.00
C838   C     0.84363   0.14379   0.51609   0.00000  Uiso   1.00
C839   C     0.88718   0.12369   0.98760   0.00000  Uiso   1.00
C840   C     0.89476   0.10967   0.93479   0.00000  Uiso   1.00
C841   C     0.86116   0.11914   0.90964   0.00000  Uiso   1.00
C842   C     0.83907   0.16212   0.56575   0.00000  Uiso   1.00
C843   C     0.91533   0.13453   0.56402   0.00000  Uiso   1.00
C844   C     0.79034   0.16000   0.90989   0.00000  Uiso   1.00
H845   H     0.80850   0.18138   0.58576   0.00000  Uiso   1.00
H846   H     0.72338   0.18884   0.91755   0.00000  Uiso   1.00
H847   H     0.86756   0.10732   0.86919   0.00000  Uiso   1.00
C848   C     0.87676   0.31214   0.72951   0.00000  Uiso   1.00
H849   H     0.91034   0.29583   0.71294   0.00000  Uiso   1.00
C850   C     0.87660   0.02158   0.72917   0.00000  Uiso   1.00
H851   H     0.91017   0.03817   0.71259   0.00000  Uiso   1.00
C852   C     0.83314   0.04253   0.74959   0.00000  Uiso   1.00
C853   C     0.78986   0.02121   0.77039   0.00000  Uiso   1.00
H854   H     0.75628   0.03753   0.78696   0.00000  Uiso   1.00
C855   C     0.79002   0.31178   0.77079   0.00000  Uiso   1.00
H856   H     0.75645   0.29518   0.78740   0.00000  Uiso   1.00
C857   C     0.83350   0.29082   0.75041   0.00000  Uiso   1.00
C858   C     0.98174   0.13438   0.72752   0.00000  Uiso   1.00
H859   H     0.96796   0.10858   0.70975   0.00000  Uiso   1.00
C860   C     0.69614   0.13390   0.72771   0.00000  Uiso   1.00
N861   N     0.71426   0.16668   0.75002   0.00000  Uiso   1.00
C862   C     0.68444   0.19858   0.77377   0.00000  Uiso   1.00
H863   H     0.69808   0.22299   0.79375   0.00000  Uiso   1.00
C864   C     0.96932   0.19904   0.77377   0.00000  Uiso   1.00
N865   N     0.95239   0.16665   0.75001   0.00000  Uiso   1.00
N866   N     0.72417   0.09768   0.70637   0.00000  Uiso   1.00
O867   O     0.76340   0.10103   0.66610   0.00000  Uiso   1.00
O868   O     0.70537   0.06080   0.71879   0.00000  Uiso   1.00
O869   O     0.93697   0.22929   0.80147   0.00000  Uiso   1.00
C870   C     0.95776   0.26954   0.79627   0.00000  Uiso   1.00
H871   H     0.92868   0.29288   0.80636   0.00000  Uiso   1.00
H872   H     0.98128   0.27574   0.75448   0.00000  Uiso   1.00
H873   H     0.97739   0.27439   0.82549   0.00000  Uiso   1.00
O874   O     0.93461   0.08625   0.90793   0.00000  Uiso   1.00
C875   C     0.96850   0.11243   0.87229   0.00000  Uiso   1.00
H876   H     0.97885   0.13920   0.89390   0.00000  Uiso   1.00
H877   H     0.95490   0.12392   0.84042   0.00000  Uiso   1.00
H878   H     0.66788   0.09408   0.85235   0.00000  Uiso   1.00
O879   O     0.73965   0.14874   0.57524   0.00000  Uiso   1.00
C880   C     0.71968   0.10823   0.57740   0.00000  Uiso   1.00
H881   H     0.74836   0.08436   0.56616   0.00000  Uiso   1.00
H882   H     0.69655   0.10442   0.55153   0.00000  Uiso   1.00
H883   H     0.69638   0.10227   0.61890   0.00000  Uiso   1.00
O884   O     0.68289   0.18618   0.52746   0.00000  Uiso   1.00
C885   C     0.99505   0.21624   0.50389   0.00000  Uiso   1.00
H886   H     0.98144   0.20142   0.97314   0.00000  Uiso   1.00
H887   H     0.68658   0.24259   0.98689   0.00000  Uiso   1.00
H888   H     0.96376   0.22950   0.53560   0.00000  Uiso   1.00
O889   O     0.12846   0.56108   0.75001   0.00000  Uiso   1.00
O890   O     0.20490   0.56107   0.75001   0.00000  Uiso   1.00
C891   C     0.16678   0.58001   0.75025   0.00000  Uiso   1.00
O892   O     0.10947   0.50000   0.82681   0.00000  Uiso   1.00
O893   O     0.18591   0.49999   0.82681   0.00000  Uiso   1.00
C894   C     0.14047   0.49786   0.85175   0.00000  Uiso   1.00
Zn895  Zn    0.11562   0.50001   0.75000   0.00000  Uiso   1.00
Zn896  Zn    0.21771   0.49999   0.75000   0.00000  Uiso   1.00
O897   O     0.12843   0.43893   0.75000   0.00000  Uiso   1.00
O898   O     0.20488   0.43892   0.75000   0.00000  Uiso   1.00
O899   O     0.14742   0.50001   0.67319   0.00000  Uiso   1.00
O900   O     0.22387   0.50000   0.67319   0.00000  Uiso   1.00
C901   C     0.16654   0.42000   0.74980   0.00000  Uiso   1.00
C902   C     0.19272   0.49895   0.64803   0.00000  Uiso   1.00
C903   C     0.25589   0.45217   0.51224   0.00000  Uiso   1.00
H904   H     0.27504   0.46216   0.58357   0.00000  Uiso   1.00
H905   H     0.28901   0.43617   0.99177   0.00000  Uiso   1.00
C906   C     0.20676   0.48957   0.59076   0.00000  Uiso   1.00
C907   C     0.07888   0.50969   0.93919   0.00000  Uiso   1.00
C908   C     0.06237   0.50859   0.99560   0.00000  Uiso   1.00
C909   C     0.09267   0.49234   0.52176   0.00000  Uiso   1.00
C910   C     0.14078   0.48188   0.99231   0.00000  Uiso   1.00
C911   C     0.15319   0.47591   0.93662   0.00000  Uiso   1.00
C912   C     0.17696   0.47712   0.51609   0.00000  Uiso   1.00
C913   C     0.22052   0.45702   0.98760   0.00000  Uiso   1.00
C914   C     0.22809   0.44300   0.93479   0.00000  Uiso   1.00
C915   C     0.19449   0.45247   0.90964   0.00000  Uiso   1.00
C916   C     0.17241   0.49545   0.56575   0.00000  Uiso   1.00
C917   C     0.24866   0.46786   0.56402   0.00000  Uiso   1.00
C918   C     0.12368   0.49334   0.90989   0.00000  Uiso   1.00
H919   H     0.14183   0.51472   0.58576   0.00000  Uiso   1.00
H920   H     0.05671   0.52218   0.91755   0.00000  Uiso   1.00
H921   H     0.20090   0.44065   0.86919   0.00000  Uiso   1.00
C922   C     0.21009   0.64548   0.72951   0.00000  Uiso   1.00
H923   H     0.24367   0.62916   0.71294   0.00000  Uiso   1.00
C924   C     0.20994   0.35491   0.72917   0.00000  Uiso   1.00
H925   H     0.24351   0.37150   0.71259   0.00000  Uiso   1.00
C926   C     0.16647   0.37586   0.74959   0.00000  Uiso   1.00
C927   C     0.12319   0.35454   0.77039   0.00000  Uiso   1.00
H928   H     0.08961   0.37086   0.78696   0.00000  Uiso   1.00
C929   C     0.12336   0.64511   0.77079   0.00000  Uiso   1.00
H930   H     0.08978   0.62851   0.78740   0.00000  Uiso   1.00
C931   C     0.16683   0.62416   0.75041   0.00000  Uiso   1.00
C932   C     0.31507   0.46771   0.72752   0.00000  Uiso   1.00
H933   H     0.30129   0.44191   0.70975   0.00000  Uiso   1.00
C934   C     0.02948   0.46723   0.72771   0.00000  Uiso   1.00
N935   N     0.04760   0.50001   0.75002   0.00000  Uiso   1.00
C936   C     0.01777   0.53192   0.77377   0.00000  Uiso   1.00
H937   H     0.03141   0.55632   0.79375   0.00000  Uiso   1.00
C938   C     0.30265   0.53237   0.77377   0.00000  Uiso   1.00
N939   N     0.28573   0.49998   0.75001   0.00000  Uiso   1.00
N940   N     0.05750   0.43101   0.70637   0.00000  Uiso   1.00
O941   O     0.09674   0.43436   0.66610   0.00000  Uiso   1.00
O942   O     0.03870   0.39413   0.71879   0.00000  Uiso   1.00
O943   O     0.27030   0.56262   0.80147   0.00000  Uiso   1.00
C944   C     0.29110   0.60288   0.79627   0.00000  Uiso   1.00
H945   H     0.26201   0.62621   0.80636   0.00000  Uiso   1.00
H946   H     0.31461   0.60907   0.75448   0.00000  Uiso   1.00
H947   H     0.31073   0.60772   0.82549   0.00000  Uiso   1.00
O948   O     0.26794   0.41958   0.90793   0.00000  Uiso   1.00
C949   C     0.30183   0.44576   0.87229   0.00000  Uiso   1.00
H950   H     0.31218   0.47253   0.89390   0.00000  Uiso   1.00
H951   H     0.28823   0.45726   0.84042   0.00000  Uiso   1.00
H952   H     0.00121   0.42742   0.85235   0.00000  Uiso   1.00
O953   O     0.07298   0.48207   0.57524   0.00000  Uiso   1.00
C954   C     0.05302   0.44156   0.57740   0.00000  Uiso   1.00
H955   H     0.08170   0.41770   0.56616   0.00000  Uiso   1.00
H956   H     0.02989   0.43775   0.55153   0.00000  Uiso   1.00
H957   H     0.02971   0.43560   0.61890   0.00000  Uiso   1.00
O958   O     0.01623   0.51951   0.52746   0.00000  Uiso   1.00
C959   C     0.32839   0.54957   0.50389   0.00000  Uiso   1.00
H960   H     0.31477   0.53475   0.97314   0.00000  Uiso   1.00
H961   H     0.01992   0.57592   0.98689   0.00000  Uiso   1.00
H962   H     0.29709   0.56283   0.53560   0.00000  Uiso   1.00
O963   O     0.46179   0.56108   0.75001   0.00000  Uiso   1.00
O964   O     0.53823   0.56107   0.75001   0.00000  Uiso   1.00
C965   C     0.50011   0.58001   0.75025   0.00000  Uiso   1.00
O966   O     0.44280   0.50000   0.82681   0.00000  Uiso   1.00
O967   O     0.51924   0.49999   0.82681   0.00000  Uiso   1.00
C968   C     0.47381   0.49786   0.85175   0.00000  Uiso   1.00
Zn969  Zn    0.44896   0.50001   0.75000   0.00000  Uiso   1.00
Zn970  Zn    0.55104   0.49999   0.75000   0.00000  Uiso   1.00
O971   O     0.46177   0.43893   0.75000   0.00000  Uiso   1.00
O972   O     0.53821   0.43892   0.75000   0.00000  Uiso   1.00
O973   O     0.48076   0.50001   0.67319   0.00000  Uiso   1.00
O974   O     0.55720   0.50000   0.67319   0.00000  Uiso   1.00
C975   C     0.49987   0.42000   0.74980   0.00000  Uiso   1.00
C976   C     0.52606   0.49895   0.64803   0.00000  Uiso   1.00
C977   C     0.58923   0.45217   0.51224   0.00000  Uiso   1.00
H978   H     0.60838   0.46216   0.58357   0.00000  Uiso   1.00
H979   H     0.62234   0.43617   0.99177   0.00000  Uiso   1.00
C980   C     0.54009   0.48957   0.59076   0.00000  Uiso   1.00
C981   C     0.41221   0.50969   0.93919   0.00000  Uiso   1.00
C982   C     0.39570   0.50859   0.99560   0.00000  Uiso   1.00
C983   C     0.42600   0.49234   0.52176   0.00000  Uiso   1.00
C984   C     0.47412   0.48188   0.99231   0.00000  Uiso   1.00
C985   C     0.48653   0.47591   0.93662   0.00000  Uiso   1.00
C986   C     0.51029   0.47712   0.51609   0.00000  Uiso   1.00
C987   C     0.55385   0.45702   0.98760   0.00000  Uiso   1.00
C988   C     0.56143   0.44300   0.93479   0.00000  Uiso   1.00
C989   C     0.52783   0.45247   0.90964   0.00000  Uiso   1.00
C990   C     0.50574   0.49545   0.56575   0.00000  Uiso   1.00
C991   C     0.58200   0.46786   0.56402   0.00000  Uiso   1.00
C992   C     0.45701   0.49334   0.90989   0.00000  Uiso   1.00
H993   H     0.47517   0.51472   0.58576   0.00000  Uiso   1.00
H994   H     0.39005   0.52218   0.91755   0.00000  Uiso   1.00
H995   H     0.53423   0.44065   0.86919   0.00000  Uiso   1.00
C996   C     0.54342   0.64548   0.72951   0.00000  Uiso   1.00
H997   H     0.57701   0.62916   0.71294   0.00000  Uiso   1.00
C998   C     0.54327   0.35491   0.72917   0.00000  Uiso   1.00
H999   H     0.57684   0.37150   0.71259   0.00000  Uiso   1.00
C1000  C     0.49981   0.37586   0.74959   0.00000  Uiso   1.00
C1001  C     0.45653   0.35454   0.77039   0.00000  Uiso   1.00
H1002  H     0.42294   0.37086   0.78696   0.00000  Uiso   1.00
C1003  C     0.45669   0.64511   0.77079   0.00000  Uiso   1.00
H1004  H     0.42312   0.62851   0.78740   0.00000  Uiso   1.00
C1005  C     0.50016   0.62416   0.75041   0.00000  Uiso   1.00
C1006  C     0.64840   0.46771   0.72752   0.00000  Uiso   1.00
H1007  H     0.63463   0.44191   0.70975   0.00000  Uiso   1.00
C1008  C     0.36281   0.46723   0.72771   0.00000  Uiso   1.00
N1009  N     0.38093   0.50001   0.75002   0.00000  Uiso   1.00
C1010  C     0.35110   0.53192   0.77377   0.00000  Uiso   1.00
H1011  H     0.36474   0.55632   0.79375   0.00000  Uiso   1.00
C1012  C     0.63598   0.53237   0.77377   0.00000  Uiso   1.00
N1013  N     0.61906   0.49998   0.75001   0.00000  Uiso   1.00
N1014  N     0.39084   0.43101   0.70637   0.00000  Uiso   1.00
O1015  O     0.43007   0.43436   0.66610   0.00000  Uiso   1.00
O1016  O     0.37204   0.39413   0.71879   0.00000  Uiso   1.00
O1017  O     0.60364   0.56262   0.80147   0.00000  Uiso   1.00
C1018  C     0.62443   0.60288   0.79627   0.00000  Uiso   1.00
H1019  H     0.59535   0.62621   0.80636   0.00000  Uiso   1.00
H1020  H     0.64795   0.60907   0.75448   0.00000  Uiso   1.00
H1021  H     0.64406   0.60772   0.82549   0.00000  Uiso   1.00
O1022  O     0.60127   0.41958   0.90793   0.00000  Uiso   1.00
C1023  C     0.63516   0.44576   0.87229   0.00000  Uiso   1.00
H1024  H     0.64552   0.47253   0.89390   0.00000  Uiso   1.00
H1025  H     0.62156   0.45726   0.84042   0.00000  Uiso   1.00
H1026  H     0.33454   0.42742   0.85235   0.00000  Uiso   1.00
O1027  O     0.40631   0.48207   0.57524   0.00000  Uiso   1.00
C1028  C     0.38635   0.44156   0.57740   0.00000  Uiso   1.00
H1029  H     0.41503   0.41770   0.56616   0.00000  Uiso   1.00
H1030  H     0.36322   0.43775   0.55153   0.00000  Uiso   1.00
H1031  H     0.36305   0.43560   0.61890   0.00000  Uiso   1.00
O1032  O     0.34956   0.51951   0.52746   0.00000  Uiso   1.00
C1033  C     0.66172   0.54957   0.50389   0.00000  Uiso   1.00
H1034  H     0.64810   0.53475   0.97314   0.00000  Uiso   1.00
H1035  H     0.35325   0.57592   0.98689   0.00000  Uiso   1.00
H1036  H     0.63043   0.56283   0.53560   0.00000  Uiso   1.00
O1037  O     0.79512   0.56108   0.75001   0.00000  Uiso   1.00
O1038  O     0.87157   0.56107   0.75001   0.00000  Uiso   1.00
C1039  C     0.83344   0.58001   0.75025   0.00000  Uiso   1.00
O1040  O     0.77613   0.50000   0.82681   0.00000  Uiso   1.00
O1041  O     0.85258   0.49999   0.82681   0.00000  Uiso   1.00
C1042  C     0.80714   0.49786   0.85175   0.00000  Uiso   1.00
Zn1043 Zn    0.78229   0.50001   0.75000   0.00000  Uiso   1.00
Zn1044 Zn    0.88438   0.49999   0.75000   0.00000  Uiso   1.00
O1045  O     0.79510   0.43893   0.75000   0.00000  Uiso   1.00
O1046  O     0.87154   0.43892   0.75000   0.00000  Uiso   1.00
O1047  O     0.81409   0.50001   0.67319   0.00000  Uiso   1.00
O1048  O     0.89053   0.50000   0.67319   0.00000  Uiso   1.00
C1049  C     0.83321   0.42000   0.74980   0.00000  Uiso   1.00
C1050  C     0.85939   0.49895   0.64803   0.00000  Uiso   1.00
C1051  C     0.92256   0.45217   0.51224   0.00000  Uiso   1.00
H1052  H     0.94171   0.46216   0.58357   0.00000  Uiso   1.00
H1053  H     0.95568   0.43617   0.99177   0.00000  Uiso   1.00
C1054  C     0.87342   0.48957   0.59076   0.00000  Uiso   1.00
C1055  C     0.74554   0.50969   0.93919   0.00000  Uiso   1.00
C1056  C     0.72904   0.50859   0.99560   0.00000  Uiso   1.00
C1057  C     0.75934   0.49234   0.52176   0.00000  Uiso   1.00
C1058  C     0.80745   0.48188   0.99231   0.00000  Uiso   1.00
C1059  C     0.81986   0.47591   0.93662   0.00000  Uiso   1.00
C1060  C     0.84363   0.47712   0.51609   0.00000  Uiso   1.00
C1061  C     0.88718   0.45702   0.98760   0.00000  Uiso   1.00
C1062  C     0.89476   0.44300   0.93479   0.00000  Uiso   1.00
C1063  C     0.86116   0.45247   0.90964   0.00000  Uiso   1.00
C1064  C     0.83907   0.49545   0.56575   0.00000  Uiso   1.00
C1065  C     0.91533   0.46786   0.56402   0.00000  Uiso   1.00
C1066  C     0.79034   0.49334   0.90989   0.00000  Uiso   1.00
H1067  H     0.80850   0.51472   0.58576   0.00000  Uiso   1.00
H1068  H     0.72338   0.52218   0.91755   0.00000  Uiso   1.00
H1069  H     0.86756   0.44065   0.86919   0.00000  Uiso   1.00
C1070  C     0.87676   0.64548   0.72951   0.00000  Uiso   1.00
H1071  H     0.91034   0.62916   0.71294   0.00000  Uiso   1.00
C1072  C     0.87660   0.35491   0.72917   0.00000  Uiso   1.00
H1073  H     0.91017   0.37150   0.71259   0.00000  Uiso   1.00
C1074  C     0.83314   0.37586   0.74959   0.00000  Uiso   1.00
C1075  C     0.78986   0.35454   0.77039   0.00000  Uiso   1.00
H1076  H     0.75628   0.37086   0.78696   0.00000  Uiso   1.00
C1077  C     0.79002   0.64511   0.77079   0.00000  Uiso   1.00
H1078  H     0.75645   0.62851   0.78740   0.00000  Uiso   1.00
C1079  C     0.83350   0.62416   0.75041   0.00000  Uiso   1.00
C1080  C     0.98174   0.46771   0.72752   0.00000  Uiso   1.00
H1081  H     0.96796   0.44191   0.70975   0.00000  Uiso   1.00
C1082  C     0.69614   0.46723   0.72771   0.00000  Uiso   1.00
N1083  N     0.71426   0.50001   0.75002   0.00000  Uiso   1.00
C1084  C     0.68444   0.53192   0.77377   0.00000  Uiso   1.00
H1085  H     0.69808   0.55632   0.79375   0.00000  Uiso   1.00
C1086  C     0.96932   0.53237   0.77377   0.00000  Uiso   1.00
N1087  N     0.95239   0.49998   0.75001   0.00000  Uiso   1.00
N1088  N     0.72417   0.43101   0.70637   0.00000  Uiso   1.00
O1089  O     0.76340   0.43436   0.66610   0.00000  Uiso   1.00
O1090  O     0.70537   0.39413   0.71879   0.00000  Uiso   1.00
O1091  O     0.93697   0.56262   0.80147   0.00000  Uiso   1.00
C1092  C     0.95776   0.60288   0.79627   0.00000  Uiso   1.00
H1093  H     0.92868   0.62621   0.80636   0.00000  Uiso   1.00
H1094  H     0.98128   0.60907   0.75448   0.00000  Uiso   1.00
H1095  H     0.97739   0.60772   0.82549   0.00000  Uiso   1.00
O1096  O     0.93461   0.41958   0.90793   0.00000  Uiso   1.00
C1097  C     0.96850   0.44576   0.87229   0.00000  Uiso   1.00
H1098  H     0.97885   0.47253   0.89390   0.00000  Uiso   1.00
H1099  H     0.95490   0.45726   0.84042   0.00000  Uiso   1.00
H1100  H     0.66788   0.42742   0.85235   0.00000  Uiso   1.00
O1101  O     0.73965   0.48207   0.57524   0.00000  Uiso   1.00
C1102  C     0.71968   0.44156   0.57740   0.00000  Uiso   1.00
H1103  H     0.74836   0.41770   0.56616   0.00000  Uiso   1.00
H1104  H     0.69655   0.43775   0.55153   0.00000  Uiso   1.00
H1105  H     0.69638   0.43560   0.61890   0.00000  Uiso   1.00
O1106  O     0.68289   0.51951   0.52746   0.00000  Uiso   1.00
C1107  C     0.99505   0.54957   0.50389   0.00000  Uiso   1.00
H1108  H     0.98144   0.53475   0.97314   0.00000  Uiso   1.00
H1109  H     0.68658   0.57592   0.98689   0.00000  Uiso   1.00
H1110  H     0.96376   0.56283   0.53560   0.00000  Uiso   1.00
O1111  O     0.12846   0.89442   0.75001   0.00000  Uiso   1.00
O1112  O     0.20490   0.89441   0.75001   0.00000  Uiso   1.00
C1113  C     0.16678   0.91334   0.75025   0.00000  Uiso   1.00
O1114  O     0.10947   0.83333   0.82681   0.00000  Uiso   1.00
O1115  O     0.18591   0.83332   0.82681   0.00000  Uiso   1.00
C1116  C     0.14047   0.83119   0.85175   0.00000  Uiso   1.00
Zn1117 Zn    0.11562   0.83334   0.75000   0.00000  Uiso   1.00
Zn1118 Zn    0.21771   0.83333   0.75000   0.00000  Uiso   1.00
O1119  O     0.12843   0.77226   0.75000   0.00000  Uiso   1.00
O1120  O     0.20488   0.77225   0.75000   0.00000  Uiso   1.00
O1121  O     0.14742   0.83335   0.67319   0.00000  Uiso   1.00
O1122  O     0.22387   0.83334   0.67319   0.00000  Uiso   1.00
C1123  C     0.16654   0.75333   0.74980   0.00000  Uiso   1.00
C1124  C     0.19272   0.83229   0.64803   0.00000  Uiso   1.00
C1125  C     0.25589   0.78550   0.51224   0.00000  Uiso   1.00
H1126  H     0.27504   0.79549   0.58357   0.00000  Uiso   1.00
H1127  H     0.28901   0.76951   0.99177   0.00000  Uiso   1.00
C1128  C     0.20676   0.82290   0.59076   0.00000  Uiso   1.00
C1129  C     0.07888   0.84302   0.93919   0.00000  Uiso   1.00
C1130  C     0.06237   0.84192   0.99560   0.00000  Uiso   1.00
C1131  C     0.09267   0.82567   0.52176   0.00000  Uiso   1.00
C1132  C     0.14078   0.81522   0.99231   0.00000  Uiso   1.00
C1133  C     0.15319   0.80924   0.93662   0.00000  Uiso   1.00
C1134  C     0.17696   0.81045   0.51609   0.00000  Uiso   1.00
C1135  C     0.22052   0.79035   0.98760   0.00000  Uiso   1.00
C1136  C     0.22809   0.77634   0.93479   0.00000  Uiso   1.00
C1137  C     0.19449   0.78581   0.90964   0.00000  Uiso   1.00
C1138  C     0.17241   0.82879   0.56575   0.00000  Uiso   1.00
C1139  C     0.24866   0.80120   0.56402   0.00000  Uiso   1.00
C1140  C     0.12368   0.82667   0.90989   0.00000  Uiso   1.00
H1141  H     0.14183   0.84805   0.58576   0.00000  Uiso   1.00
H1142  H     0.05671   0.85551   0.91755   0.00000  Uiso   1.00
H1143  H     0.20090   0.77398   0.86919   0.00000  Uiso   1.00
C1144  C     0.21009   0.97881   0.72951   0.00000  Uiso   1.00
H1145  H     0.24367   0.96249   0.71294   0.00000  Uiso   1.00
C1146  C     0.20994   0.68824   0.72917   0.00000  Uiso   1.00
H1147  H     0.24351   0.70484   0.71259   0.00000  Uiso   1.00
C1148  C     0.16647   0.70919   0.74959   0.00000  Uiso   1.00
C1149  C     0.12319   0.68788   0.77039   0.00000  Uiso   1.00
H1150  H     0.08961   0.70420   0.78696   0.00000  Uiso   1.00
C1151  C     0.12336   0.97844   0.77079   0.00000  Uiso   1.00
H1152  H     0.08978   0.96185   0.78740   0.00000  Uiso   1.00
C1153  C     0.16683   0.95749   0.75041   0.00000  Uiso   1.00
C1154  C     0.31507   0.80105   0.72752   0.00000  Uiso   1.00
H1155  H     0.30129   0.77524   0.70975   0.00000  Uiso   1.00
C1156  C     0.02948   0.80057   0.72771   0.00000  Uiso   1.00
N1157  N     0.04760   0.83334   0.75002   0.00000  Uiso   1.00
C1158  C     0.01777   0.86525   0.77377   0.00000  Uiso   1.00
H1159  H     0.03141   0.88965   0.79375   0.00000  Uiso   1.00
C1160  C     0.30265   0.86571   0.77377   0.00000  Uiso   1.00
N1161  N     0.28573   0.83331   0.75001   0.00000  Uiso   1.00
N1162  N     0.05750   0.76435   0.70637   0.00000  Uiso   1.00
O1163  O     0.09674   0.76769   0.66610   0.00000  Uiso   1.00
O1164  O     0.03870   0.72747   0.71879   0.00000  Uiso   1.00
O1165  O     0.27030   0.89595   0.80147   0.00000  Uiso   1.00
C1166  C     0.29110   0.93621   0.79627   0.00000  Uiso   1.00
H1167  H     0.26201   0.95955   0.80636   0.00000  Uiso   1.00
H1168  H     0.31461   0.94240   0.75448   0.00000  Uiso   1.00
H1169  H     0.31073   0.94105   0.82549   0.00000  Uiso   1.00
O1170  O     0.26794   0.75292   0.90793   0.00000  Uiso   1.00
C1171  C     0.30183   0.77910   0.87229   0.00000  Uiso   1.00
H1172  H     0.31218   0.80587   0.89390   0.00000  Uiso   1.00
H1173  H     0.28823   0.79059   0.84042   0.00000  Uiso   1.00
H1174  H     0.00121   0.76075   0.85235   0.00000  Uiso   1.00
O1175  O     0.07298   0.81541   0.57524   0.00000  Uiso   1.00
C1176  C     0.05302   0.77490   0.57740   0.00000  Uiso   1.00
H1177  H     0.08170   0.75103   0.56616   0.00000  Uiso   1.00
H1178  H     0.02989   0.77109   0.55153   0.00000  Uiso   1.00
H1179  H     0.02971   0.76893   0.61890   0.00000  Uiso   1.00
O1180  O     0.01623   0.85285   0.52746   0.00000  Uiso   1.00
C1181  C     0.32839   0.88291   0.50389   0.00000  Uiso   1.00
H1182  H     0.31477   0.86809   0.97314   0.00000  Uiso   1.00
H1183  H     0.01992   0.90926   0.98689   0.00000  Uiso   1.00
H1184  H     0.29709   0.89616   0.53560   0.00000  Uiso   1.00
O1185  O     0.46179   0.89442   0.75001   0.00000  Uiso   1.00
O1186  O     0.53823   0.89441   0.75001   0.00000  Uiso   1.00
C1187  C     0.50011   0.91334   0.75025   0.00000  Uiso   1.00
O1188  O     0.44280   0.83333   0.82681   0.00000  Uiso   1.00
O1189  O     0.51924   0.83332   0.82681   0.00000  Uiso   1.00
C1190  C     0.47381   0.83119   0.85175   0.00000  Uiso   1.00
Zn1191 Zn    0.44896   0.83334   0.75000   0.00000  Uiso   1.00
Zn1192 Zn    0.55104   0.83333   0.75000   0.00000  Uiso   1.00
O1193  O     0.46177   0.77226   0.75000   0.00000  Uiso   1.00
O1194  O     0.53821   0.77225   0.75000   0.00000  Uiso   1.00
O1195  O     0.48076   0.83335   0.67319   0.00000  Uiso   1.00
O1196  O     0.55720   0.83334   0.67319   0.00000  Uiso   1.00
C1197  C     0.49987   0.75333   0.74980   0.00000  Uiso   1.00
C1198  C     0.52606   0.83229   0.64803   0.00000  Uiso   1.00
C1199  C     0.58923   0.78550   0.51224   0.00000  Uiso   1.00
H1200  H     0.60838   0.79549   0.58357   0.00000  Uiso   1.00
H1201  H     0.62234   0.76951   0.99177   0.00000  Uiso   1.00
C1202  C     0.54009   0.82290   0.59076   0.00000  Uiso   1.00
C1203  C     0.41221   0.84302   0.93919   0.00000  Uiso   1.00
C1204  C     0.39570   0.84192   0.99560   0.00000  Uiso   1.00
C1205  C     0.42600   0.82567   0.52176   0.00000  Uiso   1.00
C1206  C     0.47412   0.81522   0.99231   0.00000  Uiso   1.00
C1207  C     0.48653   0.80924   0.93662   0.00000  Uiso   1.00
C1208  C     0.51029   0.81045   0.51609   0.00000  Uiso   1.00
C1209  C     0.55385   0.79035   0.98760   0.00000  Uiso   1.00
C1210  C     0.56143   0.77634   0.93479   0.00000  Uiso   1.00
C1211  C     0.52783   0.78581   0.90964   0.00000  Uiso   1.00
C1212  C     0.50574   0.82879   0.56575   0.00000  Uiso   1.00
C1213  C     0.58200   0.80120   0.56402   0.00000  Uiso   1.00
C1214  C     0.45701   0.82667   0.90989   0.00000  Uiso   1.00
H1215  H     0.47517   0.84805   0.58576   0.00000  Uiso   1.00
H1216  H     0.39005   0.85551   0.91755   0.00000  Uiso   1.00
H1217  H     0.53423   0.77398   0.86919   0.00000  Uiso   1.00
C1218  C     0.54342   0.97881   0.72951   0.00000  Uiso   1.00
H1219  H     0.57701   0.96249   0.71294   0.00000  Uiso   1.00
C1220  C     0.54327   0.68824   0.72917   0.00000  Uiso   1.00
H1221  H     0.57684   0.70484   0.71259   0.00000  Uiso   1.00
C1222  C     0.49981   0.70919   0.74959   0.00000  Uiso   1.00
C1223  C     0.45653   0.68788   0.77039   0.00000  Uiso   1.00
H1224  H     0.42294   0.70420   0.78696   0.00000  Uiso   1.00
C1225  C     0.45669   0.97844   0.77079   0.00000  Uiso   1.00
H1226  H     0.42312   0.96185   0.78740   0.00000  Uiso   1.00
C1227  C     0.50016   0.95749   0.75041   0.00000  Uiso   1.00
C1228  C     0.64840   0.80105   0.72752   0.00000  Uiso   1.00
H1229  H     0.63463   0.77524   0.70975   0.00000  Uiso   1.00
C1230  C     0.36281   0.80057   0.72771   0.00000  Uiso   1.00
N1231  N     0.38093   0.83334   0.75002   0.00000  Uiso   1.00
C1232  C     0.35110   0.86525   0.77377   0.00000  Uiso   1.00
H1233  H     0.36474   0.88965   0.79375   0.00000  Uiso   1.00
C1234  C     0.63598   0.86571   0.77377   0.00000  Uiso   1.00
N1235  N     0.61906   0.83331   0.75001   0.00000  Uiso   1.00
N1236  N     0.39084   0.76435   0.70637   0.00000  Uiso   1.00
O1237  O     0.43007   0.76769   0.66610   0.00000  Uiso   1.00
O1238  O     0.37204   0.72747   0.71879   0.00000  Uiso   1.00
O1239  O     0.60364   0.89595   0.80147   0.00000  Uiso   1.00
C1240  C     0.62443   0.93621   0.79627   0.00000  Uiso   1.00
H1241  H     0.59535   0.95955   0.80636   0.00000  Uiso   1.00
H1242  H     0.64795   0.94240   0.75448   0.00000  Uiso   1.00
H1243  H     0.64406   0.94105   0.82549   0.00000  Uiso   1.00
O1244  O     0.60127   0.75292   0.90793   0.00000  Uiso   1.00
C1245  C     0.63516   0.77910   0.87229   0.00000  Uiso   1.00
H1246  H     0.64552   0.80587   0.89390   0.00000  Uiso   1.00
H1247  H     0.62156   0.79059   0.84042   0.00000  Uiso   1.00
H1248  H     0.33454   0.76075   0.85235   0.00000  Uiso   1.00
O1249  O     0.40631   0.81541   0.57524   0.00000  Uiso   1.00
C1250  C     0.38635   0.77490   0.57740   0.00000  Uiso   1.00
H1251  H     0.41503   0.75103   0.56616   0.00000  Uiso   1.00
H1252  H     0.36322   0.77109   0.55153   0.00000  Uiso   1.00
H1253  H     0.36305   0.76893   0.61890   0.00000  Uiso   1.00
O1254  O     0.34956   0.85285   0.52746   0.00000  Uiso   1.00
C1255  C     0.66172   0.88291   0.50389   0.00000  Uiso   1.00
H1256  H     0.64810   0.86809   0.97314   0.00000  Uiso   1.00
H1257  H     0.35325   0.90926   0.98689   0.00000  Uiso   1.00
H1258  H     0.63043   0.89616   0.53560   0.00000  Uiso   1.00
O1259  O     0.79512   0.89442   0.75001   0.00000  Uiso   1.00
O1260  O     0.87157   0.89441   0.75001   0.00000  Uiso   1.00
C1261  C     0.83344   0.91334   0.75025   0.00000  Uiso   1.00
O1262  O     0.77613   0.83333   0.82681   0.00000  Uiso   1.00
O1263  O     0.85258   0.83332   0.82681   0.00000  Uiso   1.00
C1264  C     0.80714   0.83119   0.85175   0.00000  Uiso   1.00
Zn1265 Zn    0.78229   0.83334   0.75000   0.00000  Uiso   1.00
Zn1266 Zn    0.88438   0.83333   0.75000   0.00000  Uiso   1.00
O1267  O     0.79510   0.77226   0.75000   0.00000  Uiso   1.00
O1268  O     0.87154   0.77225   0.75000   0.00000  Uiso   1.00
O1269  O     0.81409   0.83335   0.67319   0.00000  Uiso   1.00
O1270  O     0.89053   0.83334   0.67319   0.00000  Uiso   1.00
C1271  C     0.83321   0.75333   0.74980   0.00000  Uiso   1.00
C1272  C     0.85939   0.83229   0.64803   0.00000  Uiso   1.00
C1273  C     0.92256   0.78550   0.51224   0.00000  Uiso   1.00
H1274  H     0.94171   0.79549   0.58357   0.00000  Uiso   1.00
H1275  H     0.95568   0.76951   0.99177   0.00000  Uiso   1.00
C1276  C     0.87342   0.82290   0.59076   0.00000  Uiso   1.00
C1277  C     0.74554   0.84302   0.93919   0.00000  Uiso   1.00
C1278  C     0.72904   0.84192   0.99560   0.00000  Uiso   1.00
C1279  C     0.75934   0.82567   0.52176   0.00000  Uiso   1.00
C1280  C     0.80745   0.81522   0.99231   0.00000  Uiso   1.00
C1281  C     0.81986   0.80924   0.93662   0.00000  Uiso   1.00
C1282  C     0.84363   0.81045   0.51609   0.00000  Uiso   1.00
C1283  C     0.88718   0.79035   0.98760   0.00000  Uiso   1.00
C1284  C     0.89476   0.77634   0.93479   0.00000  Uiso   1.00
C1285  C     0.86116   0.78581   0.90964   0.00000  Uiso   1.00
C1286  C     0.83907   0.82879   0.56575   0.00000  Uiso   1.00
C1287  C     0.91533   0.80120   0.56402   0.00000  Uiso   1.00
C1288  C     0.79034   0.82667   0.90989   0.00000  Uiso   1.00
H1289  H     0.80850   0.84805   0.58576   0.00000  Uiso   1.00
H1290  H     0.72338   0.85551   0.91755   0.00000  Uiso   1.00
H1291  H     0.86756   0.77398   0.86919   0.00000  Uiso   1.00
C1292  C     0.87676   0.97881   0.72951   0.00000  Uiso   1.00
H1293  H     0.91034   0.96249   0.71294   0.00000  Uiso   1.00
C1294  C     0.87660   0.68824   0.72917   0.00000  Uiso   1.00
H1295  H     0.91017   0.70484   0.71259   0.00000  Uiso   1.00
C1296  C     0.83314   0.70919   0.74959   0.00000  Uiso   1.00
C1297  C     0.78986   0.68788   0.77039   0.00000  Uiso   1.00
H1298  H     0.75628   0.70420   0.78696   0.00000  Uiso   1.00
C1299  C     0.79002   0.97844   0.77079   0.00000  Uiso   1.00
H1300  H     0.75645   0.96185   0.78740   0.00000  Uiso   1.00
C1301  C     0.83350   0.95749   0.75041   0.00000  Uiso   1.00
C1302  C     0.98174   0.80105   0.72752   0.00000  Uiso   1.00
H1303  H     0.96796   0.77524   0.70975   0.00000  Uiso   1.00
C1304  C     0.69614   0.80057   0.72771   0.00000  Uiso   1.00
N1305  N     0.71426   0.83334   0.75002   0.00000  Uiso   1.00
C1306  C     0.68444   0.86525   0.77377   0.00000  Uiso   1.00
H1307  H     0.69808   0.88965   0.79375   0.00000  Uiso   1.00
C1308  C     0.96932   0.86571   0.77377   0.00000  Uiso   1.00
N1309  N     0.95239   0.83331   0.75001   0.00000  Uiso   1.00
N1310  N     0.72417   0.76435   0.70637   0.00000  Uiso   1.00
O1311  O     0.76340   0.76769   0.66610   0.00000  Uiso   1.00
O1312  O     0.70537   0.72747   0.71879   0.00000  Uiso   1.00
O1313  O     0.93697   0.89595   0.80147   0.00000  Uiso   1.00
C1314  C     0.95776   0.93621   0.79627   0.00000  Uiso   1.00
H1315  H     0.92868   0.95955   0.80636   0.00000  Uiso   1.00
H1316  H     0.98128   0.94240   0.75448   0.00000  Uiso   1.00
H1317  H     0.97739   0.94105   0.82549   0.00000  Uiso   1.00
O1318  O     0.93461   0.75292   0.90793   0.00000  Uiso   1.00
C1319  C     0.96850   0.77910   0.87229   0.00000  Uiso   1.00
H1320  H     0.97885   0.80587   0.89390   0.00000  Uiso   1.00
H1321  H     0.95490   0.79059   0.84042   0.00000  Uiso   1.00
H1322  H     0.66788   0.76075   0.85235   0.00000  Uiso   1.00
O1323  O     0.73965   0.81541   0.57524   0.00000  Uiso   1.00
C1324  C     0.71968   0.77490   0.57740   0.00000  Uiso   1.00
H1325  H     0.74836   0.75103   0.56616   0.00000  Uiso   1.00
H1326  H     0.69655   0.77109   0.55153   0.00000  Uiso   1.00
H1327  H     0.69638   0.76893   0.61890   0.00000  Uiso   1.00
O1328  O     0.68289   0.85285   0.52746   0.00000  Uiso   1.00
C1329  C     0.99505   0.88291   0.50389   0.00000  Uiso   1.00
H1330  H     0.98144   0.86809   0.97314   0.00000  Uiso   1.00
H1331  H     0.68658   0.90926   0.98689   0.00000  Uiso   1.00
H1332  H     0.96376   0.89616   0.53560   0.00000  Uiso   1.00
loop_
_geom_bond_atom_site_label_1
_geom_bond_atom_site_label_2
_geom_bond_distance
_geom_bond_site_symmetry_2
_ccdc_geom_bond_type
O1     C3      1.281   .     A
O1     Zn7     1.989   .     S
O2     Zn8     1.998   .     S
O2     C3      1.285   .     A
C3     C43     1.415   .     S
O4     Zn7     1.969   .     S
O4     C6      1.291   .     A
O5     Zn8     1.934   .     S
O5     C6      1.293   .     A
C6     C30     1.457   .     S
Zn7    O11     1.934   .     S
Zn7    O9      1.998   .     S
Zn7    N47     2.012   .     S
Zn8    O12     1.969   .     S
Zn8    N51     2.012   .     S
Zn8    O10     1.989   .     S
O9     C13     1.285   .     A
O10    C13     1.281   .     A
O11    C14     1.289   .     A
O12    C14     1.296   .     A
C13    C38     1.414   .     S
C14    C18     1.455   .     S
C15    C29     1.395   .     A
C15    H683    1.083   1_554 S
C15    C691    1.409   1_554 S
H16    C29     1.083   .     S
H17    C681    1.083   .     S
C18    C28     1.393   .     A
C18    C29     1.398   .     A
C19    H32     1.081   .     S
C19    C30     1.402   .     A
C19    C20     1.405   .     A
C20    C687    1.403   .     S
C20    O736    1.396   .     S
C21    O65     1.382   .     S
C21    C686    1.403   1_554 S
C21    C688    1.424   1_554 S
C22    C23     1.401   .     A
C22    C687    1.424   .     S
C22    C690    1.414   .     S
C23    C27     1.415   .     A
C23    C30     1.411   .     A
C24    C28     1.390   .     A
C24    C688    1.414   1_554 S
C24    C691    1.419   1_554 S
C25    C26     1.401   .     A
C25    C681    1.409   .     S
C25    C690    1.419   .     S
C26    C27     1.399   .     A
C26    O60     1.384   .     S
C27    H33     1.081   .     S
C28    H31     1.082   .     S
C34    H35     1.084   .     S
C34    C43     1.394   .     A
C34    C258    1.371   .     S
C36    C38     1.397   .     A
C36    H37     1.084   .     S
C36    C478    1.371   1_545 S
C38    C39     1.395   .     A
C39    H40     1.084   .     S
C39    C485    1.371   1_545 S
C41    H42     1.084   .     S
C41    C43     1.398   .     A
C41    C261    1.371   .     S
C44    H45     1.082   .     S
C44    N51     1.356   .     A
C44    C120    1.414   .     S
C46    N52     1.431   .     S
C46    N47     1.380   .     A
C46    C192    1.414   1_455 S
N47    C48     1.362   .     A
C48    H49     1.080   .     S
C48    C198    1.433   1_455 S
C50    O55     1.390   .     S
C50    N51     1.373   .     A
C50    C122    1.433   .     S
N52    O54     1.301   .     A
N52    O53     1.299   .     A
O55    C56     1.412   .     S
C56    H58     1.115   .     S
C56    H59     1.111   .     S
C56    H57     1.109   .     S
O60    C61     1.410   .     S
C61    H62     1.115   .     S
C61    H63     1.110   .     S
C61    H138    1.110   .     S
H64    C209    1.110   1_455 S
O65    C66     1.414   .     S
C66    H68     1.115   .     S
C66    H69     1.105   .     S
C66    H67     1.112   .     S
O70    C686    1.396   1_554 S
O70    C219    1.411   1_455 S
C71    H74     1.109   .     S
C71    O144    1.411   .     S
C71    H738    1.111   1_554 S
C71    H813    1.114   1_554 S
H72    C737    1.111   .     S
H73    C885    1.114   1_455 S
O75    C77     1.281   .     A
O75    Zn81    1.989   .     S
O76    Zn82    1.998   .     S
O76    C77     1.285   .     A
C77    C117    1.415   .     S
O78    Zn81    1.969   .     S
O78    C80     1.291   .     A
O79    Zn82    1.934   .     S
O79    C80     1.293   .     A
C80    C104    1.457   .     S
Zn81   O85     1.934   .     S
Zn81   O83     1.998   .     S
Zn81   N121    2.012   .     S
Zn82   O86     1.969   .     S
Zn82   N125    2.012   .     S
Zn82   O84     1.989   .     S
O83    C87     1.285   .     A
O84    C87     1.281   .     A
O85    C88     1.289   .     A
O86    C88     1.296   .     A
C87    C112    1.414   .     S
C88    C92     1.455   .     S
C89    C103    1.395   .     A
C89    H757    1.083   1_554 S
C89    C765    1.409   1_554 S
H90    C103    1.083   .     S
H91    C755    1.083   .     S
C92    C102    1.393   .     A
C92    C103    1.398   .     A
C93    H106    1.081   .     S
C93    C104    1.402   .     A
C93    C94     1.405   .     A
C94    C761    1.403   .     S
C94    O810    1.396   .     S
C95    O139    1.382   .     S
C95    C760    1.403   1_554 S
C95    C762    1.424   1_554 S
C96    C97     1.401   .     A
C96    C761    1.424   .     S
C96    C764    1.414   .     S
C97    C101    1.415   .     A
C97    C104    1.411   .     A
C98    C102    1.390   .     A
C98    C762    1.414   1_554 S
C98    C765    1.419   1_554 S
C99    C100    1.401   .     A
C99    C755    1.409   .     S
C99    C764    1.419   .     S
C100   C101    1.399   .     A
C100   O134    1.384   .     S
C101   H107    1.081   .     S
C102   H105    1.082   .     S
C108   H109    1.084   .     S
C108   C117    1.394   .     A
C108   C332    1.371   .     S
C110   C112    1.397   .     A
C110   H111    1.084   .     S
C110   C552    1.371   1_545 S
C112   C113    1.395   .     A
C113   H114    1.084   .     S
C113   C559    1.371   1_545 S
C115   H116    1.084   .     S
C115   C117    1.398   .     A
C115   C335    1.371   .     S
C118   H119    1.082   .     S
C118   N125    1.356   .     A
C118   C194    1.414   .     S
C120   N126    1.431   .     S
C120   N121    1.380   .     A
N121   C122    1.362   .     A
C122   H123    1.080   .     S
C124   O129    1.390   .     S
C124   N125    1.373   .     A
C124   C196    1.433   .     S
N126   O128    1.301   .     A
N126   O127    1.299   .     A
O129   C130    1.412   .     S
C130   H132    1.115   .     S
C130   H133    1.111   .     S
C130   H131    1.109   .     S
O134   C135    1.410   .     S
C135   H136    1.115   .     S
C135   H137    1.110   .     S
C135   H212    1.110   .     S
O139   C140    1.414   .     S
C140   H142    1.115   .     S
C140   H143    1.105   .     S
C140   H141    1.112   .     S
O144   C760    1.396   1_554 S
C145   H148    1.109   .     S
C145   O218    1.411   .     S
C145   H812    1.111   1_554 S
C145   H887    1.114   1_554 S
H146   C811    1.111   .     S
H147   C737    1.114   .     S
O149   C151    1.281   .     A
O149   Zn155   1.989   .     S
O150   Zn156   1.998   .     S
O150   C151    1.285   .     A
C151   C191    1.415   .     S
O152   Zn155   1.969   .     S
O152   C154    1.291   .     A
O153   Zn156   1.934   .     S
O153   C154    1.293   .     A
C154   C178    1.457   .     S
Zn155  O159    1.934   .     S
Zn155  O157    1.998   .     S
Zn155  N195    2.012   .     S
Zn156  O160    1.969   .     S
Zn156  N199    2.012   .     S
Zn156  O158    1.989   .     S
O157   C161    1.285   .     A
O158   C161    1.281   .     A
O159   C162    1.289   .     A
O160   C162    1.296   .     A
C161   C186    1.414   .     S
C162   C166    1.455   .     S
C163   C177    1.395   .     A
C163   H831    1.083   1_554 S
C163   C839    1.409   1_554 S
H164   C177    1.083   .     S
H165   C829    1.083   .     S
C166   C176    1.393   .     A
C166   C177    1.398   .     A
C167   H180    1.081   .     S
C167   C178    1.402   .     A
C167   C168    1.405   .     A
C168   C835    1.403   .     S
C168   O884    1.396   .     S
C169   O213    1.382   .     S
C169   C834    1.403   1_554 S
C169   C836    1.424   1_554 S
C170   C171    1.401   .     A
C170   C835    1.424   .     S
C170   C838    1.414   .     S
C171   C175    1.415   .     A
C171   C178    1.411   .     A
C172   C176    1.390   .     A
C172   C836    1.414   1_554 S
C172   C839    1.419   1_554 S
C173   C174    1.401   .     A
C173   C829    1.409   .     S
C173   C838    1.419   .     S
C174   C175    1.399   .     A
C174   O208    1.384   .     S
C175   H181    1.081   .     S
C176   H179    1.082   .     S
C182   H183    1.084   .     S
C182   C191    1.394   .     A
C182   C406    1.371   .     S
C184   C186    1.397   .     A
C184   H185    1.084   .     S
C184   C626    1.371   1_545 S
C186   C187    1.395   .     A
C187   H188    1.084   .     S
C187   C633    1.371   1_545 S
C189   H190    1.084   .     S
C189   C191    1.398   .     A
C189   C409    1.371   .     S
C192   H193    1.082   .     S
C192   N199    1.356   .     A
C192   C46     1.414   1_655 S
C194   N200    1.431   .     S
C194   N195    1.380   .     A
N195   C196    1.362   .     A
C196   H197    1.080   .     S
C198   O203    1.390   .     S
C198   N199    1.373   .     A
C198   C48     1.433   1_655 S
N200   O202    1.301   .     A
N200   O201    1.299   .     A
O203   C204    1.412   .     S
C204   H206    1.115   .     S
C204   H207    1.111   .     S
C204   H205    1.109   .     S
O208   C209    1.410   .     S
C209   H210    1.115   .     S
C209   H211    1.110   .     S
C209   H64     1.110   1_655 S
O213   C214    1.414   .     S
C214   H216    1.115   .     S
C214   H217    1.105   .     S
C214   H215    1.112   .     S
O218   C834    1.396   1_554 S
C219   H222    1.109   .     S
C219   O70     1.411   1_655 S
C219   H886    1.111   1_554 S
C219   H739    1.114   1_654 S
H220   C885    1.111   .     S
H221   C811    1.114   .     S
O223   C225    1.281   .     A
O223   Zn229   1.989   .     S
O224   Zn230   1.998   .     S
O224   C225    1.285   .     A
C225   C265    1.415   .     S
O226   Zn229   1.969   .     S
O226   C228    1.291   .     A
O227   Zn230   1.934   .     S
O227   C228    1.293   .     A
C228   C252    1.457   .     S
Zn229  O233    1.934   .     S
Zn229  O231    1.998   .     S
Zn229  N269    2.012   .     S
Zn230  O234    1.969   .     S
Zn230  N273    2.012   .     S
Zn230  O232    1.989   .     S
O231   C235    1.285   .     A
O232   C235    1.281   .     A
O233   C236    1.289   .     A
O234   C236    1.296   .     A
C235   C260    1.414   .     S
C236   C240    1.455   .     S
C237   C251    1.395   .     A
C237   H905    1.083   1_554 S
C237   C913    1.409   1_554 S
H238   C251    1.083   .     S
H239   C903    1.083   .     S
C240   C250    1.393   .     A
C240   C251    1.398   .     A
C241   H254    1.081   .     S
C241   C252    1.402   .     A
C241   C242    1.405   .     A
C242   C909    1.403   .     S
C242   O958    1.396   .     S
C243   O287    1.382   .     S
C243   C908    1.403   1_554 S
C243   C910    1.424   1_554 S
C244   C245    1.401   .     A
C244   C909    1.424   .     S
C244   C912    1.414   .     S
C245   C249    1.415   .     A
C245   C252    1.411   .     A
C246   C250    1.390   .     A
C246   C910    1.414   1_554 S
C246   C913    1.419   1_554 S
C247   C248    1.401   .     A
C247   C903    1.409   .     S
C247   C912    1.419   .     S
C248   C249    1.399   .     A
C248   O282    1.384   .     S
C249   H255    1.081   .     S
C250   H253    1.082   .     S
C256   H257    1.084   .     S
C256   C265    1.394   .     A
C256   C480    1.371   .     S
C258   C260    1.397   .     A
C258   H259    1.084   .     S
C260   C261    1.395   .     A
C261   H262    1.084   .     S
C263   H264    1.084   .     S
C263   C265    1.398   .     A
C263   C483    1.371   .     S
C266   H267    1.082   .     S
C266   N273    1.356   .     A
C266   C342    1.414   .     S
C268   N274    1.431   .     S
C268   N269    1.380   .     A
C268   C414    1.414   1_455 S
N269   C270    1.362   .     A
C270   H271    1.080   .     S
C270   C420    1.433   1_455 S
C272   O277    1.390   .     S
C272   N273    1.373   .     A
C272   C344    1.433   .     S
N274   O276    1.301   .     A
N274   O275    1.299   .     A
O277   C278    1.412   .     S
C278   H280    1.115   .     S
C278   H281    1.111   .     S
C278   H279    1.109   .     S
O282   C283    1.410   .     S
C283   H284    1.115   .     S
C283   H285    1.110   .     S
C283   H360    1.110   .     S
H286   C431    1.110   1_455 S
O287   C288    1.414   .     S
C288   H290    1.115   .     S
C288   H291    1.105   .     S
C288   H289    1.112   .     S
O292   C908    1.396   1_554 S
O292   C441    1.411   1_455 S
C293   H296    1.109   .     S
C293   O366    1.411   .     S
C293   H960    1.111   1_554 S
C293   H1035   1.114   1_554 S
H294   C959    1.111   .     S
H295   C1107   1.114   1_455 S
O297   C299    1.281   .     A
O297   Zn303   1.989   .     S
O298   Zn304   1.998   .     S
O298   C299    1.285   .     A
C299   C339    1.415   .     S
O300   Zn303   1.969   .     S
O300   C302    1.291   .     A
O301   Zn304   1.934   .     S
O301   C302    1.293   .     A
C302   C326    1.457   .     S
Zn303  O307    1.934   .     S
Zn303  O305    1.998   .     S
Zn303  N343    2.012   .     S
Zn304  O308    1.969   .     S
Zn304  N347    2.012   .     S
Zn304  O306    1.989   .     S
O305   C309    1.285   .     A
O306   C309    1.281   .     A
O307   C310    1.289   .     A
O308   C310    1.296   .     A
C309   C334    1.414   .     S
C310   C314    1.455   .     S
C311   C325    1.395   .     A
C311   H979    1.083   1_554 S
C311   C987    1.409   1_554 S
H312   C325    1.083   .     S
H313   C977    1.083   .     S
C314   C324    1.393   .     A
C314   C325    1.398   .     A
C315   H328    1.081   .     S
C315   C326    1.402   .     A
C315   C316    1.405   .     A
C316   C983    1.403   .     S
C316   O1032   1.396   .     S
C317   O361    1.382   .     S
C317   C982    1.403   1_554 S
C317   C984    1.424   1_554 S
C318   C319    1.401   .     A
C318   C983    1.424   .     S
C318   C986    1.414   .     S
C319   C323    1.415   .     A
C319   C326    1.411   .     A
C320   C324    1.390   .     A
C320   C984    1.414   1_554 S
C320   C987    1.419   1_554 S
C321   C322    1.401   .     A
C321   C977    1.409   .     S
C321   C986    1.419   .     S
C322   C323    1.399   .     A
C322   O356    1.384   .     S
C323   H329    1.081   .     S
C324   H327    1.082   .     S
C330   H331    1.084   .     S
C330   C339    1.394   .     A
C330   C554    1.371   .     S
C332   C334    1.397   .     A
C332   H333    1.084   .     S
C334   C335    1.395   .     A
C335   H336    1.084   .     S
C337   H338    1.084   .     S
C337   C339    1.398   .     A
C337   C557    1.371   .     S
C340   H341    1.082   .     S
C340   N347    1.356   .     A
C340   C416    1.414   .     S
C342   N348    1.431   .     S
C342   N343    1.380   .     A
N343   C344    1.362   .     A
C344   H345    1.080   .     S
C346   O351    1.390   .     S
C346   N347    1.373   .     A
C346   C418    1.433   .     S
N348   O350    1.301   .     A
N348   O349    1.299   .     A
O351   C352    1.412   .     S
C352   H354    1.115   .     S
C352   H355    1.111   .     S
C352   H353    1.109   .     S
O356   C357    1.410   .     S
C357   H358    1.115   .     S
C357   H359    1.110   .     S
C357   H434    1.110   .     S
O361   C362    1.414   .     S
C362   H364    1.115   .     S
C362   H365    1.105   .     S
C362   H363    1.112   .     S
O366   C982    1.396   1_554 S
C367   H370    1.109   .     S
C367   O440    1.411   .     S
C367   H1034   1.111   1_554 S
C367   H1109   1.114   1_554 S
H368   C1033   1.111   .     S
H369   C959    1.114   .     S
O371   C373    1.281   .     A
O371   Zn377   1.989   .     S
O372   Zn378   1.998   .     S
O372   C373    1.285   .     A
C373   C413    1.415   .     S
O374   Zn377   1.969   .     S
O374   C376    1.291   .     A
O375   Zn378   1.934   .     S
O375   C376    1.293   .     A
C376   C400    1.457   .     S
Zn377  O381    1.934   .     S
Zn377  O379    1.998   .     S
Zn377  N417    2.012   .     S
Zn378  O382    1.969   .     S
Zn378  N421    2.012   .     S
Zn378  O380    1.989   .     S
O379   C383    1.285   .     A
O380   C383    1.281   .     A
O381   C384    1.289   .     A
O382   C384    1.296   .     A
C383   C408    1.414   .     S
C384   C388    1.455   .     S
C385   C399    1.395   .     A
C385   H1053   1.083   1_554 S
C385   C1061   1.409   1_554 S
H386   C399    1.083   .     S
H387   C1051   1.083   .     S
C388   C398    1.393   .     A
C388   C399    1.398   .     A
C389   H402    1.081   .     S
C389   C400    1.402   .     A
C389   C390    1.405   .     A
C390   C1057   1.403   .     S
C390   O1106   1.396   .     S
C391   O435    1.382   .     S
C391   C1056   1.403   1_554 S
C391   C1058   1.424   1_554 S
C392   C393    1.401   .     A
C392   C1057   1.424   .     S
C392   C1060   1.414   .     S
C393   C397    1.415   .     A
C393   C400    1.411   .     A
C394   C398    1.390   .     A
C394   C1058   1.414   1_554 S
C394   C1061   1.419   1_554 S
C395   C396    1.401   .     A
C395   C1051   1.409   .     S
C395   C1060   1.419   .     S
C396   C397    1.399   .     A
C396   O430    1.384   .     S
C397   H403    1.081   .     S
C398   H401    1.082   .     S
C404   H405    1.084   .     S
C404   C413    1.394   .     A
C404   C628    1.371   .     S
C406   C408    1.397   .     A
C406   H407    1.084   .     S
C408   C409    1.395   .     A
C409   H410    1.084   .     S
C411   H412    1.084   .     S
C411   C413    1.398   .     A
C411   C631    1.371   .     S
C414   H415    1.082   .     S
C414   N421    1.356   .     A
C414   C268    1.414   1_655 S
C416   N422    1.431   .     S
C416   N417    1.380   .     A
N417   C418    1.362   .     A
C418   H419    1.080   .     S
C420   O425    1.390   .     S
C420   N421    1.373   .     A
C420   C270    1.433   1_655 S
N422   O424    1.301   .     A
N422   O423    1.299   .     A
O425   C426    1.412   .     S
C426   H428    1.115   .     S
C426   H429    1.111   .     S
C426   H427    1.109   .     S
O430   C431    1.410   .     S
C431   H432    1.115   .     S
C431   H433    1.110   .     S
C431   H286    1.110   1_655 S
O435   C436    1.414   .     S
C436   H438    1.115   .     S
C436   H439    1.105   .     S
C436   H437    1.112   .     S
O440   C1056   1.396   1_554 S
C441   H444    1.109   .     S
C441   O292    1.411   1_655 S
C441   H1108   1.111   1_554 S
C441   H961    1.114   1_654 S
H442   C1107   1.111   .     S
H443   C1033   1.114   .     S
O445   C447    1.281   .     A
O445   Zn451   1.989   .     S
O446   Zn452   1.998   .     S
O446   C447    1.285   .     A
C447   C487    1.415   .     S
O448   Zn451   1.969   .     S
O448   C450    1.291   .     A
O449   Zn452   1.934   .     S
O449   C450    1.293   .     A
C450   C474    1.457   .     S
Zn451  O455    1.934   .     S
Zn451  O453    1.998   .     S
Zn451  N491    2.012   .     S
Zn452  O456    1.969   .     S
Zn452  N495    2.012   .     S
Zn452  O454    1.989   .     S
O453   C457    1.285   .     A
O454   C457    1.281   .     A
O455   C458    1.289   .     A
O456   C458    1.296   .     A
C457   C482    1.414   .     S
C458   C462    1.455   .     S
C459   C473    1.395   .     A
C459   H1127   1.083   1_554 S
C459   C1135   1.409   1_554 S
H460   C473    1.083   .     S
H461   C1125   1.083   .     S
C462   C472    1.393   .     A
C462   C473    1.398   .     A
C463   H476    1.081   .     S
C463   C474    1.402   .     A
C463   C464    1.405   .     A
C464   C1131   1.403   .     S
C464   O1180   1.396   .     S
C465   O509    1.382   .     S
C465   C1130   1.403   1_554 S
C465   C1132   1.424   1_554 S
C466   C467    1.401   .     A
C466   C1131   1.424   .     S
C466   C1134   1.414   .     S
C467   C471    1.415   .     A
C467   C474    1.411   .     A
C468   C472    1.390   .     A
C468   C1132   1.414   1_554 S
C468   C1135   1.419   1_554 S
C469   C470    1.401   .     A
C469   C1125   1.409   .     S
C469   C1134   1.419   .     S
C470   C471    1.399   .     A
C470   O504    1.384   .     S
C471   H477    1.081   .     S
C472   H475    1.082   .     S
C478   H479    1.084   .     S
C478   C487    1.394   .     A
C478   C36     1.371   1_565 S
C480   C482    1.397   .     A
C480   H481    1.084   .     S
C482   C483    1.395   .     A
C483   H484    1.084   .     S
C485   H486    1.084   .     S
C485   C487    1.398   .     A
C485   C39     1.371   1_565 S
C488   H489    1.082   .     S
C488   N495    1.356   .     A
C488   C564    1.414   .     S
C490   N496    1.431   .     S
C490   N491    1.380   .     A
C490   C636    1.414   1_455 S
N491   C492    1.362   .     A
C492   H493    1.080   .     S
C492   C642    1.433   1_455 S
C494   O499    1.390   .     S
C494   N495    1.373   .     A
C494   C566    1.433   .     S
N496   O498    1.301   .     A
N496   O497    1.299   .     A
O499   C500    1.412   .     S
C500   H502    1.115   .     S
C500   H503    1.111   .     S
C500   H501    1.109   .     S
O504   C505    1.410   .     S
C505   H506    1.115   .     S
C505   H507    1.110   .     S
C505   H582    1.110   .     S
H508   C653    1.110   1_455 S
O509   C510    1.414   .     S
C510   H512    1.115   .     S
C510   H513    1.105   .     S
C510   H511    1.112   .     S
O514   C1130   1.396   1_554 S
O514   C663    1.411   1_455 S
C515   H518    1.109   .     S
C515   O588    1.411   .     S
C515   H1182   1.111   1_554 S
C515   H1257   1.114   1_554 S
H516   C1181   1.111   .     S
H517   C1329   1.114   1_455 S
O519   C521    1.281   .     A
O519   Zn525   1.989   .     S
O520   Zn526   1.998   .     S
O520   C521    1.285   .     A
C521   C561    1.415   .     S
O522   Zn525   1.969   .     S
O522   C524    1.291   .     A
O523   Zn526   1.934   .     S
O523   C524    1.293   .     A
C524   C548    1.457   .     S
Zn525  O529    1.934   .     S
Zn525  O527    1.998   .     S
Zn525  N565    2.012   .     S
Zn526  O530    1.969   .     S
Zn526  N569    2.012   .     S
Zn526  O528    1.989   .     S
O527   C531    1.285   .     A
O528   C531    1.281   .     A
O529   C532    1.289   .     A
O530   C532    1.296   .     A
C531   C556    1.414   .     S
C532   C536    1.455   .     S
C533   C547    1.395   .     A
C533   H1201   1.083   1_554 S
C533   C1209   1.409   1_554 S
H534   C547    1.083   .     S
H535   C1199   1.083   .     S
C536   C546    1.393   .     A
C536   C547    1.398   .     A
C537   H550    1.081   .     S
C537   C548    1.402   .     A
C537   C538    1.405   .     A
C538   C1205   1.403   .     S
C538   O1254   1.396   .     S
C539   O583    1.382   .     S
C539   C1204   1.403   1_554 S
C539   C1206   1.424   1_554 S
C540   C541    1.401   .     A
C540   C1205   1.424   .     S
C540   C1208   1.414   .     S
C541   C545    1.415   .     A
C541   C548    1.411   .     A
C542   C546    1.390   .     A
C542   C1206   1.414   1_554 S
C542   C1209   1.419   1_554 S
C543   C544    1.401   .     A
C543   C1199   1.409   .     S
C543   C1208   1.419   .     S
C544   C545    1.399   .     A
C544   O578    1.384   .     S
C545   H551    1.081   .     S
C546   H549    1.082   .     S
C552   H553    1.084   .     S
C552   C561    1.394   .     A
C552   C110    1.371   1_565 S
C554   C556    1.397   .     A
C554   H555    1.084   .     S
C556   C557    1.395   .     A
C557   H558    1.084   .     S
C559   H560    1.084   .     S
C559   C561    1.398   .     A
C559   C113    1.371   1_565 S
C562   H563    1.082   .     S
C562   N569    1.356   .     A
C562   C638    1.414   .     S
C564   N570    1.431   .     S
C564   N565    1.380   .     A
N565   C566    1.362   .     A
C566   H567    1.080   .     S
C568   O573    1.390   .     S
C568   N569    1.373   .     A
C568   C640    1.433   .     S
N570   O572    1.301   .     A
N570   O571    1.299   .     A
O573   C574    1.412   .     S
C574   H576    1.115   .     S
C574   H577    1.111   .     S
C574   H575    1.109   .     S
O578   C579    1.410   .     S
C579   H580    1.115   .     S
C579   H581    1.110   .     S
C579   H656    1.110   .     S
O583   C584    1.414   .     S
C584   H586    1.115   .     S
C584   H587    1.105   .     S
C584   H585    1.112   .     S
O588   C1204   1.396   1_554 S
C589   H592    1.109   .     S
C589   O662    1.411   .     S
C589   H1256   1.111   1_554 S
C589   H1331   1.114   1_554 S
H590   C1255   1.111   .     S
H591   C1181   1.114   .     S
O593   C595    1.281   .     A
O593   Zn599   1.989   .     S
O594   Zn600   1.998   .     S
O594   C595    1.285   .     A
C595   C635    1.415   .     S
O596   Zn599   1.969   .     S
O596   C598    1.291   .     A
O597   Zn600   1.934   .     S
O597   C598    1.293   .     A
C598   C622    1.457   .     S
Zn599  O603    1.934   .     S
Zn599  O601    1.998   .     S
Zn599  N639    2.012   .     S
Zn600  O604    1.969   .     S
Zn600  N643    2.012   .     S
Zn600  O602    1.989   .     S
O601   C605    1.285   .     A
O602   C605    1.281   .     A
O603   C606    1.289   .     A
O604   C606    1.296   .     A
C605   C630    1.414   .     S
C606   C610    1.455   .     S
C607   C621    1.395   .     A
C607   H1275   1.083   1_554 S
C607   C1283   1.409   1_554 S
H608   C621    1.083   .     S
H609   C1273   1.083   .     S
C610   C620    1.393   .     A
C610   C621    1.398   .     A
C611   H624    1.081   .     S
C611   C622    1.402   .     A
C611   C612    1.405   .     A
C612   C1279   1.403   .     S
C612   O1328   1.396   .     S
C613   O657    1.382   .     S
C613   C1278   1.403   1_554 S
C613   C1280   1.424   1_554 S
C614   C615    1.401   .     A
C614   C1279   1.424   .     S
C614   C1282   1.414   .     S
C615   C619    1.415   .     A
C615   C622    1.411   .     A
C616   C620    1.390   .     A
C616   C1280   1.414   1_554 S
C616   C1283   1.419   1_554 S
C617   C618    1.401   .     A
C617   C1273   1.409   .     S
C617   C1282   1.419   .     S
C618   C619    1.399   .     A
C618   O652    1.384   .     S
C619   H625    1.081   .     S
C620   H623    1.082   .     S
C626   H627    1.084   .     S
C626   C635    1.394   .     A
C626   C184    1.371   1_565 S
C628   C630    1.397   .     A
C628   H629    1.084   .     S
C630   C631    1.395   .     A
C631   H632    1.084   .     S
C633   H634    1.084   .     S
C633   C635    1.398   .     A
C633   C187    1.371   1_565 S
C636   H637    1.082   .     S
C636   N643    1.356   .     A
C636   C490    1.414   1_655 S
C638   N644    1.431   .     S
C638   N639    1.380   .     A
N639   C640    1.362   .     A
C640   H641    1.080   .     S
C642   O647    1.390   .     S
C642   N643    1.373   .     A
C642   C492    1.433   1_655 S
N644   O646    1.301   .     A
N644   O645    1.299   .     A
O647   C648    1.412   .     S
C648   H650    1.115   .     S
C648   H651    1.111   .     S
C648   H649    1.109   .     S
O652   C653    1.410   .     S
C653   H654    1.115   .     S
C653   H655    1.110   .     S
C653   H508    1.110   1_655 S
O657   C658    1.414   .     S
C658   H660    1.115   .     S
C658   H661    1.105   .     S
C658   H659    1.112   .     S
O662   C1278   1.396   1_554 S
C663   H666    1.109   .     S
C663   O514    1.411   1_655 S
C663   H1330   1.111   1_554 S
C663   H1183   1.114   1_654 S
H664   C1329   1.111   .     S
H665   C1255   1.114   .     S
O667   C669    1.281   .     A
O667   Zn673   1.989   .     S
O668   Zn674   1.998   .     S
O668   C669    1.285   .     A
C669   C709    1.415   .     S
O670   Zn673   1.969   .     S
O670   C672    1.291   .     A
O671   Zn674   1.934   .     S
O671   C672    1.293   .     A
C672   C696    1.457   .     S
Zn673  O677    1.934   .     S
Zn673  O675    1.998   .     S
Zn673  N713    2.012   .     S
Zn674  O678    1.969   .     S
Zn674  N717    2.012   .     S
Zn674  O676    1.989   .     S
O675   C679    1.285   .     A
O676   C679    1.281   .     A
O677   C680    1.289   .     A
O678   C680    1.296   .     A
C679   C704    1.414   .     S
C680   C684    1.455   .     S
C681   C695    1.395   .     A
H682   C695    1.083   .     S
H683   C15     1.083   1_556 S
C684   C694    1.393   .     A
C684   C695    1.398   .     A
C685   H698    1.081   .     S
C685   C696    1.402   .     A
C685   C686    1.405   .     A
C686   C21     1.403   1_556 S
C686   O70     1.396   1_556 S
C687   O731    1.382   .     S
C688   C689    1.401   .     A
C688   C21     1.424   1_556 S
C688   C24     1.414   1_556 S
C689   C693    1.415   .     A
C689   C696    1.411   .     A
C690   C694    1.390   .     A
C691   C692    1.401   .     A
C691   C15     1.409   1_556 S
C691   C24     1.419   1_556 S
C692   C693    1.399   .     A
C692   O726    1.384   .     S
C693   H699    1.081   .     S
C694   H697    1.082   .     S
C700   H701    1.084   .     S
C700   C709    1.394   .     A
C700   C924    1.371   .     S
C702   C704    1.397   .     A
C702   H703    1.084   .     S
C702   C1144   1.371   1_545 S
C704   C705    1.395   .     A
C705   H706    1.084   .     S
C705   C1151   1.371   1_545 S
C707   H708    1.084   .     S
C707   C709    1.398   .     A
C707   C927    1.371   .     S
C710   H711    1.082   .     S
C710   N717    1.356   .     A
C710   C786    1.414   .     S
C712   N718    1.431   .     S
C712   N713    1.380   .     A
C712   C858    1.414   1_455 S
N713   C714    1.362   .     A
C714   H715    1.080   .     S
C714   C864    1.433   1_455 S
C716   O721    1.390   .     S
C716   N717    1.373   .     A
C716   C788    1.433   .     S
N718   O720    1.301   .     A
N718   O719    1.299   .     A
O721   C722    1.412   .     S
C722   H724    1.115   .     S
C722   H725    1.111   .     S
C722   H723    1.109   .     S
O726   C727    1.410   .     S
C727   H728    1.115   .     S
C727   H729    1.110   .     S
C727   H804    1.110   .     S
H730   C875    1.110   1_455 S
O731   C732    1.414   .     S
C732   H734    1.115   .     S
C732   H735    1.105   .     S
C732   H733    1.112   .     S
O736   C885    1.411   1_455 S
C737   H740    1.109   .     S
C737   O810    1.411   .     S
H738   C71     1.111   1_556 S
H739   C219    1.114   1_456 S
O741   C743    1.281   .     A
O741   Zn747   1.989   .     S
O742   Zn748   1.998   .     S
O742   C743    1.285   .     A
C743   C783    1.415   .     S
O744   Zn747   1.969   .     S
O744   C746    1.291   .     A
O745   Zn748   1.934   .     S
O745   C746    1.293   .     A
C746   C770    1.457   .     S
Zn747  O751    1.934   .     S
Zn747  O749    1.998   .     S
Zn747  N787    2.012   .     S
Zn748  O752    1.969   .     S
Zn748  N791    2.012   .     S
Zn748  O750    1.989   .     S
O749   C753    1.285   .     A
O750   C753    1.281   .     A
O751   C754    1.289   .     A
O752   C754    1.296   .     A
C753   C778    1.414   .     S
C754   C758    1.455   .     S
C755   C769    1.395   .     A
H756   C769    1.083   .     S
H757   C89     1.083   1_556 S
C758   C768    1.393   .     A
C758   C769    1.398   .     A
C759   H772    1.081   .     S
C759   C770    1.402   .     A
C759   C760    1.405   .     A
C760   C95     1.403   1_556 S
C760   O144    1.396   1_556 S
C761   O805    1.382   .     S
C762   C763    1.401   .     A
C762   C95     1.424   1_556 S
C762   C98     1.414   1_556 S
C763   C767    1.415   .     A
C763   C770    1.411   .     A
C764   C768    1.390   .     A
C765   C766    1.401   .     A
C765   C89     1.409   1_556 S
C765   C98     1.419   1_556 S
C766   C767    1.399   .     A
C766   O800    1.384   .     S
C767   H773    1.081   .     S
C768   H771    1.082   .     S
C774   H775    1.084   .     S
C774   C783    1.394   .     A
C774   C998    1.371   .     S
C776   C778    1.397   .     A
C776   H777    1.084   .     S
C776   C1218   1.371   1_545 S
C778   C779    1.395   .     A
C779   H780    1.084   .     S
C779   C1225   1.371   1_545 S
C781   H782    1.084   .     S
C781   C783    1.398   .     A
C781   C1001   1.371   .     S
C784   H785    1.082   .     S
C784   N791    1.356   .     A
C784   C860    1.414   .     S
C786   N792    1.431   .     S
C786   N787    1.380   .     A
N787   C788    1.362   .     A
C788   H789    1.080   .     S
C790   O795    1.390   .     S
C790   N791    1.373   .     A
C790   C862    1.433   .     S
N792   O794    1.301   .     A
N792   O793    1.299   .     A
O795   C796    1.412   .     S
C796   H798    1.115   .     S
C796   H799    1.111   .     S
C796   H797    1.109   .     S
O800   C801    1.410   .     S
C801   H802    1.115   .     S
C801   H803    1.110   .     S
C801   H878    1.110   .     S
O805   C806    1.414   .     S
C806   H808    1.115   .     S
C806   H809    1.105   .     S
C806   H807    1.112   .     S
C811   H814    1.109   .     S
C811   O884    1.411   .     S
H812   C145    1.111   1_556 S
H813   C71     1.114   1_556 S
O815   C817    1.281   .     A
O815   Zn821   1.989   .     S
O816   Zn822   1.998   .     S
O816   C817    1.285   .     A
C817   C857    1.415   .     S
O818   Zn821   1.969   .     S
O818   C820    1.291   .     A
O819   Zn822   1.934   .     S
O819   C820    1.293   .     A
C820   C844    1.457   .     S
Zn821  O825    1.934   .     S
Zn821  O823    1.998   .     S
Zn821  N861    2.012   .     S
Zn822  O826    1.969   .     S
Zn822  N865    2.012   .     S
Zn822  O824    1.989   .     S
O823   C827    1.285   .     A
O824   C827    1.281   .     A
O825   C828    1.289   .     A
O826   C828    1.296   .     A
C827   C852    1.414   .     S
C828   C832    1.455   .     S
C829   C843    1.395   .     A
H830   C843    1.083   .     S
H831   C163    1.083   1_556 S
C832   C842    1.393   .     A
C832   C843    1.398   .     A
C833   H846    1.081   .     S
C833   C844    1.402   .     A
C833   C834    1.405   .     A
C834   C169    1.403   1_556 S
C834   O218    1.396   1_556 S
C835   O879    1.382   .     S
C836   C837    1.401   .     A
C836   C169    1.424   1_556 S
C836   C172    1.414   1_556 S
C837   C841    1.415   .     A
C837   C844    1.411   .     A
C838   C842    1.390   .     A
C839   C840    1.401   .     A
C839   C163    1.409   1_556 S
C839   C172    1.419   1_556 S
C840   C841    1.399   .     A
C840   O874    1.384   .     S
C841   H847    1.081   .     S
C842   H845    1.082   .     S
C848   H849    1.084   .     S
C848   C857    1.394   .     A
C848   C1072   1.371   .     S
C850   C852    1.397   .     A
C850   H851    1.084   .     S
C850   C1292   1.371   1_545 S
C852   C853    1.395   .     A
C853   H854    1.084   .     S
C853   C1299   1.371   1_545 S
C855   H856    1.084   .     S
C855   C857    1.398   .     A
C855   C1075   1.371   .     S
C858   H859    1.082   .     S
C858   N865    1.356   .     A
C858   C712    1.414   1_655 S
C860   N866    1.431   .     S
C860   N861    1.380   .     A
N861   C862    1.362   .     A
C862   H863    1.080   .     S
C864   O869    1.390   .     S
C864   N865    1.373   .     A
C864   C714    1.433   1_655 S
N866   O868    1.301   .     A
N866   O867    1.299   .     A
O869   C870    1.412   .     S
C870   H872    1.115   .     S
C870   H873    1.111   .     S
C870   H871    1.109   .     S
O874   C875    1.410   .     S
C875   H876    1.115   .     S
C875   H877    1.110   .     S
C875   H730    1.110   1_655 S
O879   C880    1.414   .     S
C880   H882    1.115   .     S
C880   H883    1.105   .     S
C880   H881    1.112   .     S
C885   H888    1.109   .     S
C885   O736    1.411   1_655 S
C885   H73     1.114   1_655 S
H886   C219    1.111   1_556 S
H887   C145    1.114   1_556 S
O889   C891    1.281   .     A
O889   Zn895   1.989   .     S
O890   Zn896   1.998   .     S
O890   C891    1.285   .     A
C891   C931    1.415   .     S
O892   Zn895   1.969   .     S
O892   C894    1.291   .     A
O893   Zn896   1.934   .     S
O893   C894    1.293   .     A
C894   C918    1.457   .     S
Zn895  O899    1.934   .     S
Zn895  O897    1.998   .     S
Zn895  N935    2.012   .     S
Zn896  O900    1.969   .     S
Zn896  N939    2.012   .     S
Zn896  O898    1.989   .     S
O897   C901    1.285   .     A
O898   C901    1.281   .     A
O899   C902    1.289   .     A
O900   C902    1.296   .     A
C901   C926    1.414   .     S
C902   C906    1.455   .     S
C903   C917    1.395   .     A
H904   C917    1.083   .     S
H905   C237    1.083   1_556 S
C906   C916    1.393   .     A
C906   C917    1.398   .     A
C907   H920    1.081   .     S
C907   C918    1.402   .     A
C907   C908    1.405   .     A
C908   C243    1.403   1_556 S
C908   O292    1.396   1_556 S
C909   O953    1.382   .     S
C910   C911    1.401   .     A
C910   C243    1.424   1_556 S
C910   C246    1.414   1_556 S
C911   C915    1.415   .     A
C911   C918    1.411   .     A
C912   C916    1.390   .     A
C913   C914    1.401   .     A
C913   C237    1.409   1_556 S
C913   C246    1.419   1_556 S
C914   C915    1.399   .     A
C914   O948    1.384   .     S
C915   H921    1.081   .     S
C916   H919    1.082   .     S
C922   H923    1.084   .     S
C922   C931    1.394   .     A
C922   C1146   1.371   .     S
C924   C926    1.397   .     A
C924   H925    1.084   .     S
C926   C927    1.395   .     A
C927   H928    1.084   .     S
C929   H930    1.084   .     S
C929   C931    1.398   .     A
C929   C1149   1.371   .     S
C932   H933    1.082   .     S
C932   N939    1.356   .     A
C932   C1008   1.414   .     S
C934   N940    1.431   .     S
C934   N935    1.380   .     A
C934   C1080   1.414   1_455 S
N935   C936    1.362   .     A
C936   H937    1.080   .     S
C936   C1086   1.433   1_455 S
C938   O943    1.390   .     S
C938   N939    1.373   .     A
C938   C1010   1.433   .     S
N940   O942    1.301   .     A
N940   O941    1.299   .     A
O943   C944    1.412   .     S
C944   H946    1.115   .     S
C944   H947    1.111   .     S
C944   H945    1.109   .     S
O948   C949    1.410   .     S
C949   H950    1.115   .     S
C949   H951    1.110   .     S
C949   H1026   1.110   .     S
H952   C1097   1.110   1_455 S
O953   C954    1.414   .     S
C954   H956    1.115   .     S
C954   H957    1.105   .     S
C954   H955    1.112   .     S
O958   C1107   1.411   1_455 S
C959   H962    1.109   .     S
C959   O1032   1.411   .     S
H960   C293    1.111   1_556 S
H961   C441    1.114   1_456 S
O963   C965    1.281   .     A
O963   Zn969   1.989   .     S
O964   Zn970   1.998   .     S
O964   C965    1.285   .     A
C965   C1005   1.415   .     S
O966   Zn969   1.969   .     S
O966   C968    1.291   .     A
O967   Zn970   1.934   .     S
O967   C968    1.293   .     A
C968   C992    1.457   .     S
Zn969  O973    1.934   .     S
Zn969  O971    1.998   .     S
Zn969  N1009   2.012   .     S
Zn970  O974    1.969   .     S
Zn970  N1013   2.012   .     S
Zn970  O972    1.989   .     S
O971   C975    1.285   .     A
O972   C975    1.281   .     A
O973   C976    1.289   .     A
O974   C976    1.296   .     A
C975   C1000   1.414   .     S
C976   C980    1.455   .     S
C977   C991    1.395   .     A
H978   C991    1.083   .     S
H979   C311    1.083   1_556 S
C980   C990    1.393   .     A
C980   C991    1.398   .     A
C981   H994    1.081   .     S
C981   C992    1.402   .     A
C981   C982    1.405   .     A
C982   C317    1.403   1_556 S
C982   O366    1.396   1_556 S
C983   O1027   1.382   .     S
C984   C985    1.401   .     A
C984   C317    1.424   1_556 S
C984   C320    1.414   1_556 S
C985   C989    1.415   .     A
C985   C992    1.411   .     A
C986   C990    1.390   .     A
C987   C988    1.401   .     A
C987   C311    1.409   1_556 S
C987   C320    1.419   1_556 S
C988   C989    1.399   .     A
C988   O1022   1.384   .     S
C989   H995    1.081   .     S
C990   H993    1.082   .     S
C996   H997    1.084   .     S
C996   C1005   1.394   .     A
C996   C1220   1.371   .     S
C998   C1000   1.397   .     A
C998   H999    1.084   .     S
C1000  C1001   1.395   .     A
C1001  H1002   1.084   .     S
C1003  H1004   1.084   .     S
C1003  C1005   1.398   .     A
C1003  C1223   1.371   .     S
C1006  H1007   1.082   .     S
C1006  N1013   1.356   .     A
C1006  C1082   1.414   .     S
C1008  N1014   1.431   .     S
C1008  N1009   1.380   .     A
N1009  C1010   1.362   .     A
C1010  H1011   1.080   .     S
C1012  O1017   1.390   .     S
C1012  N1013   1.373   .     A
C1012  C1084   1.433   .     S
N1014  O1016   1.301   .     A
N1014  O1015   1.299   .     A
O1017  C1018   1.412   .     S
C1018  H1020   1.115   .     S
C1018  H1021   1.111   .     S
C1018  H1019   1.109   .     S
O1022  C1023   1.410   .     S
C1023  H1024   1.115   .     S
C1023  H1025   1.110   .     S
C1023  H1100   1.110   .     S
O1027  C1028   1.414   .     S
C1028  H1030   1.115   .     S
C1028  H1031   1.105   .     S
C1028  H1029   1.112   .     S
C1033  H1036   1.109   .     S
C1033  O1106   1.411   .     S
H1034  C367    1.111   1_556 S
H1035  C293    1.114   1_556 S
O1037  C1039   1.281   .     A
O1037  Zn1043  1.989   .     S
O1038  Zn1044  1.998   .     S
O1038  C1039   1.285   .     A
C1039  C1079   1.415   .     S
O1040  Zn1043  1.969   .     S
O1040  C1042   1.291   .     A
O1041  Zn1044  1.934   .     S
O1041  C1042   1.293   .     A
C1042  C1066   1.457   .     S
Zn1043 O1047   1.934   .     S
Zn1043 O1045   1.998   .     S
Zn1043 N1083   2.012   .     S
Zn1044 O1048   1.969   .     S
Zn1044 N1087   2.012   .     S
Zn1044 O1046   1.989   .     S
O1045  C1049   1.285   .     A
O1046  C1049   1.281   .     A
O1047  C1050   1.289   .     A
O1048  C1050   1.296   .     A
C1049  C1074   1.414   .     S
C1050  C1054   1.455   .     S
C1051  C1065   1.395   .     A
H1052  C1065   1.083   .     S
H1053  C385    1.083   1_556 S
C1054  C1064   1.393   .     A
C1054  C1065   1.398   .     A
C1055  H1068   1.081   .     S
C1055  C1066   1.402   .     A
C1055  C1056   1.405   .     A
C1056  C391    1.403   1_556 S
C1056  O440    1.396   1_556 S
C1057  O1101   1.382   .     S
C1058  C1059   1.401   .     A
C1058  C391    1.424   1_556 S
C1058  C394    1.414   1_556 S
C1059  C1063   1.415   .     A
C1059  C1066   1.411   .     A
C1060  C1064   1.390   .     A
C1061  C1062   1.401   .     A
C1061  C385    1.409   1_556 S
C1061  C394    1.419   1_556 S
C1062  C1063   1.399   .     A
C1062  O1096   1.384   .     S
C1063  H1069   1.081   .     S
C1064  H1067   1.082   .     S
C1070  H1071   1.084   .     S
C1070  C1079   1.394   .     A
C1070  C1294   1.371   .     S
C1072  C1074   1.397   .     A
C1072  H1073   1.084   .     S
C1074  C1075   1.395   .     A
C1075  H1076   1.084   .     S
C1077  H1078   1.084   .     S
C1077  C1079   1.398   .     A
C1077  C1297   1.371   .     S
C1080  H1081   1.082   .     S
C1080  N1087   1.356   .     A
C1080  C934    1.414   1_655 S
C1082  N1088   1.431   .     S
C1082  N1083   1.380   .     A
N1083  C1084   1.362   .     A
C1084  H1085   1.080   .     S
C1086  O1091   1.390   .     S
C1086  N1087   1.373   .     A
C1086  C936    1.433   1_655 S
N1088  O1090   1.301   .     A
N1088  O1089   1.299   .     A
O1091  C1092   1.412   .     S
C1092  H1094   1.115   .     S
C1092  H1095   1.111   .     S
C1092  H1093   1.109   .     S
O1096  C1097   1.410   .     S
C1097  H1098   1.115   .     S
C1097  H1099   1.110   .     S
C1097  H952    1.110   1_655 S
O1101  C1102   1.414   .     S
C1102  H1104   1.115   .     S
C1102  H1105   1.105   .     S
C1102  H1103   1.112   .     S
C1107  H1110   1.109   .     S
C1107  O958    1.411   1_655 S
C1107  H295    1.114   1_655 S
H1108  C441    1.111   1_556 S
H1109  C367    1.114   1_556 S
O1111  C1113   1.281   .     A
O1111  Zn1117  1.989   .     S
O1112  Zn1118  1.998   .     S
O1112  C1113   1.285   .     A
C1113  C1153   1.415   .     S
O1114  Zn1117  1.969   .     S
O1114  C1116   1.291   .     A
O1115  Zn1118  1.934   .     S
O1115  C1116   1.293   .     A
C1116  C1140   1.457   .     S
Zn1117 O1121   1.934   .     S
Zn1117 O1119   1.998   .     S
Zn1117 N1157   2.012   .     S
Zn1118 O1122   1.969   .     S
Zn1118 N1161   2.012   .     S
Zn1118 O1120   1.989   .     S
O1119  C1123   1.285   .     A
O1120  C1123   1.281   .     A
O1121  C1124   1.289   .     A
O1122  C1124   1.296   .     A
C1123  C1148   1.414   .     S
C1124  C1128   1.455   .     S
C1125  C1139   1.395   .     A
H1126  C1139   1.083   .     S
H1127  C459    1.083   1_556 S
C1128  C1138   1.393   .     A
C1128  C1139   1.398   .     A
C1129  H1142   1.081   .     S
C1129  C1140   1.402   .     A
C1129  C1130   1.405   .     A
C1130  C465    1.403   1_556 S
C1130  O514    1.396   1_556 S
C1131  O1175   1.382   .     S
C1132  C1133   1.401   .     A
C1132  C465    1.424   1_556 S
C1132  C468    1.414   1_556 S
C1133  C1137   1.415   .     A
C1133  C1140   1.411   .     A
C1134  C1138   1.390   .     A
C1135  C1136   1.401   .     A
C1135  C459    1.409   1_556 S
C1135  C468    1.419   1_556 S
C1136  C1137   1.399   .     A
C1136  O1170   1.384   .     S
C1137  H1143   1.081   .     S
C1138  H1141   1.082   .     S
C1144  H1145   1.084   .     S
C1144  C1153   1.394   .     A
C1144  C702    1.371   1_565 S
C1146  C1148   1.397   .     A
C1146  H1147   1.084   .     S
C1148  C1149   1.395   .     A
C1149  H1150   1.084   .     S
C1151  H1152   1.084   .     S
C1151  C1153   1.398   .     A
C1151  C705    1.371   1_565 S
C1154  H1155   1.082   .     S
C1154  N1161   1.356   .     A
C1154  C1230   1.414   .     S
C1156  N1162   1.431   .     S
C1156  N1157   1.380   .     A
C1156  C1302   1.414   1_455 S
N1157  C1158   1.362   .     A
C1158  H1159   1.080   .     S
C1158  C1308   1.433   1_455 S
C1160  O1165   1.390   .     S
C1160  N1161   1.373   .     A
C1160  C1232   1.433   .     S
N1162  O1164   1.301   .     A
N1162  O1163   1.299   .     A
O1165  C1166   1.412   .     S
C1166  H1168   1.115   .     S
C1166  H1169   1.111   .     S
C1166  H1167   1.109   .     S
O1170  C1171   1.410   .     S
C1171  H1172   1.115   .     S
C1171  H1173   1.110   .     S
C1171  H1248   1.110   .     S
H1174  C1319   1.110   1_455 S
O1175  C1176   1.414   .     S
C1176  H1178   1.115   .     S
C1176  H1179   1.105   .     S
C1176  H1177   1.112   .     S
O1180  C1329   1.411   1_455 S
C1181  H1184   1.109   .     S
C1181  O1254   1.411   .     S
H1182  C515    1.111   1_556 S
H1183  C663    1.114   1_456 S
O1185  C1187   1.281   .     A
O1185  Zn1191  1.989   .     S
O1186  Zn1192  1.998   .     S
O1186  C1187   1.285   .     A
C1187  C1227   1.415   .     S
O1188  Zn1191  1.969   .     S
O1188  C1190   1.291   .     A
O1189  Zn1192  1.934   .     S
O1189  C1190   1.293   .     A
C1190  C1214   1.457   .     S
Zn1191 O1195   1.934   .     S
Zn1191 O1193   1.998   .     S
Zn1191 N1231   2.012   .     S
Zn1192 O1196   1.969   .     S
Zn1192 N1235   2.012   .     S
Zn1192 O1194   1.989   .     S
O1193  C1197   1.285   .     A
O1194  C1197   1.281   .     A
O1195  C1198   1.289   .     A
O1196  C1198   1.296   .     A
C1197  C1222   1.414   .     S
C1198  C1202   1.455   .     S
C1199  C1213   1.395   .     A
H1200  C1213   1.083   .     S
H1201  C533    1.083   1_556 S
C1202  C1212   1.393   .     A
C1202  C1213   1.398   .     A
C1203  H1216   1.081   .     S
C1203  C1214   1.402   .     A
C1203  C1204   1.405   .     A
C1204  C539    1.403   1_556 S
C1204  O588    1.396   1_556 S
C1205  O1249   1.382   .     S
C1206  C1207   1.401   .     A
C1206  C539    1.424   1_556 S
C1206  C542    1.414   1_556 S
C1207  C1211   1.415   .     A
C1207  C1214   1.411   .     A
C1208  C1212   1.390   .     A
C1209  C1210   1.401   .     A
C1209  C533    1.409   1_556 S
C1209  C542    1.419   1_556 S
C1210  C1211   1.399   .     A
C1210  O1244   1.384   .     S
C1211  H1217   1.081   .     S
C1212  H1215   1.082   .     S
C1218  H1219   1.084   .     S
C1218  C1227   1.394   .     A
C1218  C776    1.371   1_565 S
C1220  C1222   1.397   .     A
C1220  H1221   1.084   .     S
C1222  C1223   1.395   .     A
C1223  H1224   1.084   .     S
C1225  H1226   1.084   .     S
C1225  C1227   1.398   .     A
C1225  C779    1.371   1_565 S
C1228  H1229   1.082   .     S
C1228  N1235   1.356   .     A
C1228  C1304   1.414   .     S
C1230  N1236   1.431   .     S
C1230  N1231   1.380   .     A
N1231  C1232   1.362   .     A
C1232  H1233   1.080   .     S
C1234  O1239   1.390   .     S
C1234  N1235   1.373   .     A
C1234  C1306   1.433   .     S
N1236  O1238   1.301   .     A
N1236  O1237   1.299   .     A
O1239  C1240   1.412   .     S
C1240  H1242   1.115   .     S
C1240  H1243   1.111   .     S
C1240  H1241   1.109   .     S
O1244  C1245   1.410   .     S
C1245  H1246   1.115   .     S
C1245  H1247   1.110   .     S
C1245  H1322   1.110   .     S
O1249  C1250   1.414   .     S
C1250  H1252   1.115   .     S
C1250  H1253   1.105   .     S
C1250  H1251   1.112   .     S
C1255  H1258   1.109   .     S
C1255  O1328   1.411   .     S
H1256  C589    1.111   1_556 S
H1257  C515    1.114   1_556 S
O1259  C1261   1.281   .     A
O1259  Zn1265  1.989   .     S
O1260  Zn1266  1.998   .     S
O1260  C1261   1.285   .     A
C1261  C1301   1.415   .     S
O1262  Zn1265  1.969   .     S
O1262  C1264   1.291   .     A
O1263  Zn1266  1.934   .     S
O1263  C1264   1.293   .     A
C1264  C1288   1.457   .     S
Zn1265 O1269   1.934   .     S
Zn1265 O1267   1.998   .     S
Zn1265 N1305   2.012   .     S
Zn1266 O1270   1.969   .     S
Zn1266 N1309   2.012   .     S
Zn1266 O1268   1.989   .     S
O1267  C1271   1.285   .     A
O1268  C1271   1.281   .     A
O1269  C1272   1.289   .     A
O1270  C1272   1.296   .     A
C1271  C1296   1.414   .     S
C1272  C1276   1.455   .     S
C1273  C1287   1.395   .     A
H1274  C1287   1.083   .     S
H1275  C607    1.083   1_556 S
C1276  C1286   1.393   .     A
C1276  C1287   1.398   .     A
C1277  H1290   1.081   .     S
C1277  C1288   1.402   .     A
C1277  C1278   1.405   .     A
C1278  C613    1.403   1_556 S
C1278  O662    1.396   1_556 S
C1279  O1323   1.382   .     S
C1280  C1281   1.401   .     A
C1280  C613    1.424   1_556 S
C1280  C616    1.414   1_556 S
C1281  C1285   1.415   .     A
C1281  C1288   1.411   .     A
C1282  C1286   1.390   .     A
C1283  C1284   1.401   .     A
C1283  C607    1.409   1_556 S
C1283  C616    1.419   1_556 S
C1284  C1285   1.399   .     A
C1284  O1318   1.384   .     S
C1285  H1291   1.081   .     S
C1286  H1289   1.082   .     S
C1292  H1293   1.084   .     S
C1292  C1301   1.394   .     A
C1292  C850    1.371   1_565 S
C1294  C1296   1.397   .     A
C1294  H1295   1.084   .     S
C1296  C1297   1.395   .     A
C1297  H1298   1.084   .     S
C1299  H1300   1.084   .     S
C1299  C1301   1.398   .     A
C1299  C853    1.371   1_565 S
C1302  H1303   1.082   .     S
C1302  N1309   1.356   .     A
C1302  C1156   1.414   1_655 S
C1304  N1310   1.431   .     S
C1304  N1305   1.380   .     A
N1305  C1306   1.362   .     A
C1306  H1307   1.080   .     S
C1308  O1313   1.390   .     S
C1308  N1309   1.373   .     A
C1308  C1158   1.433   1_655 S
N1310  O1312   1.301   .     A
N1310  O1311   1.299   .     A
O1313  C1314   1.412   .     S
C1314  H1316   1.115   .     S
C1314  H1317   1.111   .     S
C1314  H1315   1.109   .     S
O1318  C1319   1.410   .     S
C1319  H1320   1.115   .     S
C1319  H1321   1.110   .     S
C1319  H1174   1.110   1_655 S
O1323  C1324   1.414   .     S
C1324  H1326   1.115   .     S
C1324  H1327   1.105   .     S
C1324  H1325   1.112   .     S
C1329  H1332   1.109   .     S
C1329  O1180   1.411   1_655 S
C1329  H517    1.114   1_655 S
H1330  C663    1.111   1_556 S
H1331  C589    1.114   1_556 S
