data_str_m3_o1_o2_pcu_sym.114
_audit_creation_date              2020-01-03
_audit_creation_method            'Materials Studio'
_symmetry_space_group_name_H-M    'P1'
_symmetry_Int_Tables_number       1
_symmetry_cell_setting            triclinic
loop_
_symmetry_equiv_pos_as_xyz
  x,y,z
_cell_length_a                    31.8535
_cell_length_b                    29.9473
_cell_length_c                    29.9085
_cell_angle_alpha                 89.4959
_cell_angle_beta                  93.2609
_cell_angle_gamma                 90.5733
loop_
_atom_site_label
_atom_site_type_symbol
_atom_site_fract_x
_atom_site_fract_y
_atom_site_fract_z
_atom_site_U_iso_or_equiv
_atom_site_adp_type
_atom_site_occupancy
C1     C     0.08707   0.16640   0.25067   0.00000  Uiso   1.00
C2     C     0.24636   0.16688   0.24983   0.00000  Uiso   1.00
C3     C     0.16982   0.16688   0.16366   0.00000  Uiso   1.00
C4     C     0.16418   0.16639   0.33625   0.00000  Uiso   1.00
C5     C     0.19716   0.02396   0.27443   0.00000  Uiso   1.00
C6     C     0.13493   0.30922   0.22748   0.00000  Uiso   1.00
C7     C     0.13596   0.02375   0.22582   0.00000  Uiso   1.00
C8     C     0.19858   0.30952   0.27219   0.00000  Uiso   1.00
C9     C     0.02398   0.15790   0.29110   0.00000  Uiso   1.00
C10    C     0.30970   0.17427   0.20944   0.00000  Uiso   1.00
C11    C     0.31358   0.15962   0.29140   0.00000  Uiso   1.00
C12    C     0.02005   0.17309   0.20921   0.00000  Uiso   1.00
C13    C     0.20431   0.20631   0.04932   0.00000  Uiso   1.00
C14    C     0.19877   0.13133   0.45028   0.00000  Uiso   1.00
C15    C     0.17284   0.20653   0.45489   0.00000  Uiso   1.00
C16    C     0.18903   0.12776   0.04613   0.00000  Uiso   1.00
C17    C     0.19428   0.20765   0.09413   0.00000  Uiso   1.00
C18    C     0.17710   0.12656   0.40903   0.00000  Uiso   1.00
C19    C     0.15902   0.20557   0.40984   0.00000  Uiso   1.00
C20    C     0.18203   0.12617   0.09144   0.00000  Uiso   1.00
C21    C     0.18125   0.16714   0.11598   0.00000  Uiso   1.00
C22    C     0.16419   0.16571   0.38541   0.00000  Uiso   1.00
C23    C     0.19851   0.16758   0.02444   0.00000  Uiso   1.00
C24    C     0.19358   0.16991   0.47524   0.00000  Uiso   1.00
C25    C     0.29073   0.16735   0.25039   0.00000  Uiso   1.00
C26    C     0.04285   0.16564   0.25024   0.00000  Uiso   1.00
H27    H     0.21342   0.23685   0.03256   0.00000  Uiso   1.00
H28    H     0.21414   0.10235   0.46528   0.00000  Uiso   1.00
H29    H     0.16541   0.23541   0.47439   0.00000  Uiso   1.00
H30    H     0.18442   0.09739   0.02725   0.00000  Uiso   1.00
N31    N     0.16667   0.28573   0.25000   0.00000  Uiso   1.00
N32    N     0.16667   0.04760   0.25000   0.00000  Uiso   1.00
O33    O     0.10559   0.20487   0.24999   0.00000  Uiso   1.00
O34    O     0.22774   0.12846   0.25000   0.00000  Uiso   1.00
O35    O     0.22774   0.20487   0.25000   0.00000  Uiso   1.00
O36    O     0.10559   0.12846   0.24999   0.00000  Uiso   1.00
O37    O     0.16666   0.20489   0.18453   0.00000  Uiso   1.00
O38    O     0.16667   0.12845   0.31547   0.00000  Uiso   1.00
O39    O     0.16667   0.20489   0.31547   0.00000  Uiso   1.00
O40    O     0.16666   0.12845   0.18453   0.00000  Uiso   1.00
Zn41   Zn    0.16667   0.21771   0.25000   0.00000  Uiso   1.00
Zn42   Zn    0.16667   0.11563   0.25000   0.00000  Uiso   1.00
C43    C     0.22979   0.04793   0.30412   0.00000  Uiso   1.00
H44    H     0.22228   0.08249   0.31054   0.00000  Uiso   1.00
H45    H     0.23170   0.03259   0.33800   0.00000  Uiso   1.00
H46    H     0.26094   0.04669   0.28931   0.00000  Uiso   1.00
C47    C     0.09780   0.28407   0.20590   0.00000  Uiso   1.00
H48    H     0.10837   0.25410   0.18908   0.00000  Uiso   1.00
H49    H     0.07534   0.27572   0.23179   0.00000  Uiso   1.00
H50    H     0.07953   0.30208   0.17918   0.00000  Uiso   1.00
C51    C     0.10207   0.04754   0.19779   0.00000  Uiso   1.00
H52    H     0.10869   0.08268   0.19208   0.00000  Uiso   1.00
H53    H     0.09953   0.03402   0.16339   0.00000  Uiso   1.00
H54    H     0.07141   0.04400   0.21344   0.00000  Uiso   1.00
C55    C     0.23657   0.28493   0.29209   0.00000  Uiso   1.00
H56    H     0.22702   0.25482   0.31049   0.00000  Uiso   1.00
H57    H     0.25721   0.27661   0.26477   0.00000  Uiso   1.00
H58    H     0.25672   0.30375   0.31665   0.00000  Uiso   1.00
C59    C     0.19490   0.25427   0.11410   0.00000  Uiso   1.00
C60    C     0.15186   0.27593   0.10647   0.00000  Uiso   1.00
H61    H     0.12647   0.25276   0.11609   0.00000  Uiso   1.00
H62    H     0.15061   0.30688   0.12642   0.00000  Uiso   1.00
H63    H     0.14617   0.28473   0.07049   0.00000  Uiso   1.00
H64    H     0.20634   0.25545   0.14960   0.00000  Uiso   1.00
H65    H     0.21812   0.27592   0.09758   0.00000  Uiso   1.00
C66    C     0.16200   0.07974   0.39625   0.00000  Uiso   1.00
C67    C     0.13455   0.05981   0.43200   0.00000  Uiso   1.00
H68    H     0.15391   0.05101   0.46279   0.00000  Uiso   1.00
H69    H     0.10998   0.08392   0.44048   0.00000  Uiso   1.00
H70    H     0.11852   0.02902   0.41929   0.00000  Uiso   1.00
H71    H     0.14183   0.07898   0.36498   0.00000  Uiso   1.00
H72    H     0.18942   0.05789   0.39242   0.00000  Uiso   1.00
C73    C     0.13509   0.24590   0.39137   0.00000  Uiso   1.00
C74    C     0.16428   0.28623   0.38679   0.00000  Uiso   1.00
H75    H     0.17288   0.30052   0.42024   0.00000  Uiso   1.00
H76    H     0.19355   0.27652   0.37144   0.00000  Uiso   1.00
H77    H     0.14836   0.31218   0.36540   0.00000  Uiso   1.00
H78    H     0.11781   0.23920   0.35894   0.00000  Uiso   1.00
H79    H     0.11034   0.25452   0.41450   0.00000  Uiso   1.00
C80    C     0.17366   0.07959   0.10988   0.00000  Uiso   1.00
C81    C     0.21237   0.06051   0.13576   0.00000  Uiso   1.00
H82    H     0.23768   0.05484   0.11245   0.00000  Uiso   1.00
H83    H     0.22479   0.08314   0.16254   0.00000  Uiso   1.00
H84    H     0.20413   0.02808   0.15140   0.00000  Uiso   1.00
H85    H     0.14544   0.07925   0.12921   0.00000  Uiso   1.00
H86    H     0.16511   0.05558   0.08261   0.00000  Uiso   1.00
C87    C     0.05132   0.14840   0.33351   0.00000  Uiso   1.00
H88    H     0.07083   0.11853   0.32858   0.00000  Uiso   1.00
H89    H     0.07224   0.17747   0.34098   0.00000  Uiso   1.00
H90    H     0.03374   0.14165   0.36370   0.00000  Uiso   1.00
C91    C     0.28252   0.18258   0.16684   0.00000  Uiso   1.00
H92    H     0.26156   0.15338   0.16022   0.00000  Uiso   1.00
H93    H     0.26340   0.21268   0.17125   0.00000  Uiso   1.00
H94    H     0.29994   0.18841   0.13638   0.00000  Uiso   1.00
C95    C     0.29180   0.15416   0.33517   0.00000  Uiso   1.00
H96    H     0.25735   0.15889   0.33204   0.00000  Uiso   1.00
H97    H     0.29739   0.12010   0.34907   0.00000  Uiso   1.00
H98    H     0.30417   0.17950   0.35954   0.00000  Uiso   1.00
C99    C     0.04187   0.17882   0.16547   0.00000  Uiso   1.00
H100   H     0.07645   0.17521   0.16869   0.00000  Uiso   1.00
H101   H     0.03028   0.15292   0.14133   0.00000  Uiso   1.00
H102   H     0.03542   0.21259   0.15121   0.00000  Uiso   1.00
C103   C     0.42040   0.16640   0.25067   0.00000  Uiso   1.00
C104   C     0.57970   0.16688   0.24983   0.00000  Uiso   1.00
C105   C     0.50315   0.16688   0.16366   0.00000  Uiso   1.00
C106   C     0.49752   0.16639   0.33625   0.00000  Uiso   1.00
C107   C     0.53049   0.02396   0.27443   0.00000  Uiso   1.00
C108   C     0.46826   0.30922   0.22748   0.00000  Uiso   1.00
C109   C     0.46929   0.02375   0.22582   0.00000  Uiso   1.00
C110   C     0.53192   0.30952   0.27219   0.00000  Uiso   1.00
C111   C     0.35731   0.15790   0.29110   0.00000  Uiso   1.00
C112   C     0.64303   0.17427   0.20944   0.00000  Uiso   1.00
C113   C     0.64691   0.15962   0.29140   0.00000  Uiso   1.00
C114   C     0.35339   0.17309   0.20921   0.00000  Uiso   1.00
C115   C     0.53764   0.20631   0.04932   0.00000  Uiso   1.00
C116   C     0.53211   0.13133   0.45028   0.00000  Uiso   1.00
C117   C     0.50617   0.20653   0.45489   0.00000  Uiso   1.00
C118   C     0.52236   0.12776   0.04613   0.00000  Uiso   1.00
C119   C     0.52761   0.20765   0.09413   0.00000  Uiso   1.00
C120   C     0.51043   0.12656   0.40903   0.00000  Uiso   1.00
C121   C     0.49236   0.20557   0.40984   0.00000  Uiso   1.00
C122   C     0.51536   0.12617   0.09144   0.00000  Uiso   1.00
C123   C     0.51458   0.16714   0.11598   0.00000  Uiso   1.00
C124   C     0.49752   0.16571   0.38541   0.00000  Uiso   1.00
C125   C     0.53184   0.16758   0.02444   0.00000  Uiso   1.00
C126   C     0.52692   0.16991   0.47524   0.00000  Uiso   1.00
C127   C     0.62406   0.16735   0.25039   0.00000  Uiso   1.00
C128   C     0.37618   0.16564   0.25024   0.00000  Uiso   1.00
H129   H     0.54676   0.23685   0.03256   0.00000  Uiso   1.00
H130   H     0.54747   0.10235   0.46528   0.00000  Uiso   1.00
H131   H     0.49875   0.23541   0.47439   0.00000  Uiso   1.00
H132   H     0.51775   0.09739   0.02725   0.00000  Uiso   1.00
N133   N     0.50000   0.28573   0.25000   0.00000  Uiso   1.00
N134   N     0.50000   0.04760   0.25000   0.00000  Uiso   1.00
O135   O     0.43892   0.20487   0.24999   0.00000  Uiso   1.00
O136   O     0.56108   0.12846   0.25000   0.00000  Uiso   1.00
O137   O     0.56108   0.20487   0.25000   0.00000  Uiso   1.00
O138   O     0.43892   0.12846   0.24999   0.00000  Uiso   1.00
O139   O     0.50000   0.20489   0.18453   0.00000  Uiso   1.00
O140   O     0.50000   0.12845   0.31547   0.00000  Uiso   1.00
O141   O     0.50000   0.20489   0.31547   0.00000  Uiso   1.00
O142   O     0.50000   0.12845   0.18453   0.00000  Uiso   1.00
Zn143  Zn    0.50000   0.21771   0.25000   0.00000  Uiso   1.00
Zn144  Zn    0.50000   0.11563   0.25000   0.00000  Uiso   1.00
C145   C     0.56312   0.04793   0.30412   0.00000  Uiso   1.00
H146   H     0.55561   0.08249   0.31054   0.00000  Uiso   1.00
H147   H     0.56504   0.03259   0.33800   0.00000  Uiso   1.00
H148   H     0.59428   0.04669   0.28931   0.00000  Uiso   1.00
C149   C     0.43113   0.28407   0.20590   0.00000  Uiso   1.00
H150   H     0.44170   0.25410   0.18908   0.00000  Uiso   1.00
H151   H     0.40867   0.27572   0.23179   0.00000  Uiso   1.00
H152   H     0.41286   0.30208   0.17918   0.00000  Uiso   1.00
C153   C     0.43540   0.04754   0.19779   0.00000  Uiso   1.00
H154   H     0.44202   0.08268   0.19208   0.00000  Uiso   1.00
H155   H     0.43287   0.03402   0.16339   0.00000  Uiso   1.00
H156   H     0.40474   0.04400   0.21344   0.00000  Uiso   1.00
C157   C     0.56991   0.28493   0.29209   0.00000  Uiso   1.00
H158   H     0.56035   0.25482   0.31049   0.00000  Uiso   1.00
H159   H     0.59054   0.27661   0.26477   0.00000  Uiso   1.00
H160   H     0.59005   0.30375   0.31665   0.00000  Uiso   1.00
C161   C     0.52823   0.25427   0.11410   0.00000  Uiso   1.00
C162   C     0.48519   0.27593   0.10647   0.00000  Uiso   1.00
H163   H     0.45981   0.25276   0.11609   0.00000  Uiso   1.00
H164   H     0.48394   0.30688   0.12642   0.00000  Uiso   1.00
H165   H     0.47951   0.28473   0.07049   0.00000  Uiso   1.00
H166   H     0.53968   0.25545   0.14960   0.00000  Uiso   1.00
H167   H     0.55145   0.27592   0.09758   0.00000  Uiso   1.00
C168   C     0.49534   0.07974   0.39625   0.00000  Uiso   1.00
C169   C     0.46788   0.05981   0.43200   0.00000  Uiso   1.00
H170   H     0.48725   0.05101   0.46279   0.00000  Uiso   1.00
H171   H     0.44331   0.08392   0.44048   0.00000  Uiso   1.00
H172   H     0.45186   0.02902   0.41929   0.00000  Uiso   1.00
H173   H     0.47516   0.07898   0.36498   0.00000  Uiso   1.00
H174   H     0.52276   0.05789   0.39242   0.00000  Uiso   1.00
C175   C     0.46843   0.24590   0.39137   0.00000  Uiso   1.00
C176   C     0.49761   0.28623   0.38679   0.00000  Uiso   1.00
H177   H     0.50621   0.30052   0.42024   0.00000  Uiso   1.00
H178   H     0.52688   0.27652   0.37144   0.00000  Uiso   1.00
H179   H     0.48169   0.31218   0.36540   0.00000  Uiso   1.00
H180   H     0.45114   0.23920   0.35894   0.00000  Uiso   1.00
H181   H     0.44367   0.25452   0.41450   0.00000  Uiso   1.00
C182   C     0.50700   0.07959   0.10988   0.00000  Uiso   1.00
C183   C     0.54570   0.06051   0.13576   0.00000  Uiso   1.00
H184   H     0.57102   0.05484   0.11245   0.00000  Uiso   1.00
H185   H     0.55813   0.08314   0.16254   0.00000  Uiso   1.00
H186   H     0.53746   0.02808   0.15140   0.00000  Uiso   1.00
H187   H     0.47878   0.07925   0.12921   0.00000  Uiso   1.00
H188   H     0.49844   0.05558   0.08261   0.00000  Uiso   1.00
C189   C     0.38465   0.14840   0.33351   0.00000  Uiso   1.00
H190   H     0.40416   0.11853   0.32858   0.00000  Uiso   1.00
H191   H     0.40558   0.17747   0.34098   0.00000  Uiso   1.00
H192   H     0.36708   0.14165   0.36370   0.00000  Uiso   1.00
C193   C     0.61586   0.18258   0.16684   0.00000  Uiso   1.00
H194   H     0.59490   0.15338   0.16022   0.00000  Uiso   1.00
H195   H     0.59673   0.21268   0.17125   0.00000  Uiso   1.00
H196   H     0.63328   0.18841   0.13638   0.00000  Uiso   1.00
C197   C     0.62514   0.15416   0.33517   0.00000  Uiso   1.00
H198   H     0.59068   0.15889   0.33204   0.00000  Uiso   1.00
H199   H     0.63072   0.12010   0.34907   0.00000  Uiso   1.00
H200   H     0.63750   0.17950   0.35954   0.00000  Uiso   1.00
C201   C     0.37520   0.17882   0.16547   0.00000  Uiso   1.00
H202   H     0.40978   0.17521   0.16869   0.00000  Uiso   1.00
H203   H     0.36361   0.15292   0.14133   0.00000  Uiso   1.00
H204   H     0.36875   0.21259   0.15121   0.00000  Uiso   1.00
C205   C     0.75374   0.16640   0.25067   0.00000  Uiso   1.00
C206   C     0.91303   0.16688   0.24983   0.00000  Uiso   1.00
C207   C     0.83649   0.16688   0.16366   0.00000  Uiso   1.00
C208   C     0.83085   0.16639   0.33625   0.00000  Uiso   1.00
C209   C     0.86383   0.02396   0.27443   0.00000  Uiso   1.00
C210   C     0.80159   0.30922   0.22748   0.00000  Uiso   1.00
C211   C     0.80262   0.02375   0.22582   0.00000  Uiso   1.00
C212   C     0.86525   0.30952   0.27219   0.00000  Uiso   1.00
C213   C     0.69064   0.15790   0.29110   0.00000  Uiso   1.00
C214   C     0.97636   0.17427   0.20944   0.00000  Uiso   1.00
C215   C     0.98024   0.15962   0.29140   0.00000  Uiso   1.00
C216   C     0.68672   0.17309   0.20921   0.00000  Uiso   1.00
C217   C     0.87097   0.20631   0.04932   0.00000  Uiso   1.00
C218   C     0.86544   0.13133   0.45028   0.00000  Uiso   1.00
C219   C     0.83950   0.20653   0.45489   0.00000  Uiso   1.00
C220   C     0.85570   0.12776   0.04613   0.00000  Uiso   1.00
C221   C     0.86095   0.20765   0.09413   0.00000  Uiso   1.00
C222   C     0.84376   0.12656   0.40903   0.00000  Uiso   1.00
C223   C     0.82569   0.20557   0.40984   0.00000  Uiso   1.00
C224   C     0.84869   0.12617   0.09144   0.00000  Uiso   1.00
C225   C     0.84792   0.16714   0.11598   0.00000  Uiso   1.00
C226   C     0.83085   0.16571   0.38541   0.00000  Uiso   1.00
C227   C     0.86518   0.16758   0.02444   0.00000  Uiso   1.00
C228   C     0.86025   0.16991   0.47524   0.00000  Uiso   1.00
C229   C     0.95739   0.16735   0.25039   0.00000  Uiso   1.00
C230   C     0.70951   0.16564   0.25024   0.00000  Uiso   1.00
H231   H     0.88009   0.23685   0.03256   0.00000  Uiso   1.00
H232   H     0.88081   0.10235   0.46528   0.00000  Uiso   1.00
H233   H     0.83208   0.23541   0.47439   0.00000  Uiso   1.00
H234   H     0.85108   0.09739   0.02725   0.00000  Uiso   1.00
N235   N     0.83333   0.28573   0.25000   0.00000  Uiso   1.00
N236   N     0.83333   0.04760   0.25000   0.00000  Uiso   1.00
O237   O     0.77226   0.20487   0.24999   0.00000  Uiso   1.00
O238   O     0.89441   0.12846   0.25000   0.00000  Uiso   1.00
O239   O     0.89441   0.20487   0.25000   0.00000  Uiso   1.00
O240   O     0.77226   0.12846   0.24999   0.00000  Uiso   1.00
O241   O     0.83333   0.20489   0.18453   0.00000  Uiso   1.00
O242   O     0.83334   0.12845   0.31547   0.00000  Uiso   1.00
O243   O     0.83334   0.20489   0.31547   0.00000  Uiso   1.00
O244   O     0.83333   0.12845   0.18453   0.00000  Uiso   1.00
Zn245  Zn    0.83333   0.21771   0.25000   0.00000  Uiso   1.00
Zn246  Zn    0.83333   0.11563   0.25000   0.00000  Uiso   1.00
C247   C     0.89646   0.04793   0.30412   0.00000  Uiso   1.00
H248   H     0.88894   0.08249   0.31054   0.00000  Uiso   1.00
H249   H     0.89837   0.03259   0.33800   0.00000  Uiso   1.00
H250   H     0.92761   0.04669   0.28931   0.00000  Uiso   1.00
C251   C     0.76446   0.28407   0.20590   0.00000  Uiso   1.00
H252   H     0.77504   0.25410   0.18908   0.00000  Uiso   1.00
H253   H     0.74200   0.27572   0.23179   0.00000  Uiso   1.00
H254   H     0.74619   0.30208   0.17918   0.00000  Uiso   1.00
C255   C     0.76874   0.04754   0.19779   0.00000  Uiso   1.00
H256   H     0.77536   0.08268   0.19208   0.00000  Uiso   1.00
H257   H     0.76620   0.03402   0.16339   0.00000  Uiso   1.00
H258   H     0.73807   0.04400   0.21344   0.00000  Uiso   1.00
C259   C     0.90324   0.28493   0.29209   0.00000  Uiso   1.00
H260   H     0.89369   0.25482   0.31049   0.00000  Uiso   1.00
H261   H     0.92387   0.27661   0.26477   0.00000  Uiso   1.00
H262   H     0.92339   0.30375   0.31665   0.00000  Uiso   1.00
C263   C     0.86156   0.25427   0.11410   0.00000  Uiso   1.00
C264   C     0.81852   0.27593   0.10647   0.00000  Uiso   1.00
H265   H     0.79314   0.25276   0.11609   0.00000  Uiso   1.00
H266   H     0.81727   0.30688   0.12642   0.00000  Uiso   1.00
H267   H     0.81284   0.28473   0.07049   0.00000  Uiso   1.00
H268   H     0.87301   0.25545   0.14960   0.00000  Uiso   1.00
H269   H     0.88478   0.27592   0.09758   0.00000  Uiso   1.00
C270   C     0.82867   0.07974   0.39625   0.00000  Uiso   1.00
C271   C     0.80122   0.05981   0.43200   0.00000  Uiso   1.00
H272   H     0.82058   0.05101   0.46279   0.00000  Uiso   1.00
H273   H     0.77664   0.08392   0.44048   0.00000  Uiso   1.00
H274   H     0.78519   0.02902   0.41929   0.00000  Uiso   1.00
H275   H     0.80849   0.07898   0.36498   0.00000  Uiso   1.00
H276   H     0.85609   0.05789   0.39242   0.00000  Uiso   1.00
C277   C     0.80176   0.24590   0.39137   0.00000  Uiso   1.00
C278   C     0.83095   0.28623   0.38679   0.00000  Uiso   1.00
H279   H     0.83954   0.30052   0.42024   0.00000  Uiso   1.00
H280   H     0.86021   0.27652   0.37144   0.00000  Uiso   1.00
H281   H     0.81503   0.31218   0.36540   0.00000  Uiso   1.00
H282   H     0.78447   0.23920   0.35894   0.00000  Uiso   1.00
H283   H     0.77701   0.25452   0.41450   0.00000  Uiso   1.00
C284   C     0.84033   0.07959   0.10988   0.00000  Uiso   1.00
C285   C     0.87904   0.06051   0.13576   0.00000  Uiso   1.00
H286   H     0.90435   0.05484   0.11245   0.00000  Uiso   1.00
H287   H     0.89146   0.08314   0.16254   0.00000  Uiso   1.00
H288   H     0.87079   0.02808   0.15140   0.00000  Uiso   1.00
H289   H     0.81211   0.07925   0.12921   0.00000  Uiso   1.00
H290   H     0.83177   0.05558   0.08261   0.00000  Uiso   1.00
C291   C     0.71798   0.14840   0.33351   0.00000  Uiso   1.00
H292   H     0.73750   0.11853   0.32858   0.00000  Uiso   1.00
H293   H     0.73891   0.17747   0.34098   0.00000  Uiso   1.00
H294   H     0.70041   0.14165   0.36370   0.00000  Uiso   1.00
C295   C     0.94919   0.18258   0.16684   0.00000  Uiso   1.00
H296   H     0.92823   0.15338   0.16022   0.00000  Uiso   1.00
H297   H     0.93007   0.21268   0.17125   0.00000  Uiso   1.00
H298   H     0.96661   0.18841   0.13638   0.00000  Uiso   1.00
C299   C     0.95847   0.15416   0.33517   0.00000  Uiso   1.00
H300   H     0.92401   0.15889   0.33204   0.00000  Uiso   1.00
H301   H     0.96406   0.12010   0.34907   0.00000  Uiso   1.00
H302   H     0.97083   0.17950   0.35954   0.00000  Uiso   1.00
C303   C     0.70853   0.17882   0.16547   0.00000  Uiso   1.00
H304   H     0.74311   0.17521   0.16869   0.00000  Uiso   1.00
H305   H     0.69695   0.15292   0.14133   0.00000  Uiso   1.00
H306   H     0.70209   0.21259   0.15121   0.00000  Uiso   1.00
C307   C     0.08707   0.49973   0.25067   0.00000  Uiso   1.00
C308   C     0.24636   0.50022   0.24983   0.00000  Uiso   1.00
C309   C     0.16982   0.50021   0.16366   0.00000  Uiso   1.00
C310   C     0.16418   0.49973   0.33625   0.00000  Uiso   1.00
C311   C     0.19716   0.35730   0.27443   0.00000  Uiso   1.00
C312   C     0.13493   0.64255   0.22748   0.00000  Uiso   1.00
C313   C     0.13596   0.35708   0.22582   0.00000  Uiso   1.00
C314   C     0.19858   0.64285   0.27219   0.00000  Uiso   1.00
C315   C     0.02398   0.49123   0.29110   0.00000  Uiso   1.00
C316   C     0.30970   0.50761   0.20944   0.00000  Uiso   1.00
C317   C     0.31358   0.49296   0.29140   0.00000  Uiso   1.00
C318   C     0.02005   0.50642   0.20921   0.00000  Uiso   1.00
C319   C     0.20431   0.53965   0.04932   0.00000  Uiso   1.00
C320   C     0.19877   0.46466   0.45028   0.00000  Uiso   1.00
C321   C     0.17284   0.53986   0.45489   0.00000  Uiso   1.00
C322   C     0.18903   0.46110   0.04613   0.00000  Uiso   1.00
C323   C     0.19428   0.54099   0.09413   0.00000  Uiso   1.00
C324   C     0.17710   0.45989   0.40903   0.00000  Uiso   1.00
C325   C     0.15902   0.53890   0.40984   0.00000  Uiso   1.00
C326   C     0.18203   0.45950   0.09144   0.00000  Uiso   1.00
C327   C     0.18125   0.50047   0.11598   0.00000  Uiso   1.00
C328   C     0.16419   0.49904   0.38541   0.00000  Uiso   1.00
C329   C     0.19851   0.50092   0.02444   0.00000  Uiso   1.00
C330   C     0.19358   0.50325   0.47524   0.00000  Uiso   1.00
C331   C     0.29073   0.50069   0.25039   0.00000  Uiso   1.00
C332   C     0.04285   0.49897   0.25024   0.00000  Uiso   1.00
H333   H     0.21342   0.57019   0.03256   0.00000  Uiso   1.00
H334   H     0.21414   0.43568   0.46528   0.00000  Uiso   1.00
H335   H     0.16541   0.56874   0.47439   0.00000  Uiso   1.00
H336   H     0.18442   0.43072   0.02725   0.00000  Uiso   1.00
N337   N     0.16667   0.61907   0.25000   0.00000  Uiso   1.00
N338   N     0.16667   0.38093   0.25000   0.00000  Uiso   1.00
O339   O     0.10559   0.53821   0.24999   0.00000  Uiso   1.00
O340   O     0.22774   0.46179   0.25000   0.00000  Uiso   1.00
O341   O     0.22774   0.53821   0.25000   0.00000  Uiso   1.00
O342   O     0.10559   0.46179   0.24999   0.00000  Uiso   1.00
O343   O     0.16666   0.53822   0.18453   0.00000  Uiso   1.00
O344   O     0.16667   0.46178   0.31547   0.00000  Uiso   1.00
O345   O     0.16667   0.53822   0.31547   0.00000  Uiso   1.00
O346   O     0.16666   0.46178   0.18453   0.00000  Uiso   1.00
Zn347  Zn    0.16667   0.55104   0.25000   0.00000  Uiso   1.00
Zn348  Zn    0.16667   0.44896   0.25000   0.00000  Uiso   1.00
C349   C     0.22979   0.38127   0.30412   0.00000  Uiso   1.00
H350   H     0.22228   0.41582   0.31054   0.00000  Uiso   1.00
H351   H     0.23170   0.36592   0.33800   0.00000  Uiso   1.00
H352   H     0.26094   0.38003   0.28931   0.00000  Uiso   1.00
C353   C     0.09780   0.61741   0.20590   0.00000  Uiso   1.00
H354   H     0.10837   0.58744   0.18908   0.00000  Uiso   1.00
H355   H     0.07534   0.60906   0.23179   0.00000  Uiso   1.00
H356   H     0.07953   0.63541   0.17918   0.00000  Uiso   1.00
C357   C     0.10207   0.38087   0.19779   0.00000  Uiso   1.00
H358   H     0.10869   0.41601   0.19208   0.00000  Uiso   1.00
H359   H     0.09953   0.36735   0.16339   0.00000  Uiso   1.00
H360   H     0.07141   0.37733   0.21344   0.00000  Uiso   1.00
C361   C     0.23657   0.61826   0.29209   0.00000  Uiso   1.00
H362   H     0.22702   0.58815   0.31049   0.00000  Uiso   1.00
H363   H     0.25721   0.60994   0.26477   0.00000  Uiso   1.00
H364   H     0.25672   0.63709   0.31665   0.00000  Uiso   1.00
C365   C     0.19490   0.58760   0.11410   0.00000  Uiso   1.00
C366   C     0.15186   0.60926   0.10647   0.00000  Uiso   1.00
H367   H     0.12647   0.58609   0.11609   0.00000  Uiso   1.00
H368   H     0.15061   0.64022   0.12642   0.00000  Uiso   1.00
H369   H     0.14617   0.61806   0.07049   0.00000  Uiso   1.00
H370   H     0.20634   0.58879   0.14960   0.00000  Uiso   1.00
H371   H     0.21812   0.60925   0.09758   0.00000  Uiso   1.00
C372   C     0.16200   0.41307   0.39625   0.00000  Uiso   1.00
C373   C     0.13455   0.39315   0.43200   0.00000  Uiso   1.00
H374   H     0.15391   0.38434   0.46279   0.00000  Uiso   1.00
H375   H     0.10998   0.41725   0.44048   0.00000  Uiso   1.00
H376   H     0.11852   0.36235   0.41929   0.00000  Uiso   1.00
H377   H     0.14183   0.41231   0.36498   0.00000  Uiso   1.00
H378   H     0.18942   0.39123   0.39242   0.00000  Uiso   1.00
C379   C     0.13509   0.57924   0.39137   0.00000  Uiso   1.00
C380   C     0.16428   0.61957   0.38679   0.00000  Uiso   1.00
H381   H     0.17288   0.63385   0.42024   0.00000  Uiso   1.00
H382   H     0.19355   0.60986   0.37144   0.00000  Uiso   1.00
H383   H     0.14836   0.64551   0.36540   0.00000  Uiso   1.00
H384   H     0.11781   0.57253   0.35894   0.00000  Uiso   1.00
H385   H     0.11034   0.58785   0.41450   0.00000  Uiso   1.00
C386   C     0.17366   0.41293   0.10988   0.00000  Uiso   1.00
C387   C     0.21237   0.39384   0.13576   0.00000  Uiso   1.00
H388   H     0.23768   0.38817   0.11245   0.00000  Uiso   1.00
H389   H     0.22479   0.41647   0.16254   0.00000  Uiso   1.00
H390   H     0.20413   0.36142   0.15140   0.00000  Uiso   1.00
H391   H     0.14544   0.41258   0.12921   0.00000  Uiso   1.00
H392   H     0.16511   0.38892   0.08261   0.00000  Uiso   1.00
C393   C     0.05132   0.48173   0.33351   0.00000  Uiso   1.00
H394   H     0.07083   0.45186   0.32858   0.00000  Uiso   1.00
H395   H     0.07224   0.51080   0.34098   0.00000  Uiso   1.00
H396   H     0.03374   0.47499   0.36370   0.00000  Uiso   1.00
C397   C     0.28252   0.51591   0.16684   0.00000  Uiso   1.00
H398   H     0.26156   0.48671   0.16022   0.00000  Uiso   1.00
H399   H     0.26340   0.54602   0.17125   0.00000  Uiso   1.00
H400   H     0.29994   0.52175   0.13638   0.00000  Uiso   1.00
C401   C     0.29180   0.48750   0.33517   0.00000  Uiso   1.00
H402   H     0.25735   0.49223   0.33204   0.00000  Uiso   1.00
H403   H     0.29739   0.45344   0.34907   0.00000  Uiso   1.00
H404   H     0.30417   0.51283   0.35954   0.00000  Uiso   1.00
C405   C     0.04187   0.51216   0.16547   0.00000  Uiso   1.00
H406   H     0.07645   0.50855   0.16869   0.00000  Uiso   1.00
H407   H     0.03028   0.48625   0.14133   0.00000  Uiso   1.00
H408   H     0.03542   0.54592   0.15121   0.00000  Uiso   1.00
C409   C     0.42040   0.49973   0.25067   0.00000  Uiso   1.00
C410   C     0.57970   0.50022   0.24983   0.00000  Uiso   1.00
C411   C     0.50315   0.50021   0.16366   0.00000  Uiso   1.00
C412   C     0.49752   0.49973   0.33625   0.00000  Uiso   1.00
C413   C     0.53049   0.35730   0.27443   0.00000  Uiso   1.00
C414   C     0.46826   0.64255   0.22748   0.00000  Uiso   1.00
C415   C     0.46929   0.35708   0.22582   0.00000  Uiso   1.00
C416   C     0.53192   0.64285   0.27219   0.00000  Uiso   1.00
C417   C     0.35731   0.49123   0.29110   0.00000  Uiso   1.00
C418   C     0.64303   0.50761   0.20944   0.00000  Uiso   1.00
C419   C     0.64691   0.49296   0.29140   0.00000  Uiso   1.00
C420   C     0.35339   0.50642   0.20921   0.00000  Uiso   1.00
C421   C     0.53764   0.53965   0.04932   0.00000  Uiso   1.00
C422   C     0.53211   0.46466   0.45028   0.00000  Uiso   1.00
C423   C     0.50617   0.53986   0.45489   0.00000  Uiso   1.00
C424   C     0.52236   0.46110   0.04613   0.00000  Uiso   1.00
C425   C     0.52761   0.54099   0.09413   0.00000  Uiso   1.00
C426   C     0.51043   0.45989   0.40903   0.00000  Uiso   1.00
C427   C     0.49236   0.53890   0.40984   0.00000  Uiso   1.00
C428   C     0.51536   0.45950   0.09144   0.00000  Uiso   1.00
C429   C     0.51458   0.50047   0.11598   0.00000  Uiso   1.00
C430   C     0.49752   0.49904   0.38541   0.00000  Uiso   1.00
C431   C     0.53184   0.50092   0.02444   0.00000  Uiso   1.00
C432   C     0.52692   0.50325   0.47524   0.00000  Uiso   1.00
C433   C     0.62406   0.50069   0.25039   0.00000  Uiso   1.00
C434   C     0.37618   0.49897   0.25024   0.00000  Uiso   1.00
H435   H     0.54676   0.57019   0.03256   0.00000  Uiso   1.00
H436   H     0.54747   0.43568   0.46528   0.00000  Uiso   1.00
H437   H     0.49875   0.56874   0.47439   0.00000  Uiso   1.00
H438   H     0.51775   0.43072   0.02725   0.00000  Uiso   1.00
N439   N     0.50000   0.61907   0.25000   0.00000  Uiso   1.00
N440   N     0.50000   0.38093   0.25000   0.00000  Uiso   1.00
O441   O     0.43892   0.53821   0.24999   0.00000  Uiso   1.00
O442   O     0.56108   0.46179   0.25000   0.00000  Uiso   1.00
O443   O     0.56108   0.53821   0.25000   0.00000  Uiso   1.00
O444   O     0.43892   0.46179   0.24999   0.00000  Uiso   1.00
O445   O     0.50000   0.53822   0.18453   0.00000  Uiso   1.00
O446   O     0.50000   0.46178   0.31547   0.00000  Uiso   1.00
O447   O     0.50000   0.53822   0.31547   0.00000  Uiso   1.00
O448   O     0.50000   0.46178   0.18453   0.00000  Uiso   1.00
Zn449  Zn    0.50000   0.55104   0.25000   0.00000  Uiso   1.00
Zn450  Zn    0.50000   0.44896   0.25000   0.00000  Uiso   1.00
C451   C     0.56312   0.38127   0.30412   0.00000  Uiso   1.00
H452   H     0.55561   0.41582   0.31054   0.00000  Uiso   1.00
H453   H     0.56504   0.36592   0.33800   0.00000  Uiso   1.00
H454   H     0.59428   0.38003   0.28931   0.00000  Uiso   1.00
C455   C     0.43113   0.61741   0.20590   0.00000  Uiso   1.00
H456   H     0.44170   0.58744   0.18908   0.00000  Uiso   1.00
H457   H     0.40867   0.60906   0.23179   0.00000  Uiso   1.00
H458   H     0.41286   0.63541   0.17918   0.00000  Uiso   1.00
C459   C     0.43540   0.38087   0.19779   0.00000  Uiso   1.00
H460   H     0.44202   0.41601   0.19208   0.00000  Uiso   1.00
H461   H     0.43287   0.36735   0.16339   0.00000  Uiso   1.00
H462   H     0.40474   0.37733   0.21344   0.00000  Uiso   1.00
C463   C     0.56991   0.61826   0.29209   0.00000  Uiso   1.00
H464   H     0.56035   0.58815   0.31049   0.00000  Uiso   1.00
H465   H     0.59054   0.60994   0.26477   0.00000  Uiso   1.00
H466   H     0.59005   0.63709   0.31665   0.00000  Uiso   1.00
C467   C     0.52823   0.58760   0.11410   0.00000  Uiso   1.00
C468   C     0.48519   0.60926   0.10647   0.00000  Uiso   1.00
H469   H     0.45981   0.58609   0.11609   0.00000  Uiso   1.00
H470   H     0.48394   0.64022   0.12642   0.00000  Uiso   1.00
H471   H     0.47951   0.61806   0.07049   0.00000  Uiso   1.00
H472   H     0.53968   0.58879   0.14960   0.00000  Uiso   1.00
H473   H     0.55145   0.60925   0.09758   0.00000  Uiso   1.00
C474   C     0.49534   0.41307   0.39625   0.00000  Uiso   1.00
C475   C     0.46788   0.39315   0.43200   0.00000  Uiso   1.00
H476   H     0.48725   0.38434   0.46279   0.00000  Uiso   1.00
H477   H     0.44331   0.41725   0.44048   0.00000  Uiso   1.00
H478   H     0.45186   0.36235   0.41929   0.00000  Uiso   1.00
H479   H     0.47516   0.41231   0.36498   0.00000  Uiso   1.00
H480   H     0.52276   0.39123   0.39242   0.00000  Uiso   1.00
C481   C     0.46843   0.57924   0.39137   0.00000  Uiso   1.00
C482   C     0.49761   0.61957   0.38679   0.00000  Uiso   1.00
H483   H     0.50621   0.63385   0.42024   0.00000  Uiso   1.00
H484   H     0.52688   0.60986   0.37144   0.00000  Uiso   1.00
H485   H     0.48169   0.64551   0.36540   0.00000  Uiso   1.00
H486   H     0.45114   0.57253   0.35894   0.00000  Uiso   1.00
H487   H     0.44367   0.58785   0.41450   0.00000  Uiso   1.00
C488   C     0.50700   0.41293   0.10988   0.00000  Uiso   1.00
C489   C     0.54570   0.39384   0.13576   0.00000  Uiso   1.00
H490   H     0.57102   0.38817   0.11245   0.00000  Uiso   1.00
H491   H     0.55813   0.41647   0.16254   0.00000  Uiso   1.00
H492   H     0.53746   0.36142   0.15140   0.00000  Uiso   1.00
H493   H     0.47878   0.41258   0.12921   0.00000  Uiso   1.00
H494   H     0.49844   0.38892   0.08261   0.00000  Uiso   1.00
C495   C     0.38465   0.48173   0.33351   0.00000  Uiso   1.00
H496   H     0.40416   0.45186   0.32858   0.00000  Uiso   1.00
H497   H     0.40558   0.51080   0.34098   0.00000  Uiso   1.00
H498   H     0.36708   0.47499   0.36370   0.00000  Uiso   1.00
C499   C     0.61586   0.51591   0.16684   0.00000  Uiso   1.00
H500   H     0.59490   0.48671   0.16022   0.00000  Uiso   1.00
H501   H     0.59673   0.54602   0.17125   0.00000  Uiso   1.00
H502   H     0.63328   0.52175   0.13638   0.00000  Uiso   1.00
C503   C     0.62514   0.48750   0.33517   0.00000  Uiso   1.00
H504   H     0.59068   0.49223   0.33204   0.00000  Uiso   1.00
H505   H     0.63072   0.45344   0.34907   0.00000  Uiso   1.00
H506   H     0.63750   0.51283   0.35954   0.00000  Uiso   1.00
C507   C     0.37520   0.51216   0.16547   0.00000  Uiso   1.00
H508   H     0.40978   0.50855   0.16869   0.00000  Uiso   1.00
H509   H     0.36361   0.48625   0.14133   0.00000  Uiso   1.00
H510   H     0.36875   0.54592   0.15121   0.00000  Uiso   1.00
C511   C     0.75374   0.49973   0.25067   0.00000  Uiso   1.00
C512   C     0.91303   0.50022   0.24983   0.00000  Uiso   1.00
C513   C     0.83649   0.50021   0.16366   0.00000  Uiso   1.00
C514   C     0.83085   0.49973   0.33625   0.00000  Uiso   1.00
C515   C     0.86383   0.35730   0.27443   0.00000  Uiso   1.00
C516   C     0.80159   0.64255   0.22748   0.00000  Uiso   1.00
C517   C     0.80262   0.35708   0.22582   0.00000  Uiso   1.00
C518   C     0.86525   0.64285   0.27219   0.00000  Uiso   1.00
C519   C     0.69064   0.49123   0.29110   0.00000  Uiso   1.00
C520   C     0.97636   0.50761   0.20944   0.00000  Uiso   1.00
C521   C     0.98024   0.49296   0.29140   0.00000  Uiso   1.00
C522   C     0.68672   0.50642   0.20921   0.00000  Uiso   1.00
C523   C     0.87097   0.53965   0.04932   0.00000  Uiso   1.00
C524   C     0.86544   0.46466   0.45028   0.00000  Uiso   1.00
C525   C     0.83950   0.53986   0.45489   0.00000  Uiso   1.00
C526   C     0.85570   0.46110   0.04613   0.00000  Uiso   1.00
C527   C     0.86095   0.54099   0.09413   0.00000  Uiso   1.00
C528   C     0.84376   0.45989   0.40903   0.00000  Uiso   1.00
C529   C     0.82569   0.53890   0.40984   0.00000  Uiso   1.00
C530   C     0.84869   0.45950   0.09144   0.00000  Uiso   1.00
C531   C     0.84792   0.50047   0.11598   0.00000  Uiso   1.00
C532   C     0.83085   0.49904   0.38541   0.00000  Uiso   1.00
C533   C     0.86518   0.50092   0.02444   0.00000  Uiso   1.00
C534   C     0.86025   0.50325   0.47524   0.00000  Uiso   1.00
C535   C     0.95739   0.50069   0.25039   0.00000  Uiso   1.00
C536   C     0.70951   0.49897   0.25024   0.00000  Uiso   1.00
H537   H     0.88009   0.57019   0.03256   0.00000  Uiso   1.00
H538   H     0.88081   0.43568   0.46528   0.00000  Uiso   1.00
H539   H     0.83208   0.56874   0.47439   0.00000  Uiso   1.00
H540   H     0.85108   0.43072   0.02725   0.00000  Uiso   1.00
N541   N     0.83333   0.61907   0.25000   0.00000  Uiso   1.00
N542   N     0.83333   0.38093   0.25000   0.00000  Uiso   1.00
O543   O     0.77226   0.53821   0.24999   0.00000  Uiso   1.00
O544   O     0.89441   0.46179   0.25000   0.00000  Uiso   1.00
O545   O     0.89441   0.53821   0.25000   0.00000  Uiso   1.00
O546   O     0.77226   0.46179   0.24999   0.00000  Uiso   1.00
O547   O     0.83333   0.53822   0.18453   0.00000  Uiso   1.00
O548   O     0.83334   0.46178   0.31547   0.00000  Uiso   1.00
O549   O     0.83334   0.53822   0.31547   0.00000  Uiso   1.00
O550   O     0.83333   0.46178   0.18453   0.00000  Uiso   1.00
Zn551  Zn    0.83333   0.55104   0.25000   0.00000  Uiso   1.00
Zn552  Zn    0.83333   0.44896   0.25000   0.00000  Uiso   1.00
C553   C     0.89646   0.38127   0.30412   0.00000  Uiso   1.00
H554   H     0.88894   0.41582   0.31054   0.00000  Uiso   1.00
H555   H     0.89837   0.36592   0.33800   0.00000  Uiso   1.00
H556   H     0.92761   0.38003   0.28931   0.00000  Uiso   1.00
C557   C     0.76446   0.61741   0.20590   0.00000  Uiso   1.00
H558   H     0.77504   0.58744   0.18908   0.00000  Uiso   1.00
H559   H     0.74200   0.60906   0.23179   0.00000  Uiso   1.00
H560   H     0.74619   0.63541   0.17918   0.00000  Uiso   1.00
C561   C     0.76874   0.38087   0.19779   0.00000  Uiso   1.00
H562   H     0.77536   0.41601   0.19208   0.00000  Uiso   1.00
H563   H     0.76620   0.36735   0.16339   0.00000  Uiso   1.00
H564   H     0.73807   0.37733   0.21344   0.00000  Uiso   1.00
C565   C     0.90324   0.61826   0.29209   0.00000  Uiso   1.00
H566   H     0.89369   0.58815   0.31049   0.00000  Uiso   1.00
H567   H     0.92387   0.60994   0.26477   0.00000  Uiso   1.00
H568   H     0.92339   0.63709   0.31665   0.00000  Uiso   1.00
C569   C     0.86156   0.58760   0.11410   0.00000  Uiso   1.00
C570   C     0.81852   0.60926   0.10647   0.00000  Uiso   1.00
H571   H     0.79314   0.58609   0.11609   0.00000  Uiso   1.00
H572   H     0.81727   0.64022   0.12642   0.00000  Uiso   1.00
H573   H     0.81284   0.61806   0.07049   0.00000  Uiso   1.00
H574   H     0.87301   0.58879   0.14960   0.00000  Uiso   1.00
H575   H     0.88478   0.60925   0.09758   0.00000  Uiso   1.00
C576   C     0.82867   0.41307   0.39625   0.00000  Uiso   1.00
C577   C     0.80122   0.39315   0.43200   0.00000  Uiso   1.00
H578   H     0.82058   0.38434   0.46279   0.00000  Uiso   1.00
H579   H     0.77664   0.41725   0.44048   0.00000  Uiso   1.00
H580   H     0.78519   0.36235   0.41929   0.00000  Uiso   1.00
H581   H     0.80849   0.41231   0.36498   0.00000  Uiso   1.00
H582   H     0.85609   0.39123   0.39242   0.00000  Uiso   1.00
C583   C     0.80176   0.57924   0.39137   0.00000  Uiso   1.00
C584   C     0.83095   0.61957   0.38679   0.00000  Uiso   1.00
H585   H     0.83954   0.63385   0.42024   0.00000  Uiso   1.00
H586   H     0.86021   0.60986   0.37144   0.00000  Uiso   1.00
H587   H     0.81503   0.64551   0.36540   0.00000  Uiso   1.00
H588   H     0.78447   0.57253   0.35894   0.00000  Uiso   1.00
H589   H     0.77701   0.58785   0.41450   0.00000  Uiso   1.00
C590   C     0.84033   0.41293   0.10988   0.00000  Uiso   1.00
C591   C     0.87904   0.39384   0.13576   0.00000  Uiso   1.00
H592   H     0.90435   0.38817   0.11245   0.00000  Uiso   1.00
H593   H     0.89146   0.41647   0.16254   0.00000  Uiso   1.00
H594   H     0.87079   0.36142   0.15140   0.00000  Uiso   1.00
H595   H     0.81211   0.41258   0.12921   0.00000  Uiso   1.00
H596   H     0.83177   0.38892   0.08261   0.00000  Uiso   1.00
C597   C     0.71798   0.48173   0.33351   0.00000  Uiso   1.00
H598   H     0.73750   0.45186   0.32858   0.00000  Uiso   1.00
H599   H     0.73891   0.51080   0.34098   0.00000  Uiso   1.00
H600   H     0.70041   0.47499   0.36370   0.00000  Uiso   1.00
C601   C     0.94919   0.51591   0.16684   0.00000  Uiso   1.00
H602   H     0.92823   0.48671   0.16022   0.00000  Uiso   1.00
H603   H     0.93007   0.54602   0.17125   0.00000  Uiso   1.00
H604   H     0.96661   0.52175   0.13638   0.00000  Uiso   1.00
C605   C     0.95847   0.48750   0.33517   0.00000  Uiso   1.00
H606   H     0.92401   0.49223   0.33204   0.00000  Uiso   1.00
H607   H     0.96406   0.45344   0.34907   0.00000  Uiso   1.00
H608   H     0.97083   0.51283   0.35954   0.00000  Uiso   1.00
C609   C     0.70853   0.51216   0.16547   0.00000  Uiso   1.00
H610   H     0.74311   0.50855   0.16869   0.00000  Uiso   1.00
H611   H     0.69695   0.48625   0.14133   0.00000  Uiso   1.00
H612   H     0.70209   0.54592   0.15121   0.00000  Uiso   1.00
C613   C     0.08707   0.83306   0.25067   0.00000  Uiso   1.00
C614   C     0.24636   0.83355   0.24983   0.00000  Uiso   1.00
C615   C     0.16982   0.83355   0.16366   0.00000  Uiso   1.00
C616   C     0.16418   0.83306   0.33625   0.00000  Uiso   1.00
C617   C     0.19716   0.69063   0.27443   0.00000  Uiso   1.00
C618   C     0.13493   0.97589   0.22748   0.00000  Uiso   1.00
C619   C     0.13596   0.69041   0.22582   0.00000  Uiso   1.00
C620   C     0.19858   0.97618   0.27219   0.00000  Uiso   1.00
C621   C     0.02398   0.82457   0.29110   0.00000  Uiso   1.00
C622   C     0.30970   0.84094   0.20944   0.00000  Uiso   1.00
C623   C     0.31358   0.82629   0.29140   0.00000  Uiso   1.00
C624   C     0.02005   0.83976   0.20921   0.00000  Uiso   1.00
C625   C     0.20431   0.87298   0.04932   0.00000  Uiso   1.00
C626   C     0.19877   0.79800   0.45028   0.00000  Uiso   1.00
C627   C     0.17284   0.87320   0.45489   0.00000  Uiso   1.00
C628   C     0.18903   0.79443   0.04613   0.00000  Uiso   1.00
C629   C     0.19428   0.87432   0.09413   0.00000  Uiso   1.00
C630   C     0.17710   0.79322   0.40903   0.00000  Uiso   1.00
C631   C     0.15902   0.87224   0.40984   0.00000  Uiso   1.00
C632   C     0.18203   0.79283   0.09144   0.00000  Uiso   1.00
C633   C     0.18125   0.83380   0.11598   0.00000  Uiso   1.00
C634   C     0.16419   0.83237   0.38541   0.00000  Uiso   1.00
C635   C     0.19851   0.83425   0.02444   0.00000  Uiso   1.00
C636   C     0.19358   0.83658   0.47524   0.00000  Uiso   1.00
C637   C     0.29073   0.83402   0.25039   0.00000  Uiso   1.00
C638   C     0.04285   0.83230   0.25024   0.00000  Uiso   1.00
H639   H     0.21342   0.90352   0.03256   0.00000  Uiso   1.00
H640   H     0.21414   0.76901   0.46528   0.00000  Uiso   1.00
H641   H     0.16541   0.90208   0.47439   0.00000  Uiso   1.00
H642   H     0.18442   0.76406   0.02725   0.00000  Uiso   1.00
N643   N     0.16667   0.95240   0.25000   0.00000  Uiso   1.00
N644   N     0.16667   0.71427   0.25000   0.00000  Uiso   1.00
O645   O     0.10559   0.87154   0.24999   0.00000  Uiso   1.00
O646   O     0.22774   0.79513   0.25000   0.00000  Uiso   1.00
O647   O     0.22774   0.87154   0.25000   0.00000  Uiso   1.00
O648   O     0.10559   0.79513   0.24999   0.00000  Uiso   1.00
O649   O     0.16666   0.87155   0.18453   0.00000  Uiso   1.00
O650   O     0.16667   0.79511   0.31547   0.00000  Uiso   1.00
O651   O     0.16667   0.87155   0.31547   0.00000  Uiso   1.00
O652   O     0.16666   0.79511   0.18453   0.00000  Uiso   1.00
Zn653  Zn    0.16667   0.88437   0.25000   0.00000  Uiso   1.00
Zn654  Zn    0.16667   0.78229   0.25000   0.00000  Uiso   1.00
C655   C     0.22979   0.71460   0.30412   0.00000  Uiso   1.00
H656   H     0.22228   0.74916   0.31054   0.00000  Uiso   1.00
H657   H     0.23170   0.69925   0.33800   0.00000  Uiso   1.00
H658   H     0.26094   0.71336   0.28931   0.00000  Uiso   1.00
C659   C     0.09780   0.95074   0.20590   0.00000  Uiso   1.00
H660   H     0.10837   0.92077   0.18908   0.00000  Uiso   1.00
H661   H     0.07534   0.94239   0.23179   0.00000  Uiso   1.00
H662   H     0.07953   0.96874   0.17918   0.00000  Uiso   1.00
C663   C     0.10207   0.71420   0.19779   0.00000  Uiso   1.00
H664   H     0.10869   0.74935   0.19208   0.00000  Uiso   1.00
H665   H     0.09953   0.70068   0.16339   0.00000  Uiso   1.00
H666   H     0.07141   0.71066   0.21344   0.00000  Uiso   1.00
C667   C     0.23657   0.95160   0.29209   0.00000  Uiso   1.00
H668   H     0.22702   0.92149   0.31049   0.00000  Uiso   1.00
H669   H     0.25721   0.94327   0.26477   0.00000  Uiso   1.00
H670   H     0.25672   0.97042   0.31665   0.00000  Uiso   1.00
C671   C     0.19490   0.92094   0.11410   0.00000  Uiso   1.00
C672   C     0.15186   0.94260   0.10647   0.00000  Uiso   1.00
H673   H     0.12647   0.91942   0.11609   0.00000  Uiso   1.00
H674   H     0.15061   0.97355   0.12642   0.00000  Uiso   1.00
H675   H     0.14617   0.95140   0.07049   0.00000  Uiso   1.00
H676   H     0.20634   0.92212   0.14960   0.00000  Uiso   1.00
H677   H     0.21812   0.94259   0.09758   0.00000  Uiso   1.00
C678   C     0.16200   0.74640   0.39625   0.00000  Uiso   1.00
C679   C     0.13455   0.72648   0.43200   0.00000  Uiso   1.00
H680   H     0.15391   0.71768   0.46279   0.00000  Uiso   1.00
H681   H     0.10998   0.75058   0.44048   0.00000  Uiso   1.00
H682   H     0.11852   0.69568   0.41929   0.00000  Uiso   1.00
H683   H     0.14183   0.74565   0.36498   0.00000  Uiso   1.00
H684   H     0.18942   0.72456   0.39242   0.00000  Uiso   1.00
C685   C     0.13509   0.91257   0.39137   0.00000  Uiso   1.00
C686   C     0.16428   0.95290   0.38679   0.00000  Uiso   1.00
H687   H     0.17288   0.96718   0.42024   0.00000  Uiso   1.00
H688   H     0.19355   0.94319   0.37144   0.00000  Uiso   1.00
H689   H     0.14836   0.97885   0.36540   0.00000  Uiso   1.00
H690   H     0.11781   0.90586   0.35894   0.00000  Uiso   1.00
H691   H     0.11034   0.92119   0.41450   0.00000  Uiso   1.00
C692   C     0.17366   0.74626   0.10988   0.00000  Uiso   1.00
C693   C     0.21237   0.72717   0.13576   0.00000  Uiso   1.00
H694   H     0.23768   0.72151   0.11245   0.00000  Uiso   1.00
H695   H     0.22479   0.74980   0.16254   0.00000  Uiso   1.00
H696   H     0.20413   0.69475   0.15140   0.00000  Uiso   1.00
H697   H     0.14544   0.74592   0.12921   0.00000  Uiso   1.00
H698   H     0.16511   0.72225   0.08261   0.00000  Uiso   1.00
C699   C     0.05132   0.81507   0.33351   0.00000  Uiso   1.00
H700   H     0.07083   0.78520   0.32858   0.00000  Uiso   1.00
H701   H     0.07224   0.84413   0.34098   0.00000  Uiso   1.00
H702   H     0.03374   0.80832   0.36370   0.00000  Uiso   1.00
C703   C     0.28252   0.84925   0.16684   0.00000  Uiso   1.00
H704   H     0.26156   0.82004   0.16022   0.00000  Uiso   1.00
H705   H     0.26340   0.87935   0.17125   0.00000  Uiso   1.00
H706   H     0.29994   0.85508   0.13638   0.00000  Uiso   1.00
C707   C     0.29180   0.82083   0.33517   0.00000  Uiso   1.00
H708   H     0.25735   0.82556   0.33204   0.00000  Uiso   1.00
H709   H     0.29739   0.78677   0.34907   0.00000  Uiso   1.00
H710   H     0.30417   0.84616   0.35954   0.00000  Uiso   1.00
C711   C     0.04187   0.84549   0.16547   0.00000  Uiso   1.00
H712   H     0.07645   0.84188   0.16869   0.00000  Uiso   1.00
H713   H     0.03028   0.81958   0.14133   0.00000  Uiso   1.00
H714   H     0.03542   0.87925   0.15121   0.00000  Uiso   1.00
C715   C     0.42040   0.83306   0.25067   0.00000  Uiso   1.00
C716   C     0.57970   0.83355   0.24983   0.00000  Uiso   1.00
C717   C     0.50315   0.83355   0.16366   0.00000  Uiso   1.00
C718   C     0.49752   0.83306   0.33625   0.00000  Uiso   1.00
C719   C     0.53049   0.69063   0.27443   0.00000  Uiso   1.00
C720   C     0.46826   0.97589   0.22748   0.00000  Uiso   1.00
C721   C     0.46929   0.69041   0.22582   0.00000  Uiso   1.00
C722   C     0.53192   0.97618   0.27219   0.00000  Uiso   1.00
C723   C     0.35731   0.82457   0.29110   0.00000  Uiso   1.00
C724   C     0.64303   0.84094   0.20944   0.00000  Uiso   1.00
C725   C     0.64691   0.82629   0.29140   0.00000  Uiso   1.00
C726   C     0.35339   0.83976   0.20921   0.00000  Uiso   1.00
C727   C     0.53764   0.87298   0.04932   0.00000  Uiso   1.00
C728   C     0.53211   0.79800   0.45028   0.00000  Uiso   1.00
C729   C     0.50617   0.87320   0.45489   0.00000  Uiso   1.00
C730   C     0.52236   0.79443   0.04613   0.00000  Uiso   1.00
C731   C     0.52761   0.87432   0.09413   0.00000  Uiso   1.00
C732   C     0.51043   0.79322   0.40903   0.00000  Uiso   1.00
C733   C     0.49236   0.87224   0.40984   0.00000  Uiso   1.00
C734   C     0.51536   0.79283   0.09144   0.00000  Uiso   1.00
C735   C     0.51458   0.83380   0.11598   0.00000  Uiso   1.00
C736   C     0.49752   0.83237   0.38541   0.00000  Uiso   1.00
C737   C     0.53184   0.83425   0.02444   0.00000  Uiso   1.00
C738   C     0.52692   0.83658   0.47524   0.00000  Uiso   1.00
C739   C     0.62406   0.83402   0.25039   0.00000  Uiso   1.00
C740   C     0.37618   0.83230   0.25024   0.00000  Uiso   1.00
H741   H     0.54676   0.90352   0.03256   0.00000  Uiso   1.00
H742   H     0.54747   0.76901   0.46528   0.00000  Uiso   1.00
H743   H     0.49875   0.90208   0.47439   0.00000  Uiso   1.00
H744   H     0.51775   0.76406   0.02725   0.00000  Uiso   1.00
N745   N     0.50000   0.95240   0.25000   0.00000  Uiso   1.00
N746   N     0.50000   0.71427   0.25000   0.00000  Uiso   1.00
O747   O     0.43892   0.87154   0.24999   0.00000  Uiso   1.00
O748   O     0.56108   0.79513   0.25000   0.00000  Uiso   1.00
O749   O     0.56108   0.87154   0.25000   0.00000  Uiso   1.00
O750   O     0.43892   0.79513   0.24999   0.00000  Uiso   1.00
O751   O     0.50000   0.87155   0.18453   0.00000  Uiso   1.00
O752   O     0.50000   0.79511   0.31547   0.00000  Uiso   1.00
O753   O     0.50000   0.87155   0.31547   0.00000  Uiso   1.00
O754   O     0.50000   0.79511   0.18453   0.00000  Uiso   1.00
Zn755  Zn    0.50000   0.88437   0.25000   0.00000  Uiso   1.00
Zn756  Zn    0.50000   0.78229   0.25000   0.00000  Uiso   1.00
C757   C     0.56312   0.71460   0.30412   0.00000  Uiso   1.00
H758   H     0.55561   0.74916   0.31054   0.00000  Uiso   1.00
H759   H     0.56504   0.69925   0.33800   0.00000  Uiso   1.00
H760   H     0.59428   0.71336   0.28931   0.00000  Uiso   1.00
C761   C     0.43113   0.95074   0.20590   0.00000  Uiso   1.00
H762   H     0.44170   0.92077   0.18908   0.00000  Uiso   1.00
H763   H     0.40867   0.94239   0.23179   0.00000  Uiso   1.00
H764   H     0.41286   0.96874   0.17918   0.00000  Uiso   1.00
C765   C     0.43540   0.71420   0.19779   0.00000  Uiso   1.00
H766   H     0.44202   0.74935   0.19208   0.00000  Uiso   1.00
H767   H     0.43287   0.70068   0.16339   0.00000  Uiso   1.00
H768   H     0.40474   0.71066   0.21344   0.00000  Uiso   1.00
C769   C     0.56991   0.95160   0.29209   0.00000  Uiso   1.00
H770   H     0.56035   0.92149   0.31049   0.00000  Uiso   1.00
H771   H     0.59054   0.94327   0.26477   0.00000  Uiso   1.00
H772   H     0.59005   0.97042   0.31665   0.00000  Uiso   1.00
C773   C     0.52823   0.92094   0.11410   0.00000  Uiso   1.00
C774   C     0.48519   0.94260   0.10647   0.00000  Uiso   1.00
H775   H     0.45981   0.91942   0.11609   0.00000  Uiso   1.00
H776   H     0.48394   0.97355   0.12642   0.00000  Uiso   1.00
H777   H     0.47951   0.95140   0.07049   0.00000  Uiso   1.00
H778   H     0.53968   0.92212   0.14960   0.00000  Uiso   1.00
H779   H     0.55145   0.94259   0.09758   0.00000  Uiso   1.00
C780   C     0.49534   0.74640   0.39625   0.00000  Uiso   1.00
C781   C     0.46788   0.72648   0.43200   0.00000  Uiso   1.00
H782   H     0.48725   0.71768   0.46279   0.00000  Uiso   1.00
H783   H     0.44331   0.75058   0.44048   0.00000  Uiso   1.00
H784   H     0.45186   0.69568   0.41929   0.00000  Uiso   1.00
H785   H     0.47516   0.74565   0.36498   0.00000  Uiso   1.00
H786   H     0.52276   0.72456   0.39242   0.00000  Uiso   1.00
C787   C     0.46843   0.91257   0.39137   0.00000  Uiso   1.00
C788   C     0.49761   0.95290   0.38679   0.00000  Uiso   1.00
H789   H     0.50621   0.96718   0.42024   0.00000  Uiso   1.00
H790   H     0.52688   0.94319   0.37144   0.00000  Uiso   1.00
H791   H     0.48169   0.97885   0.36540   0.00000  Uiso   1.00
H792   H     0.45114   0.90586   0.35894   0.00000  Uiso   1.00
H793   H     0.44367   0.92119   0.41450   0.00000  Uiso   1.00
C794   C     0.50700   0.74626   0.10988   0.00000  Uiso   1.00
C795   C     0.54570   0.72717   0.13576   0.00000  Uiso   1.00
H796   H     0.57102   0.72151   0.11245   0.00000  Uiso   1.00
H797   H     0.55813   0.74980   0.16254   0.00000  Uiso   1.00
H798   H     0.53746   0.69475   0.15140   0.00000  Uiso   1.00
H799   H     0.47878   0.74592   0.12921   0.00000  Uiso   1.00
H800   H     0.49844   0.72225   0.08261   0.00000  Uiso   1.00
C801   C     0.38465   0.81507   0.33351   0.00000  Uiso   1.00
H802   H     0.40416   0.78520   0.32858   0.00000  Uiso   1.00
H803   H     0.40558   0.84413   0.34098   0.00000  Uiso   1.00
H804   H     0.36708   0.80832   0.36370   0.00000  Uiso   1.00
C805   C     0.61586   0.84925   0.16684   0.00000  Uiso   1.00
H806   H     0.59490   0.82004   0.16022   0.00000  Uiso   1.00
H807   H     0.59673   0.87935   0.17125   0.00000  Uiso   1.00
H808   H     0.63328   0.85508   0.13638   0.00000  Uiso   1.00
C809   C     0.62514   0.82083   0.33517   0.00000  Uiso   1.00
H810   H     0.59068   0.82556   0.33204   0.00000  Uiso   1.00
H811   H     0.63072   0.78677   0.34907   0.00000  Uiso   1.00
H812   H     0.63750   0.84616   0.35954   0.00000  Uiso   1.00
C813   C     0.37520   0.84549   0.16547   0.00000  Uiso   1.00
H814   H     0.40978   0.84188   0.16869   0.00000  Uiso   1.00
H815   H     0.36361   0.81958   0.14133   0.00000  Uiso   1.00
H816   H     0.36875   0.87925   0.15121   0.00000  Uiso   1.00
C817   C     0.75374   0.83306   0.25067   0.00000  Uiso   1.00
C818   C     0.91303   0.83355   0.24983   0.00000  Uiso   1.00
C819   C     0.83649   0.83355   0.16366   0.00000  Uiso   1.00
C820   C     0.83085   0.83306   0.33625   0.00000  Uiso   1.00
C821   C     0.86383   0.69063   0.27443   0.00000  Uiso   1.00
C822   C     0.80159   0.97589   0.22748   0.00000  Uiso   1.00
C823   C     0.80262   0.69041   0.22582   0.00000  Uiso   1.00
C824   C     0.86525   0.97618   0.27219   0.00000  Uiso   1.00
C825   C     0.69064   0.82457   0.29110   0.00000  Uiso   1.00
C826   C     0.97636   0.84094   0.20944   0.00000  Uiso   1.00
C827   C     0.98024   0.82629   0.29140   0.00000  Uiso   1.00
C828   C     0.68672   0.83976   0.20921   0.00000  Uiso   1.00
C829   C     0.87097   0.87298   0.04932   0.00000  Uiso   1.00
C830   C     0.86544   0.79800   0.45028   0.00000  Uiso   1.00
C831   C     0.83950   0.87320   0.45489   0.00000  Uiso   1.00
C832   C     0.85570   0.79443   0.04613   0.00000  Uiso   1.00
C833   C     0.86095   0.87432   0.09413   0.00000  Uiso   1.00
C834   C     0.84376   0.79322   0.40903   0.00000  Uiso   1.00
C835   C     0.82569   0.87224   0.40984   0.00000  Uiso   1.00
C836   C     0.84869   0.79283   0.09144   0.00000  Uiso   1.00
C837   C     0.84792   0.83380   0.11598   0.00000  Uiso   1.00
C838   C     0.83085   0.83237   0.38541   0.00000  Uiso   1.00
C839   C     0.86518   0.83425   0.02444   0.00000  Uiso   1.00
C840   C     0.86025   0.83658   0.47524   0.00000  Uiso   1.00
C841   C     0.95739   0.83402   0.25039   0.00000  Uiso   1.00
C842   C     0.70951   0.83230   0.25024   0.00000  Uiso   1.00
H843   H     0.88009   0.90352   0.03256   0.00000  Uiso   1.00
H844   H     0.88081   0.76901   0.46528   0.00000  Uiso   1.00
H845   H     0.83208   0.90208   0.47439   0.00000  Uiso   1.00
H846   H     0.85108   0.76406   0.02725   0.00000  Uiso   1.00
N847   N     0.83333   0.95240   0.25000   0.00000  Uiso   1.00
N848   N     0.83333   0.71427   0.25000   0.00000  Uiso   1.00
O849   O     0.77226   0.87154   0.24999   0.00000  Uiso   1.00
O850   O     0.89441   0.79513   0.25000   0.00000  Uiso   1.00
O851   O     0.89441   0.87154   0.25000   0.00000  Uiso   1.00
O852   O     0.77226   0.79513   0.24999   0.00000  Uiso   1.00
O853   O     0.83333   0.87155   0.18453   0.00000  Uiso   1.00
O854   O     0.83334   0.79511   0.31547   0.00000  Uiso   1.00
O855   O     0.83334   0.87155   0.31547   0.00000  Uiso   1.00
O856   O     0.83333   0.79511   0.18453   0.00000  Uiso   1.00
Zn857  Zn    0.83333   0.88437   0.25000   0.00000  Uiso   1.00
Zn858  Zn    0.83333   0.78229   0.25000   0.00000  Uiso   1.00
C859   C     0.89646   0.71460   0.30412   0.00000  Uiso   1.00
H860   H     0.88894   0.74916   0.31054   0.00000  Uiso   1.00
H861   H     0.89837   0.69925   0.33800   0.00000  Uiso   1.00
H862   H     0.92761   0.71336   0.28931   0.00000  Uiso   1.00
C863   C     0.76446   0.95074   0.20590   0.00000  Uiso   1.00
H864   H     0.77504   0.92077   0.18908   0.00000  Uiso   1.00
H865   H     0.74200   0.94239   0.23179   0.00000  Uiso   1.00
H866   H     0.74619   0.96874   0.17918   0.00000  Uiso   1.00
C867   C     0.76874   0.71420   0.19779   0.00000  Uiso   1.00
H868   H     0.77536   0.74935   0.19208   0.00000  Uiso   1.00
H869   H     0.76620   0.70068   0.16339   0.00000  Uiso   1.00
H870   H     0.73807   0.71066   0.21344   0.00000  Uiso   1.00
C871   C     0.90324   0.95160   0.29209   0.00000  Uiso   1.00
H872   H     0.89369   0.92149   0.31049   0.00000  Uiso   1.00
H873   H     0.92387   0.94327   0.26477   0.00000  Uiso   1.00
H874   H     0.92339   0.97042   0.31665   0.00000  Uiso   1.00
C875   C     0.86156   0.92094   0.11410   0.00000  Uiso   1.00
C876   C     0.81852   0.94260   0.10647   0.00000  Uiso   1.00
H877   H     0.79314   0.91942   0.11609   0.00000  Uiso   1.00
H878   H     0.81727   0.97355   0.12642   0.00000  Uiso   1.00
H879   H     0.81284   0.95140   0.07049   0.00000  Uiso   1.00
H880   H     0.87301   0.92212   0.14960   0.00000  Uiso   1.00
H881   H     0.88478   0.94259   0.09758   0.00000  Uiso   1.00
C882   C     0.82867   0.74640   0.39625   0.00000  Uiso   1.00
C883   C     0.80122   0.72648   0.43200   0.00000  Uiso   1.00
H884   H     0.82058   0.71768   0.46279   0.00000  Uiso   1.00
H885   H     0.77664   0.75058   0.44048   0.00000  Uiso   1.00
H886   H     0.78519   0.69568   0.41929   0.00000  Uiso   1.00
H887   H     0.80849   0.74565   0.36498   0.00000  Uiso   1.00
H888   H     0.85609   0.72456   0.39242   0.00000  Uiso   1.00
C889   C     0.80176   0.91257   0.39137   0.00000  Uiso   1.00
C890   C     0.83095   0.95290   0.38679   0.00000  Uiso   1.00
H891   H     0.83954   0.96718   0.42024   0.00000  Uiso   1.00
H892   H     0.86021   0.94319   0.37144   0.00000  Uiso   1.00
H893   H     0.81503   0.97885   0.36540   0.00000  Uiso   1.00
H894   H     0.78447   0.90586   0.35894   0.00000  Uiso   1.00
H895   H     0.77701   0.92119   0.41450   0.00000  Uiso   1.00
C896   C     0.84033   0.74626   0.10988   0.00000  Uiso   1.00
C897   C     0.87904   0.72717   0.13576   0.00000  Uiso   1.00
H898   H     0.90435   0.72151   0.11245   0.00000  Uiso   1.00
H899   H     0.89146   0.74980   0.16254   0.00000  Uiso   1.00
H900   H     0.87079   0.69475   0.15140   0.00000  Uiso   1.00
H901   H     0.81211   0.74592   0.12921   0.00000  Uiso   1.00
H902   H     0.83177   0.72225   0.08261   0.00000  Uiso   1.00
C903   C     0.71798   0.81507   0.33351   0.00000  Uiso   1.00
H904   H     0.73750   0.78520   0.32858   0.00000  Uiso   1.00
H905   H     0.73891   0.84413   0.34098   0.00000  Uiso   1.00
H906   H     0.70041   0.80832   0.36370   0.00000  Uiso   1.00
C907   C     0.94919   0.84925   0.16684   0.00000  Uiso   1.00
H908   H     0.92823   0.82004   0.16022   0.00000  Uiso   1.00
H909   H     0.93007   0.87935   0.17125   0.00000  Uiso   1.00
H910   H     0.96661   0.85508   0.13638   0.00000  Uiso   1.00
C911   C     0.95847   0.82083   0.33517   0.00000  Uiso   1.00
H912   H     0.92401   0.82556   0.33204   0.00000  Uiso   1.00
H913   H     0.96406   0.78677   0.34907   0.00000  Uiso   1.00
H914   H     0.97083   0.84616   0.35954   0.00000  Uiso   1.00
C915   C     0.70853   0.84549   0.16547   0.00000  Uiso   1.00
H916   H     0.74311   0.84188   0.16869   0.00000  Uiso   1.00
H917   H     0.69695   0.81958   0.14133   0.00000  Uiso   1.00
H918   H     0.70209   0.87925   0.15121   0.00000  Uiso   1.00
C919   C     0.08707   0.16640   0.75067   0.00000  Uiso   1.00
C920   C     0.24636   0.16688   0.74983   0.00000  Uiso   1.00
C921   C     0.16982   0.16688   0.66366   0.00000  Uiso   1.00
C922   C     0.16418   0.16639   0.83625   0.00000  Uiso   1.00
C923   C     0.19716   0.02396   0.77443   0.00000  Uiso   1.00
C924   C     0.13493   0.30922   0.72748   0.00000  Uiso   1.00
C925   C     0.13596   0.02375   0.72582   0.00000  Uiso   1.00
C926   C     0.19858   0.30952   0.77219   0.00000  Uiso   1.00
C927   C     0.02398   0.15790   0.79110   0.00000  Uiso   1.00
C928   C     0.30970   0.17427   0.70944   0.00000  Uiso   1.00
C929   C     0.31358   0.15962   0.79140   0.00000  Uiso   1.00
C930   C     0.02005   0.17309   0.70921   0.00000  Uiso   1.00
C931   C     0.20431   0.20631   0.54932   0.00000  Uiso   1.00
C932   C     0.19877   0.13133   0.95028   0.00000  Uiso   1.00
C933   C     0.17284   0.20653   0.95489   0.00000  Uiso   1.00
C934   C     0.18903   0.12776   0.54613   0.00000  Uiso   1.00
C935   C     0.19428   0.20765   0.59413   0.00000  Uiso   1.00
C936   C     0.17710   0.12656   0.90903   0.00000  Uiso   1.00
C937   C     0.15902   0.20557   0.90984   0.00000  Uiso   1.00
C938   C     0.18203   0.12617   0.59144   0.00000  Uiso   1.00
C939   C     0.18125   0.16714   0.61598   0.00000  Uiso   1.00
C940   C     0.16419   0.16571   0.88541   0.00000  Uiso   1.00
C941   C     0.19851   0.16758   0.52444   0.00000  Uiso   1.00
C942   C     0.19358   0.16991   0.97524   0.00000  Uiso   1.00
C943   C     0.29073   0.16735   0.75039   0.00000  Uiso   1.00
C944   C     0.04285   0.16564   0.75024   0.00000  Uiso   1.00
H945   H     0.21342   0.23685   0.53256   0.00000  Uiso   1.00
H946   H     0.21414   0.10235   0.96528   0.00000  Uiso   1.00
H947   H     0.16541   0.23541   0.97439   0.00000  Uiso   1.00
H948   H     0.18442   0.09739   0.52725   0.00000  Uiso   1.00
N949   N     0.16667   0.28573   0.75000   0.00000  Uiso   1.00
N950   N     0.16667   0.04760   0.75000   0.00000  Uiso   1.00
O951   O     0.10559   0.20487   0.74999   0.00000  Uiso   1.00
O952   O     0.22774   0.12846   0.75000   0.00000  Uiso   1.00
O953   O     0.22774   0.20487   0.75000   0.00000  Uiso   1.00
O954   O     0.10559   0.12846   0.74999   0.00000  Uiso   1.00
O955   O     0.16666   0.20489   0.68453   0.00000  Uiso   1.00
O956   O     0.16667   0.12845   0.81547   0.00000  Uiso   1.00
O957   O     0.16667   0.20489   0.81547   0.00000  Uiso   1.00
O958   O     0.16666   0.12845   0.68453   0.00000  Uiso   1.00
Zn959  Zn    0.16667   0.21771   0.75000   0.00000  Uiso   1.00
Zn960  Zn    0.16667   0.11563   0.75000   0.00000  Uiso   1.00
C961   C     0.22979   0.04793   0.80412   0.00000  Uiso   1.00
H962   H     0.22228   0.08249   0.81054   0.00000  Uiso   1.00
H963   H     0.23170   0.03259   0.83800   0.00000  Uiso   1.00
H964   H     0.26094   0.04669   0.78931   0.00000  Uiso   1.00
C965   C     0.09780   0.28407   0.70590   0.00000  Uiso   1.00
H966   H     0.10837   0.25410   0.68908   0.00000  Uiso   1.00
H967   H     0.07534   0.27572   0.73179   0.00000  Uiso   1.00
H968   H     0.07953   0.30208   0.67918   0.00000  Uiso   1.00
C969   C     0.10207   0.04754   0.69779   0.00000  Uiso   1.00
H970   H     0.10869   0.08268   0.69208   0.00000  Uiso   1.00
H971   H     0.09953   0.03402   0.66339   0.00000  Uiso   1.00
H972   H     0.07141   0.04400   0.71344   0.00000  Uiso   1.00
C973   C     0.23657   0.28493   0.79209   0.00000  Uiso   1.00
H974   H     0.22702   0.25482   0.81049   0.00000  Uiso   1.00
H975   H     0.25721   0.27661   0.76477   0.00000  Uiso   1.00
H976   H     0.25672   0.30375   0.81665   0.00000  Uiso   1.00
C977   C     0.19490   0.25427   0.61410   0.00000  Uiso   1.00
C978   C     0.15186   0.27593   0.60647   0.00000  Uiso   1.00
H979   H     0.12647   0.25276   0.61609   0.00000  Uiso   1.00
H980   H     0.15061   0.30688   0.62642   0.00000  Uiso   1.00
H981   H     0.14617   0.28473   0.57049   0.00000  Uiso   1.00
H982   H     0.20634   0.25545   0.64960   0.00000  Uiso   1.00
H983   H     0.21812   0.27592   0.59758   0.00000  Uiso   1.00
C984   C     0.16200   0.07974   0.89625   0.00000  Uiso   1.00
C985   C     0.13455   0.05981   0.93200   0.00000  Uiso   1.00
H986   H     0.15391   0.05101   0.96279   0.00000  Uiso   1.00
H987   H     0.10998   0.08392   0.94048   0.00000  Uiso   1.00
H988   H     0.11852   0.02902   0.91929   0.00000  Uiso   1.00
H989   H     0.14183   0.07898   0.86498   0.00000  Uiso   1.00
H990   H     0.18942   0.05789   0.89242   0.00000  Uiso   1.00
C991   C     0.13509   0.24590   0.89137   0.00000  Uiso   1.00
C992   C     0.16428   0.28623   0.88679   0.00000  Uiso   1.00
H993   H     0.17288   0.30052   0.92024   0.00000  Uiso   1.00
H994   H     0.19355   0.27652   0.87144   0.00000  Uiso   1.00
H995   H     0.14836   0.31218   0.86540   0.00000  Uiso   1.00
H996   H     0.11781   0.23920   0.85894   0.00000  Uiso   1.00
H997   H     0.11034   0.25452   0.91450   0.00000  Uiso   1.00
C998   C     0.17366   0.07959   0.60988   0.00000  Uiso   1.00
C999   C     0.21237   0.06051   0.63576   0.00000  Uiso   1.00
H1000  H     0.23768   0.05484   0.61245   0.00000  Uiso   1.00
H1001  H     0.22479   0.08314   0.66254   0.00000  Uiso   1.00
H1002  H     0.20413   0.02808   0.65140   0.00000  Uiso   1.00
H1003  H     0.14544   0.07925   0.62921   0.00000  Uiso   1.00
H1004  H     0.16511   0.05558   0.58261   0.00000  Uiso   1.00
C1005  C     0.05132   0.14840   0.83351   0.00000  Uiso   1.00
H1006  H     0.07083   0.11853   0.82858   0.00000  Uiso   1.00
H1007  H     0.07224   0.17747   0.84098   0.00000  Uiso   1.00
H1008  H     0.03374   0.14165   0.86370   0.00000  Uiso   1.00
C1009  C     0.28252   0.18258   0.66684   0.00000  Uiso   1.00
H1010  H     0.26156   0.15338   0.66022   0.00000  Uiso   1.00
H1011  H     0.26340   0.21268   0.67125   0.00000  Uiso   1.00
H1012  H     0.29994   0.18841   0.63638   0.00000  Uiso   1.00
C1013  C     0.29180   0.15416   0.83517   0.00000  Uiso   1.00
H1014  H     0.25735   0.15889   0.83204   0.00000  Uiso   1.00
H1015  H     0.29739   0.12010   0.84907   0.00000  Uiso   1.00
H1016  H     0.30417   0.17950   0.85954   0.00000  Uiso   1.00
C1017  C     0.04187   0.17882   0.66547   0.00000  Uiso   1.00
H1018  H     0.07645   0.17521   0.66869   0.00000  Uiso   1.00
H1019  H     0.03028   0.15292   0.64133   0.00000  Uiso   1.00
H1020  H     0.03542   0.21259   0.65121   0.00000  Uiso   1.00
C1021  C     0.42040   0.16640   0.75067   0.00000  Uiso   1.00
C1022  C     0.57970   0.16688   0.74983   0.00000  Uiso   1.00
C1023  C     0.50315   0.16688   0.66366   0.00000  Uiso   1.00
C1024  C     0.49752   0.16639   0.83625   0.00000  Uiso   1.00
C1025  C     0.53049   0.02396   0.77443   0.00000  Uiso   1.00
C1026  C     0.46826   0.30922   0.72748   0.00000  Uiso   1.00
C1027  C     0.46929   0.02375   0.72582   0.00000  Uiso   1.00
C1028  C     0.53192   0.30952   0.77219   0.00000  Uiso   1.00
C1029  C     0.35731   0.15790   0.79110   0.00000  Uiso   1.00
C1030  C     0.64303   0.17427   0.70944   0.00000  Uiso   1.00
C1031  C     0.64691   0.15962   0.79140   0.00000  Uiso   1.00
C1032  C     0.35339   0.17309   0.70921   0.00000  Uiso   1.00
C1033  C     0.53764   0.20631   0.54932   0.00000  Uiso   1.00
C1034  C     0.53211   0.13133   0.95028   0.00000  Uiso   1.00
C1035  C     0.50617   0.20653   0.95489   0.00000  Uiso   1.00
C1036  C     0.52236   0.12776   0.54613   0.00000  Uiso   1.00
C1037  C     0.52761   0.20765   0.59413   0.00000  Uiso   1.00
C1038  C     0.51043   0.12656   0.90903   0.00000  Uiso   1.00
C1039  C     0.49236   0.20557   0.90984   0.00000  Uiso   1.00
C1040  C     0.51536   0.12617   0.59144   0.00000  Uiso   1.00
C1041  C     0.51458   0.16714   0.61598   0.00000  Uiso   1.00
C1042  C     0.49752   0.16571   0.88541   0.00000  Uiso   1.00
C1043  C     0.53184   0.16758   0.52444   0.00000  Uiso   1.00
C1044  C     0.52692   0.16991   0.97524   0.00000  Uiso   1.00
C1045  C     0.62406   0.16735   0.75039   0.00000  Uiso   1.00
C1046  C     0.37618   0.16564   0.75024   0.00000  Uiso   1.00
H1047  H     0.54676   0.23685   0.53256   0.00000  Uiso   1.00
H1048  H     0.54747   0.10235   0.96528   0.00000  Uiso   1.00
H1049  H     0.49875   0.23541   0.97439   0.00000  Uiso   1.00
H1050  H     0.51775   0.09739   0.52725   0.00000  Uiso   1.00
N1051  N     0.50000   0.28573   0.75000   0.00000  Uiso   1.00
N1052  N     0.50000   0.04760   0.75000   0.00000  Uiso   1.00
O1053  O     0.43892   0.20487   0.74999   0.00000  Uiso   1.00
O1054  O     0.56108   0.12846   0.75000   0.00000  Uiso   1.00
O1055  O     0.56108   0.20487   0.75000   0.00000  Uiso   1.00
O1056  O     0.43892   0.12846   0.74999   0.00000  Uiso   1.00
O1057  O     0.50000   0.20489   0.68453   0.00000  Uiso   1.00
O1058  O     0.50000   0.12845   0.81547   0.00000  Uiso   1.00
O1059  O     0.50000   0.20489   0.81547   0.00000  Uiso   1.00
O1060  O     0.50000   0.12845   0.68453   0.00000  Uiso   1.00
Zn1061 Zn    0.50000   0.21771   0.75000   0.00000  Uiso   1.00
Zn1062 Zn    0.50000   0.11563   0.75000   0.00000  Uiso   1.00
C1063  C     0.56312   0.04793   0.80412   0.00000  Uiso   1.00
H1064  H     0.55561   0.08249   0.81054   0.00000  Uiso   1.00
H1065  H     0.56504   0.03259   0.83800   0.00000  Uiso   1.00
H1066  H     0.59428   0.04669   0.78931   0.00000  Uiso   1.00
C1067  C     0.43113   0.28407   0.70590   0.00000  Uiso   1.00
H1068  H     0.44170   0.25410   0.68908   0.00000  Uiso   1.00
H1069  H     0.40867   0.27572   0.73179   0.00000  Uiso   1.00
H1070  H     0.41286   0.30208   0.67918   0.00000  Uiso   1.00
C1071  C     0.43540   0.04754   0.69779   0.00000  Uiso   1.00
H1072  H     0.44202   0.08268   0.69208   0.00000  Uiso   1.00
H1073  H     0.43287   0.03402   0.66339   0.00000  Uiso   1.00
H1074  H     0.40474   0.04400   0.71344   0.00000  Uiso   1.00
C1075  C     0.56991   0.28493   0.79209   0.00000  Uiso   1.00
H1076  H     0.56035   0.25482   0.81049   0.00000  Uiso   1.00
H1077  H     0.59054   0.27661   0.76477   0.00000  Uiso   1.00
H1078  H     0.59005   0.30375   0.81665   0.00000  Uiso   1.00
C1079  C     0.52823   0.25427   0.61410   0.00000  Uiso   1.00
C1080  C     0.48519   0.27593   0.60647   0.00000  Uiso   1.00
H1081  H     0.45981   0.25276   0.61609   0.00000  Uiso   1.00
H1082  H     0.48394   0.30688   0.62642   0.00000  Uiso   1.00
H1083  H     0.47951   0.28473   0.57049   0.00000  Uiso   1.00
H1084  H     0.53968   0.25545   0.64960   0.00000  Uiso   1.00
H1085  H     0.55145   0.27592   0.59758   0.00000  Uiso   1.00
C1086  C     0.49534   0.07974   0.89625   0.00000  Uiso   1.00
C1087  C     0.46788   0.05981   0.93200   0.00000  Uiso   1.00
H1088  H     0.48725   0.05101   0.96279   0.00000  Uiso   1.00
H1089  H     0.44331   0.08392   0.94048   0.00000  Uiso   1.00
H1090  H     0.45186   0.02902   0.91929   0.00000  Uiso   1.00
H1091  H     0.47516   0.07898   0.86498   0.00000  Uiso   1.00
H1092  H     0.52276   0.05789   0.89242   0.00000  Uiso   1.00
C1093  C     0.46843   0.24590   0.89137   0.00000  Uiso   1.00
C1094  C     0.49761   0.28623   0.88679   0.00000  Uiso   1.00
H1095  H     0.50621   0.30052   0.92024   0.00000  Uiso   1.00
H1096  H     0.52688   0.27652   0.87144   0.00000  Uiso   1.00
H1097  H     0.48169   0.31218   0.86540   0.00000  Uiso   1.00
H1098  H     0.45114   0.23920   0.85894   0.00000  Uiso   1.00
H1099  H     0.44367   0.25452   0.91450   0.00000  Uiso   1.00
C1100  C     0.50700   0.07959   0.60988   0.00000  Uiso   1.00
C1101  C     0.54570   0.06051   0.63576   0.00000  Uiso   1.00
H1102  H     0.57102   0.05484   0.61245   0.00000  Uiso   1.00
H1103  H     0.55813   0.08314   0.66254   0.00000  Uiso   1.00
H1104  H     0.53746   0.02808   0.65140   0.00000  Uiso   1.00
H1105  H     0.47878   0.07925   0.62921   0.00000  Uiso   1.00
H1106  H     0.49844   0.05558   0.58261   0.00000  Uiso   1.00
C1107  C     0.38465   0.14840   0.83351   0.00000  Uiso   1.00
H1108  H     0.40416   0.11853   0.82858   0.00000  Uiso   1.00
H1109  H     0.40558   0.17747   0.84098   0.00000  Uiso   1.00
H1110  H     0.36708   0.14165   0.86370   0.00000  Uiso   1.00
C1111  C     0.61586   0.18258   0.66684   0.00000  Uiso   1.00
H1112  H     0.59490   0.15338   0.66022   0.00000  Uiso   1.00
H1113  H     0.59673   0.21268   0.67125   0.00000  Uiso   1.00
H1114  H     0.63328   0.18841   0.63638   0.00000  Uiso   1.00
C1115  C     0.62514   0.15416   0.83517   0.00000  Uiso   1.00
H1116  H     0.59068   0.15889   0.83204   0.00000  Uiso   1.00
H1117  H     0.63072   0.12010   0.84907   0.00000  Uiso   1.00
H1118  H     0.63750   0.17950   0.85954   0.00000  Uiso   1.00
C1119  C     0.37520   0.17882   0.66547   0.00000  Uiso   1.00
H1120  H     0.40978   0.17521   0.66869   0.00000  Uiso   1.00
H1121  H     0.36361   0.15292   0.64133   0.00000  Uiso   1.00
H1122  H     0.36875   0.21259   0.65121   0.00000  Uiso   1.00
C1123  C     0.75374   0.16640   0.75067   0.00000  Uiso   1.00
C1124  C     0.91303   0.16688   0.74983   0.00000  Uiso   1.00
C1125  C     0.83649   0.16688   0.66366   0.00000  Uiso   1.00
C1126  C     0.83085   0.16639   0.83625   0.00000  Uiso   1.00
C1127  C     0.86383   0.02396   0.77443   0.00000  Uiso   1.00
C1128  C     0.80159   0.30922   0.72748   0.00000  Uiso   1.00
C1129  C     0.80262   0.02375   0.72582   0.00000  Uiso   1.00
C1130  C     0.86525   0.30952   0.77219   0.00000  Uiso   1.00
C1131  C     0.69064   0.15790   0.79110   0.00000  Uiso   1.00
C1132  C     0.97636   0.17427   0.70944   0.00000  Uiso   1.00
C1133  C     0.98024   0.15962   0.79140   0.00000  Uiso   1.00
C1134  C     0.68672   0.17309   0.70921   0.00000  Uiso   1.00
C1135  C     0.87097   0.20631   0.54932   0.00000  Uiso   1.00
C1136  C     0.86544   0.13133   0.95028   0.00000  Uiso   1.00
C1137  C     0.83950   0.20653   0.95489   0.00000  Uiso   1.00
C1138  C     0.85570   0.12776   0.54613   0.00000  Uiso   1.00
C1139  C     0.86095   0.20765   0.59413   0.00000  Uiso   1.00
C1140  C     0.84376   0.12656   0.90903   0.00000  Uiso   1.00
C1141  C     0.82569   0.20557   0.90984   0.00000  Uiso   1.00
C1142  C     0.84869   0.12617   0.59144   0.00000  Uiso   1.00
C1143  C     0.84792   0.16714   0.61598   0.00000  Uiso   1.00
C1144  C     0.83085   0.16571   0.88541   0.00000  Uiso   1.00
C1145  C     0.86518   0.16758   0.52444   0.00000  Uiso   1.00
C1146  C     0.86025   0.16991   0.97524   0.00000  Uiso   1.00
C1147  C     0.95739   0.16735   0.75039   0.00000  Uiso   1.00
C1148  C     0.70951   0.16564   0.75024   0.00000  Uiso   1.00
H1149  H     0.88009   0.23685   0.53256   0.00000  Uiso   1.00
H1150  H     0.88081   0.10235   0.96528   0.00000  Uiso   1.00
H1151  H     0.83208   0.23541   0.97439   0.00000  Uiso   1.00
H1152  H     0.85108   0.09739   0.52725   0.00000  Uiso   1.00
N1153  N     0.83333   0.28573   0.75000   0.00000  Uiso   1.00
N1154  N     0.83333   0.04760   0.75000   0.00000  Uiso   1.00
O1155  O     0.77226   0.20487   0.74999   0.00000  Uiso   1.00
O1156  O     0.89441   0.12846   0.75000   0.00000  Uiso   1.00
O1157  O     0.89441   0.20487   0.75000   0.00000  Uiso   1.00
O1158  O     0.77226   0.12846   0.74999   0.00000  Uiso   1.00
O1159  O     0.83333   0.20489   0.68453   0.00000  Uiso   1.00
O1160  O     0.83334   0.12845   0.81547   0.00000  Uiso   1.00
O1161  O     0.83334   0.20489   0.81547   0.00000  Uiso   1.00
O1162  O     0.83333   0.12845   0.68453   0.00000  Uiso   1.00
Zn1163 Zn    0.83333   0.21771   0.75000   0.00000  Uiso   1.00
Zn1164 Zn    0.83333   0.11563   0.75000   0.00000  Uiso   1.00
C1165  C     0.89646   0.04793   0.80412   0.00000  Uiso   1.00
H1166  H     0.88894   0.08249   0.81054   0.00000  Uiso   1.00
H1167  H     0.89837   0.03259   0.83800   0.00000  Uiso   1.00
H1168  H     0.92761   0.04669   0.78931   0.00000  Uiso   1.00
C1169  C     0.76446   0.28407   0.70590   0.00000  Uiso   1.00
H1170  H     0.77504   0.25410   0.68908   0.00000  Uiso   1.00
H1171  H     0.74200   0.27572   0.73179   0.00000  Uiso   1.00
H1172  H     0.74619   0.30208   0.67918   0.00000  Uiso   1.00
C1173  C     0.76874   0.04754   0.69779   0.00000  Uiso   1.00
H1174  H     0.77536   0.08268   0.69208   0.00000  Uiso   1.00
H1175  H     0.76620   0.03402   0.66339   0.00000  Uiso   1.00
H1176  H     0.73807   0.04400   0.71344   0.00000  Uiso   1.00
C1177  C     0.90324   0.28493   0.79209   0.00000  Uiso   1.00
H1178  H     0.89369   0.25482   0.81049   0.00000  Uiso   1.00
H1179  H     0.92387   0.27661   0.76477   0.00000  Uiso   1.00
H1180  H     0.92339   0.30375   0.81665   0.00000  Uiso   1.00
C1181  C     0.86156   0.25427   0.61410   0.00000  Uiso   1.00
C1182  C     0.81852   0.27593   0.60647   0.00000  Uiso   1.00
H1183  H     0.79314   0.25276   0.61609   0.00000  Uiso   1.00
H1184  H     0.81727   0.30688   0.62642   0.00000  Uiso   1.00
H1185  H     0.81284   0.28473   0.57049   0.00000  Uiso   1.00
H1186  H     0.87301   0.25545   0.64960   0.00000  Uiso   1.00
H1187  H     0.88478   0.27592   0.59758   0.00000  Uiso   1.00
C1188  C     0.82867   0.07974   0.89625   0.00000  Uiso   1.00
C1189  C     0.80122   0.05981   0.93200   0.00000  Uiso   1.00
H1190  H     0.82058   0.05101   0.96279   0.00000  Uiso   1.00
H1191  H     0.77664   0.08392   0.94048   0.00000  Uiso   1.00
H1192  H     0.78519   0.02902   0.91929   0.00000  Uiso   1.00
H1193  H     0.80849   0.07898   0.86498   0.00000  Uiso   1.00
H1194  H     0.85609   0.05789   0.89242   0.00000  Uiso   1.00
C1195  C     0.80176   0.24590   0.89137   0.00000  Uiso   1.00
C1196  C     0.83095   0.28623   0.88679   0.00000  Uiso   1.00
H1197  H     0.83954   0.30052   0.92024   0.00000  Uiso   1.00
H1198  H     0.86021   0.27652   0.87144   0.00000  Uiso   1.00
H1199  H     0.81503   0.31218   0.86540   0.00000  Uiso   1.00
H1200  H     0.78447   0.23920   0.85894   0.00000  Uiso   1.00
H1201  H     0.77701   0.25452   0.91450   0.00000  Uiso   1.00
C1202  C     0.84033   0.07959   0.60988   0.00000  Uiso   1.00
C1203  C     0.87904   0.06051   0.63576   0.00000  Uiso   1.00
H1204  H     0.90435   0.05484   0.61245   0.00000  Uiso   1.00
H1205  H     0.89146   0.08314   0.66254   0.00000  Uiso   1.00
H1206  H     0.87079   0.02808   0.65140   0.00000  Uiso   1.00
H1207  H     0.81211   0.07925   0.62921   0.00000  Uiso   1.00
H1208  H     0.83177   0.05558   0.58261   0.00000  Uiso   1.00
C1209  C     0.71798   0.14840   0.83351   0.00000  Uiso   1.00
H1210  H     0.73750   0.11853   0.82858   0.00000  Uiso   1.00
H1211  H     0.73891   0.17747   0.84098   0.00000  Uiso   1.00
H1212  H     0.70041   0.14165   0.86370   0.00000  Uiso   1.00
C1213  C     0.94919   0.18258   0.66684   0.00000  Uiso   1.00
H1214  H     0.92823   0.15338   0.66022   0.00000  Uiso   1.00
H1215  H     0.93007   0.21268   0.67125   0.00000  Uiso   1.00
H1216  H     0.96661   0.18841   0.63638   0.00000  Uiso   1.00
C1217  C     0.95847   0.15416   0.83517   0.00000  Uiso   1.00
H1218  H     0.92401   0.15889   0.83204   0.00000  Uiso   1.00
H1219  H     0.96406   0.12010   0.84907   0.00000  Uiso   1.00
H1220  H     0.97083   0.17950   0.85954   0.00000  Uiso   1.00
C1221  C     0.70853   0.17882   0.66547   0.00000  Uiso   1.00
H1222  H     0.74311   0.17521   0.66869   0.00000  Uiso   1.00
H1223  H     0.69695   0.15292   0.64133   0.00000  Uiso   1.00
H1224  H     0.70209   0.21259   0.65121   0.00000  Uiso   1.00
C1225  C     0.08707   0.49973   0.75067   0.00000  Uiso   1.00
C1226  C     0.24636   0.50022   0.74983   0.00000  Uiso   1.00
C1227  C     0.16982   0.50021   0.66366   0.00000  Uiso   1.00
C1228  C     0.16418   0.49973   0.83625   0.00000  Uiso   1.00
C1229  C     0.19716   0.35730   0.77443   0.00000  Uiso   1.00
C1230  C     0.13493   0.64255   0.72748   0.00000  Uiso   1.00
C1231  C     0.13596   0.35708   0.72582   0.00000  Uiso   1.00
C1232  C     0.19858   0.64285   0.77219   0.00000  Uiso   1.00
C1233  C     0.02398   0.49123   0.79110   0.00000  Uiso   1.00
C1234  C     0.30970   0.50761   0.70944   0.00000  Uiso   1.00
C1235  C     0.31358   0.49296   0.79140   0.00000  Uiso   1.00
C1236  C     0.02005   0.50642   0.70921   0.00000  Uiso   1.00
C1237  C     0.20431   0.53965   0.54932   0.00000  Uiso   1.00
C1238  C     0.19877   0.46466   0.95028   0.00000  Uiso   1.00
C1239  C     0.17284   0.53986   0.95489   0.00000  Uiso   1.00
C1240  C     0.18903   0.46110   0.54613   0.00000  Uiso   1.00
C1241  C     0.19428   0.54099   0.59413   0.00000  Uiso   1.00
C1242  C     0.17710   0.45989   0.90903   0.00000  Uiso   1.00
C1243  C     0.15902   0.53890   0.90984   0.00000  Uiso   1.00
C1244  C     0.18203   0.45950   0.59144   0.00000  Uiso   1.00
C1245  C     0.18125   0.50047   0.61598   0.00000  Uiso   1.00
C1246  C     0.16419   0.49904   0.88541   0.00000  Uiso   1.00
C1247  C     0.19851   0.50092   0.52444   0.00000  Uiso   1.00
C1248  C     0.19358   0.50325   0.97524   0.00000  Uiso   1.00
C1249  C     0.29073   0.50069   0.75039   0.00000  Uiso   1.00
C1250  C     0.04285   0.49897   0.75024   0.00000  Uiso   1.00
H1251  H     0.21342   0.57019   0.53256   0.00000  Uiso   1.00
H1252  H     0.21414   0.43568   0.96528   0.00000  Uiso   1.00
H1253  H     0.16541   0.56874   0.97439   0.00000  Uiso   1.00
H1254  H     0.18442   0.43072   0.52725   0.00000  Uiso   1.00
N1255  N     0.16667   0.61907   0.75000   0.00000  Uiso   1.00
N1256  N     0.16667   0.38093   0.75000   0.00000  Uiso   1.00
O1257  O     0.10559   0.53821   0.74999   0.00000  Uiso   1.00
O1258  O     0.22774   0.46179   0.75000   0.00000  Uiso   1.00
O1259  O     0.22774   0.53821   0.75000   0.00000  Uiso   1.00
O1260  O     0.10559   0.46179   0.74999   0.00000  Uiso   1.00
O1261  O     0.16666   0.53822   0.68453   0.00000  Uiso   1.00
O1262  O     0.16667   0.46178   0.81547   0.00000  Uiso   1.00
O1263  O     0.16667   0.53822   0.81547   0.00000  Uiso   1.00
O1264  O     0.16666   0.46178   0.68453   0.00000  Uiso   1.00
Zn1265 Zn    0.16667   0.55104   0.75000   0.00000  Uiso   1.00
Zn1266 Zn    0.16667   0.44896   0.75000   0.00000  Uiso   1.00
C1267  C     0.22979   0.38127   0.80412   0.00000  Uiso   1.00
H1268  H     0.22228   0.41582   0.81054   0.00000  Uiso   1.00
H1269  H     0.23170   0.36592   0.83800   0.00000  Uiso   1.00
H1270  H     0.26094   0.38003   0.78931   0.00000  Uiso   1.00
C1271  C     0.09780   0.61741   0.70590   0.00000  Uiso   1.00
H1272  H     0.10837   0.58744   0.68908   0.00000  Uiso   1.00
H1273  H     0.07534   0.60906   0.73179   0.00000  Uiso   1.00
H1274  H     0.07953   0.63541   0.67918   0.00000  Uiso   1.00
C1275  C     0.10207   0.38087   0.69779   0.00000  Uiso   1.00
H1276  H     0.10869   0.41601   0.69208   0.00000  Uiso   1.00
H1277  H     0.09953   0.36735   0.66339   0.00000  Uiso   1.00
H1278  H     0.07141   0.37733   0.71344   0.00000  Uiso   1.00
C1279  C     0.23657   0.61826   0.79209   0.00000  Uiso   1.00
H1280  H     0.22702   0.58815   0.81049   0.00000  Uiso   1.00
H1281  H     0.25721   0.60994   0.76477   0.00000  Uiso   1.00
H1282  H     0.25672   0.63709   0.81665   0.00000  Uiso   1.00
C1283  C     0.19490   0.58760   0.61410   0.00000  Uiso   1.00
C1284  C     0.15186   0.60926   0.60647   0.00000  Uiso   1.00
H1285  H     0.12647   0.58609   0.61609   0.00000  Uiso   1.00
H1286  H     0.15061   0.64022   0.62642   0.00000  Uiso   1.00
H1287  H     0.14617   0.61806   0.57049   0.00000  Uiso   1.00
H1288  H     0.20634   0.58879   0.64960   0.00000  Uiso   1.00
H1289  H     0.21812   0.60925   0.59758   0.00000  Uiso   1.00
C1290  C     0.16200   0.41307   0.89625   0.00000  Uiso   1.00
C1291  C     0.13455   0.39315   0.93200   0.00000  Uiso   1.00
H1292  H     0.15391   0.38434   0.96279   0.00000  Uiso   1.00
H1293  H     0.10998   0.41725   0.94048   0.00000  Uiso   1.00
H1294  H     0.11852   0.36235   0.91929   0.00000  Uiso   1.00
H1295  H     0.14183   0.41231   0.86498   0.00000  Uiso   1.00
H1296  H     0.18942   0.39123   0.89242   0.00000  Uiso   1.00
C1297  C     0.13509   0.57924   0.89137   0.00000  Uiso   1.00
C1298  C     0.16428   0.61957   0.88679   0.00000  Uiso   1.00
H1299  H     0.17288   0.63385   0.92024   0.00000  Uiso   1.00
H1300  H     0.19355   0.60986   0.87144   0.00000  Uiso   1.00
H1301  H     0.14836   0.64551   0.86540   0.00000  Uiso   1.00
H1302  H     0.11781   0.57253   0.85894   0.00000  Uiso   1.00
H1303  H     0.11034   0.58785   0.91450   0.00000  Uiso   1.00
C1304  C     0.17366   0.41293   0.60988   0.00000  Uiso   1.00
C1305  C     0.21237   0.39384   0.63576   0.00000  Uiso   1.00
H1306  H     0.23768   0.38817   0.61245   0.00000  Uiso   1.00
H1307  H     0.22479   0.41647   0.66254   0.00000  Uiso   1.00
H1308  H     0.20413   0.36142   0.65140   0.00000  Uiso   1.00
H1309  H     0.14544   0.41258   0.62921   0.00000  Uiso   1.00
H1310  H     0.16511   0.38892   0.58261   0.00000  Uiso   1.00
C1311  C     0.05132   0.48173   0.83351   0.00000  Uiso   1.00
H1312  H     0.07083   0.45186   0.82858   0.00000  Uiso   1.00
H1313  H     0.07224   0.51080   0.84098   0.00000  Uiso   1.00
H1314  H     0.03374   0.47499   0.86370   0.00000  Uiso   1.00
C1315  C     0.28252   0.51591   0.66684   0.00000  Uiso   1.00
H1316  H     0.26156   0.48671   0.66022   0.00000  Uiso   1.00
H1317  H     0.26340   0.54602   0.67125   0.00000  Uiso   1.00
H1318  H     0.29994   0.52175   0.63638   0.00000  Uiso   1.00
C1319  C     0.29180   0.48750   0.83517   0.00000  Uiso   1.00
H1320  H     0.25735   0.49223   0.83204   0.00000  Uiso   1.00
H1321  H     0.29739   0.45344   0.84907   0.00000  Uiso   1.00
H1322  H     0.30417   0.51283   0.85954   0.00000  Uiso   1.00
C1323  C     0.04187   0.51216   0.66547   0.00000  Uiso   1.00
H1324  H     0.07645   0.50855   0.66869   0.00000  Uiso   1.00
H1325  H     0.03028   0.48625   0.64133   0.00000  Uiso   1.00
H1326  H     0.03542   0.54592   0.65121   0.00000  Uiso   1.00
C1327  C     0.42040   0.49973   0.75067   0.00000  Uiso   1.00
C1328  C     0.57970   0.50022   0.74983   0.00000  Uiso   1.00
C1329  C     0.50315   0.50021   0.66366   0.00000  Uiso   1.00
C1330  C     0.49752   0.49973   0.83625   0.00000  Uiso   1.00
C1331  C     0.53049   0.35730   0.77443   0.00000  Uiso   1.00
C1332  C     0.46826   0.64255   0.72748   0.00000  Uiso   1.00
C1333  C     0.46929   0.35708   0.72582   0.00000  Uiso   1.00
C1334  C     0.53192   0.64285   0.77219   0.00000  Uiso   1.00
C1335  C     0.35731   0.49123   0.79110   0.00000  Uiso   1.00
C1336  C     0.64303   0.50761   0.70944   0.00000  Uiso   1.00
C1337  C     0.64691   0.49296   0.79140   0.00000  Uiso   1.00
C1338  C     0.35339   0.50642   0.70921   0.00000  Uiso   1.00
C1339  C     0.53764   0.53965   0.54932   0.00000  Uiso   1.00
C1340  C     0.53211   0.46466   0.95028   0.00000  Uiso   1.00
C1341  C     0.50617   0.53986   0.95489   0.00000  Uiso   1.00
C1342  C     0.52236   0.46110   0.54613   0.00000  Uiso   1.00
C1343  C     0.52761   0.54099   0.59413   0.00000  Uiso   1.00
C1344  C     0.51043   0.45989   0.90903   0.00000  Uiso   1.00
C1345  C     0.49236   0.53890   0.90984   0.00000  Uiso   1.00
C1346  C     0.51536   0.45950   0.59144   0.00000  Uiso   1.00
C1347  C     0.51458   0.50047   0.61598   0.00000  Uiso   1.00
C1348  C     0.49752   0.49904   0.88541   0.00000  Uiso   1.00
C1349  C     0.53184   0.50092   0.52444   0.00000  Uiso   1.00
C1350  C     0.52692   0.50325   0.97524   0.00000  Uiso   1.00
C1351  C     0.62406   0.50069   0.75039   0.00000  Uiso   1.00
C1352  C     0.37618   0.49897   0.75024   0.00000  Uiso   1.00
H1353  H     0.54676   0.57019   0.53256   0.00000  Uiso   1.00
H1354  H     0.54747   0.43568   0.96528   0.00000  Uiso   1.00
H1355  H     0.49875   0.56874   0.97439   0.00000  Uiso   1.00
H1356  H     0.51775   0.43072   0.52725   0.00000  Uiso   1.00
N1357  N     0.50000   0.61907   0.75000   0.00000  Uiso   1.00
N1358  N     0.50000   0.38093   0.75000   0.00000  Uiso   1.00
O1359  O     0.43892   0.53821   0.74999   0.00000  Uiso   1.00
O1360  O     0.56108   0.46179   0.75000   0.00000  Uiso   1.00
O1361  O     0.56108   0.53821   0.75000   0.00000  Uiso   1.00
O1362  O     0.43892   0.46179   0.74999   0.00000  Uiso   1.00
O1363  O     0.50000   0.53822   0.68453   0.00000  Uiso   1.00
O1364  O     0.50000   0.46178   0.81547   0.00000  Uiso   1.00
O1365  O     0.50000   0.53822   0.81547   0.00000  Uiso   1.00
O1366  O     0.50000   0.46178   0.68453   0.00000  Uiso   1.00
Zn1367 Zn    0.50000   0.55104   0.75000   0.00000  Uiso   1.00
Zn1368 Zn    0.50000   0.44896   0.75000   0.00000  Uiso   1.00
C1369  C     0.56312   0.38127   0.80412   0.00000  Uiso   1.00
H1370  H     0.55561   0.41582   0.81054   0.00000  Uiso   1.00
H1371  H     0.56504   0.36592   0.83800   0.00000  Uiso   1.00
H1372  H     0.59428   0.38003   0.78931   0.00000  Uiso   1.00
C1373  C     0.43113   0.61741   0.70590   0.00000  Uiso   1.00
H1374  H     0.44170   0.58744   0.68908   0.00000  Uiso   1.00
H1375  H     0.40867   0.60906   0.73179   0.00000  Uiso   1.00
H1376  H     0.41286   0.63541   0.67918   0.00000  Uiso   1.00
C1377  C     0.43540   0.38087   0.69779   0.00000  Uiso   1.00
H1378  H     0.44202   0.41601   0.69208   0.00000  Uiso   1.00
H1379  H     0.43287   0.36735   0.66339   0.00000  Uiso   1.00
H1380  H     0.40474   0.37733   0.71344   0.00000  Uiso   1.00
C1381  C     0.56991   0.61826   0.79209   0.00000  Uiso   1.00
H1382  H     0.56035   0.58815   0.81049   0.00000  Uiso   1.00
H1383  H     0.59054   0.60994   0.76477   0.00000  Uiso   1.00
H1384  H     0.59005   0.63709   0.81665   0.00000  Uiso   1.00
C1385  C     0.52823   0.58760   0.61410   0.00000  Uiso   1.00
C1386  C     0.48519   0.60926   0.60647   0.00000  Uiso   1.00
H1387  H     0.45981   0.58609   0.61609   0.00000  Uiso   1.00
H1388  H     0.48394   0.64022   0.62642   0.00000  Uiso   1.00
H1389  H     0.47951   0.61806   0.57049   0.00000  Uiso   1.00
H1390  H     0.53968   0.58879   0.64960   0.00000  Uiso   1.00
H1391  H     0.55145   0.60925   0.59758   0.00000  Uiso   1.00
C1392  C     0.49534   0.41307   0.89625   0.00000  Uiso   1.00
C1393  C     0.46788   0.39315   0.93200   0.00000  Uiso   1.00
H1394  H     0.48725   0.38434   0.96279   0.00000  Uiso   1.00
H1395  H     0.44331   0.41725   0.94048   0.00000  Uiso   1.00
H1396  H     0.45186   0.36235   0.91929   0.00000  Uiso   1.00
H1397  H     0.47516   0.41231   0.86498   0.00000  Uiso   1.00
H1398  H     0.52276   0.39123   0.89242   0.00000  Uiso   1.00
C1399  C     0.46843   0.57924   0.89137   0.00000  Uiso   1.00
C1400  C     0.49761   0.61957   0.88679   0.00000  Uiso   1.00
H1401  H     0.50621   0.63385   0.92024   0.00000  Uiso   1.00
H1402  H     0.52688   0.60986   0.87144   0.00000  Uiso   1.00
H1403  H     0.48169   0.64551   0.86540   0.00000  Uiso   1.00
H1404  H     0.45114   0.57253   0.85894   0.00000  Uiso   1.00
H1405  H     0.44367   0.58785   0.91450   0.00000  Uiso   1.00
C1406  C     0.50700   0.41293   0.60988   0.00000  Uiso   1.00
C1407  C     0.54570   0.39384   0.63576   0.00000  Uiso   1.00
H1408  H     0.57102   0.38817   0.61245   0.00000  Uiso   1.00
H1409  H     0.55813   0.41647   0.66254   0.00000  Uiso   1.00
H1410  H     0.53746   0.36142   0.65140   0.00000  Uiso   1.00
H1411  H     0.47878   0.41258   0.62921   0.00000  Uiso   1.00
H1412  H     0.49844   0.38892   0.58261   0.00000  Uiso   1.00
C1413  C     0.38465   0.48173   0.83351   0.00000  Uiso   1.00
H1414  H     0.40416   0.45186   0.82858   0.00000  Uiso   1.00
H1415  H     0.40558   0.51080   0.84098   0.00000  Uiso   1.00
H1416  H     0.36708   0.47499   0.86370   0.00000  Uiso   1.00
C1417  C     0.61586   0.51591   0.66684   0.00000  Uiso   1.00
H1418  H     0.59490   0.48671   0.66022   0.00000  Uiso   1.00
H1419  H     0.59673   0.54602   0.67125   0.00000  Uiso   1.00
H1420  H     0.63328   0.52175   0.63638   0.00000  Uiso   1.00
C1421  C     0.62514   0.48750   0.83517   0.00000  Uiso   1.00
H1422  H     0.59068   0.49223   0.83204   0.00000  Uiso   1.00
H1423  H     0.63072   0.45344   0.84907   0.00000  Uiso   1.00
H1424  H     0.63750   0.51283   0.85954   0.00000  Uiso   1.00
C1425  C     0.37520   0.51216   0.66547   0.00000  Uiso   1.00
H1426  H     0.40978   0.50855   0.66869   0.00000  Uiso   1.00
H1427  H     0.36361   0.48625   0.64133   0.00000  Uiso   1.00
H1428  H     0.36875   0.54592   0.65121   0.00000  Uiso   1.00
C1429  C     0.75374   0.49973   0.75067   0.00000  Uiso   1.00
C1430  C     0.91303   0.50022   0.74983   0.00000  Uiso   1.00
C1431  C     0.83649   0.50021   0.66366   0.00000  Uiso   1.00
C1432  C     0.83085   0.49973   0.83625   0.00000  Uiso   1.00
C1433  C     0.86383   0.35730   0.77443   0.00000  Uiso   1.00
C1434  C     0.80159   0.64255   0.72748   0.00000  Uiso   1.00
C1435  C     0.80262   0.35708   0.72582   0.00000  Uiso   1.00
C1436  C     0.86525   0.64285   0.77219   0.00000  Uiso   1.00
C1437  C     0.69064   0.49123   0.79110   0.00000  Uiso   1.00
C1438  C     0.97636   0.50761   0.70944   0.00000  Uiso   1.00
C1439  C     0.98024   0.49296   0.79140   0.00000  Uiso   1.00
C1440  C     0.68672   0.50642   0.70921   0.00000  Uiso   1.00
C1441  C     0.87097   0.53965   0.54932   0.00000  Uiso   1.00
C1442  C     0.86544   0.46466   0.95028   0.00000  Uiso   1.00
C1443  C     0.83950   0.53986   0.95489   0.00000  Uiso   1.00
C1444  C     0.85570   0.46110   0.54613   0.00000  Uiso   1.00
C1445  C     0.86095   0.54099   0.59413   0.00000  Uiso   1.00
C1446  C     0.84376   0.45989   0.90903   0.00000  Uiso   1.00
C1447  C     0.82569   0.53890   0.90984   0.00000  Uiso   1.00
C1448  C     0.84869   0.45950   0.59144   0.00000  Uiso   1.00
C1449  C     0.84792   0.50047   0.61598   0.00000  Uiso   1.00
C1450  C     0.83085   0.49904   0.88541   0.00000  Uiso   1.00
C1451  C     0.86518   0.50092   0.52444   0.00000  Uiso   1.00
C1452  C     0.86025   0.50325   0.97524   0.00000  Uiso   1.00
C1453  C     0.95739   0.50069   0.75039   0.00000  Uiso   1.00
C1454  C     0.70951   0.49897   0.75024   0.00000  Uiso   1.00
H1455  H     0.88009   0.57019   0.53256   0.00000  Uiso   1.00
H1456  H     0.88081   0.43568   0.96528   0.00000  Uiso   1.00
H1457  H     0.83208   0.56874   0.97439   0.00000  Uiso   1.00
H1458  H     0.85108   0.43072   0.52725   0.00000  Uiso   1.00
N1459  N     0.83333   0.61907   0.75000   0.00000  Uiso   1.00
N1460  N     0.83333   0.38093   0.75000   0.00000  Uiso   1.00
O1461  O     0.77226   0.53821   0.74999   0.00000  Uiso   1.00
O1462  O     0.89441   0.46179   0.75000   0.00000  Uiso   1.00
O1463  O     0.89441   0.53821   0.75000   0.00000  Uiso   1.00
O1464  O     0.77226   0.46179   0.74999   0.00000  Uiso   1.00
O1465  O     0.83333   0.53822   0.68453   0.00000  Uiso   1.00
O1466  O     0.83334   0.46178   0.81547   0.00000  Uiso   1.00
O1467  O     0.83334   0.53822   0.81547   0.00000  Uiso   1.00
O1468  O     0.83333   0.46178   0.68453   0.00000  Uiso   1.00
Zn1469 Zn    0.83333   0.55104   0.75000   0.00000  Uiso   1.00
Zn1470 Zn    0.83333   0.44896   0.75000   0.00000  Uiso   1.00
C1471  C     0.89646   0.38127   0.80412   0.00000  Uiso   1.00
H1472  H     0.88894   0.41582   0.81054   0.00000  Uiso   1.00
H1473  H     0.89837   0.36592   0.83800   0.00000  Uiso   1.00
H1474  H     0.92761   0.38003   0.78931   0.00000  Uiso   1.00
C1475  C     0.76446   0.61741   0.70590   0.00000  Uiso   1.00
H1476  H     0.77504   0.58744   0.68908   0.00000  Uiso   1.00
H1477  H     0.74200   0.60906   0.73179   0.00000  Uiso   1.00
H1478  H     0.74619   0.63541   0.67918   0.00000  Uiso   1.00
C1479  C     0.76874   0.38087   0.69779   0.00000  Uiso   1.00
H1480  H     0.77536   0.41601   0.69208   0.00000  Uiso   1.00
H1481  H     0.76620   0.36735   0.66339   0.00000  Uiso   1.00
H1482  H     0.73807   0.37733   0.71344   0.00000  Uiso   1.00
C1483  C     0.90324   0.61826   0.79209   0.00000  Uiso   1.00
H1484  H     0.89369   0.58815   0.81049   0.00000  Uiso   1.00
H1485  H     0.92387   0.60994   0.76477   0.00000  Uiso   1.00
H1486  H     0.92339   0.63709   0.81665   0.00000  Uiso   1.00
C1487  C     0.86156   0.58760   0.61410   0.00000  Uiso   1.00
C1488  C     0.81852   0.60926   0.60647   0.00000  Uiso   1.00
H1489  H     0.79314   0.58609   0.61609   0.00000  Uiso   1.00
H1490  H     0.81727   0.64022   0.62642   0.00000  Uiso   1.00
H1491  H     0.81284   0.61806   0.57049   0.00000  Uiso   1.00
H1492  H     0.87301   0.58879   0.64960   0.00000  Uiso   1.00
H1493  H     0.88478   0.60925   0.59758   0.00000  Uiso   1.00
C1494  C     0.82867   0.41307   0.89625   0.00000  Uiso   1.00
C1495  C     0.80122   0.39315   0.93200   0.00000  Uiso   1.00
H1496  H     0.82058   0.38434   0.96279   0.00000  Uiso   1.00
H1497  H     0.77664   0.41725   0.94048   0.00000  Uiso   1.00
H1498  H     0.78519   0.36235   0.91929   0.00000  Uiso   1.00
H1499  H     0.80849   0.41231   0.86498   0.00000  Uiso   1.00
H1500  H     0.85609   0.39123   0.89242   0.00000  Uiso   1.00
C1501  C     0.80176   0.57924   0.89137   0.00000  Uiso   1.00
C1502  C     0.83095   0.61957   0.88679   0.00000  Uiso   1.00
H1503  H     0.83954   0.63385   0.92024   0.00000  Uiso   1.00
H1504  H     0.86021   0.60986   0.87144   0.00000  Uiso   1.00
H1505  H     0.81503   0.64551   0.86540   0.00000  Uiso   1.00
H1506  H     0.78447   0.57253   0.85894   0.00000  Uiso   1.00
H1507  H     0.77701   0.58785   0.91450   0.00000  Uiso   1.00
C1508  C     0.84033   0.41293   0.60988   0.00000  Uiso   1.00
C1509  C     0.87904   0.39384   0.63576   0.00000  Uiso   1.00
H1510  H     0.90435   0.38817   0.61245   0.00000  Uiso   1.00
H1511  H     0.89146   0.41647   0.66254   0.00000  Uiso   1.00
H1512  H     0.87079   0.36142   0.65140   0.00000  Uiso   1.00
H1513  H     0.81211   0.41258   0.62921   0.00000  Uiso   1.00
H1514  H     0.83177   0.38892   0.58261   0.00000  Uiso   1.00
C1515  C     0.71798   0.48173   0.83351   0.00000  Uiso   1.00
H1516  H     0.73750   0.45186   0.82858   0.00000  Uiso   1.00
H1517  H     0.73891   0.51080   0.84098   0.00000  Uiso   1.00
H1518  H     0.70041   0.47499   0.86370   0.00000  Uiso   1.00
C1519  C     0.94919   0.51591   0.66684   0.00000  Uiso   1.00
H1520  H     0.92823   0.48671   0.66022   0.00000  Uiso   1.00
H1521  H     0.93007   0.54602   0.67125   0.00000  Uiso   1.00
H1522  H     0.96661   0.52175   0.63638   0.00000  Uiso   1.00
C1523  C     0.95847   0.48750   0.83517   0.00000  Uiso   1.00
H1524  H     0.92401   0.49223   0.83204   0.00000  Uiso   1.00
H1525  H     0.96406   0.45344   0.84907   0.00000  Uiso   1.00
H1526  H     0.97083   0.51283   0.85954   0.00000  Uiso   1.00
C1527  C     0.70853   0.51216   0.66547   0.00000  Uiso   1.00
H1528  H     0.74311   0.50855   0.66869   0.00000  Uiso   1.00
H1529  H     0.69695   0.48625   0.64133   0.00000  Uiso   1.00
H1530  H     0.70209   0.54592   0.65121   0.00000  Uiso   1.00
C1531  C     0.08707   0.83306   0.75067   0.00000  Uiso   1.00
C1532  C     0.24636   0.83355   0.74983   0.00000  Uiso   1.00
C1533  C     0.16982   0.83355   0.66366   0.00000  Uiso   1.00
C1534  C     0.16418   0.83306   0.83625   0.00000  Uiso   1.00
C1535  C     0.19716   0.69063   0.77443   0.00000  Uiso   1.00
C1536  C     0.13493   0.97589   0.72748   0.00000  Uiso   1.00
C1537  C     0.13596   0.69041   0.72582   0.00000  Uiso   1.00
C1538  C     0.19858   0.97618   0.77219   0.00000  Uiso   1.00
C1539  C     0.02398   0.82457   0.79110   0.00000  Uiso   1.00
C1540  C     0.30970   0.84094   0.70944   0.00000  Uiso   1.00
C1541  C     0.31358   0.82629   0.79140   0.00000  Uiso   1.00
C1542  C     0.02005   0.83976   0.70921   0.00000  Uiso   1.00
C1543  C     0.20431   0.87298   0.54932   0.00000  Uiso   1.00
C1544  C     0.19877   0.79800   0.95028   0.00000  Uiso   1.00
C1545  C     0.17284   0.87320   0.95489   0.00000  Uiso   1.00
C1546  C     0.18903   0.79443   0.54613   0.00000  Uiso   1.00
C1547  C     0.19428   0.87432   0.59413   0.00000  Uiso   1.00
C1548  C     0.17710   0.79322   0.90903   0.00000  Uiso   1.00
C1549  C     0.15902   0.87224   0.90984   0.00000  Uiso   1.00
C1550  C     0.18203   0.79283   0.59144   0.00000  Uiso   1.00
C1551  C     0.18125   0.83380   0.61598   0.00000  Uiso   1.00
C1552  C     0.16419   0.83237   0.88541   0.00000  Uiso   1.00
C1553  C     0.19851   0.83425   0.52444   0.00000  Uiso   1.00
C1554  C     0.19358   0.83658   0.97524   0.00000  Uiso   1.00
C1555  C     0.29073   0.83402   0.75039   0.00000  Uiso   1.00
C1556  C     0.04285   0.83230   0.75024   0.00000  Uiso   1.00
H1557  H     0.21342   0.90352   0.53256   0.00000  Uiso   1.00
H1558  H     0.21414   0.76901   0.96528   0.00000  Uiso   1.00
H1559  H     0.16541   0.90208   0.97439   0.00000  Uiso   1.00
H1560  H     0.18442   0.76406   0.52725   0.00000  Uiso   1.00
N1561  N     0.16667   0.95240   0.75000   0.00000  Uiso   1.00
N1562  N     0.16667   0.71427   0.75000   0.00000  Uiso   1.00
O1563  O     0.10559   0.87154   0.74999   0.00000  Uiso   1.00
O1564  O     0.22774   0.79513   0.75000   0.00000  Uiso   1.00
O1565  O     0.22774   0.87154   0.75000   0.00000  Uiso   1.00
O1566  O     0.10559   0.79513   0.74999   0.00000  Uiso   1.00
O1567  O     0.16666   0.87155   0.68453   0.00000  Uiso   1.00
O1568  O     0.16667   0.79511   0.81547   0.00000  Uiso   1.00
O1569  O     0.16667   0.87155   0.81547   0.00000  Uiso   1.00
O1570  O     0.16666   0.79511   0.68453   0.00000  Uiso   1.00
Zn1571 Zn    0.16667   0.88437   0.75000   0.00000  Uiso   1.00
Zn1572 Zn    0.16667   0.78229   0.75000   0.00000  Uiso   1.00
C1573  C     0.22979   0.71460   0.80412   0.00000  Uiso   1.00
H1574  H     0.22228   0.74916   0.81054   0.00000  Uiso   1.00
H1575  H     0.23170   0.69925   0.83800   0.00000  Uiso   1.00
H1576  H     0.26094   0.71336   0.78931   0.00000  Uiso   1.00
C1577  C     0.09780   0.95074   0.70590   0.00000  Uiso   1.00
H1578  H     0.10837   0.92077   0.68908   0.00000  Uiso   1.00
H1579  H     0.07534   0.94239   0.73179   0.00000  Uiso   1.00
H1580  H     0.07953   0.96874   0.67918   0.00000  Uiso   1.00
C1581  C     0.10207   0.71420   0.69779   0.00000  Uiso   1.00
H1582  H     0.10869   0.74935   0.69208   0.00000  Uiso   1.00
H1583  H     0.09953   0.70068   0.66339   0.00000  Uiso   1.00
H1584  H     0.07141   0.71066   0.71344   0.00000  Uiso   1.00
C1585  C     0.23657   0.95160   0.79209   0.00000  Uiso   1.00
H1586  H     0.22702   0.92149   0.81049   0.00000  Uiso   1.00
H1587  H     0.25721   0.94327   0.76477   0.00000  Uiso   1.00
H1588  H     0.25672   0.97042   0.81665   0.00000  Uiso   1.00
C1589  C     0.19490   0.92094   0.61410   0.00000  Uiso   1.00
C1590  C     0.15186   0.94260   0.60647   0.00000  Uiso   1.00
H1591  H     0.12647   0.91942   0.61609   0.00000  Uiso   1.00
H1592  H     0.15061   0.97355   0.62642   0.00000  Uiso   1.00
H1593  H     0.14617   0.95140   0.57049   0.00000  Uiso   1.00
H1594  H     0.20634   0.92212   0.64960   0.00000  Uiso   1.00
H1595  H     0.21812   0.94259   0.59758   0.00000  Uiso   1.00
C1596  C     0.16200   0.74640   0.89625   0.00000  Uiso   1.00
C1597  C     0.13455   0.72648   0.93200   0.00000  Uiso   1.00
H1598  H     0.15391   0.71768   0.96279   0.00000  Uiso   1.00
H1599  H     0.10998   0.75058   0.94048   0.00000  Uiso   1.00
H1600  H     0.11852   0.69568   0.91929   0.00000  Uiso   1.00
H1601  H     0.14183   0.74565   0.86498   0.00000  Uiso   1.00
H1602  H     0.18942   0.72456   0.89242   0.00000  Uiso   1.00
C1603  C     0.13509   0.91257   0.89137   0.00000  Uiso   1.00
C1604  C     0.16428   0.95290   0.88679   0.00000  Uiso   1.00
H1605  H     0.17288   0.96718   0.92024   0.00000  Uiso   1.00
H1606  H     0.19355   0.94319   0.87144   0.00000  Uiso   1.00
H1607  H     0.14836   0.97885   0.86540   0.00000  Uiso   1.00
H1608  H     0.11781   0.90586   0.85894   0.00000  Uiso   1.00
H1609  H     0.11034   0.92119   0.91450   0.00000  Uiso   1.00
C1610  C     0.17366   0.74626   0.60988   0.00000  Uiso   1.00
C1611  C     0.21237   0.72717   0.63576   0.00000  Uiso   1.00
H1612  H     0.23768   0.72151   0.61245   0.00000  Uiso   1.00
H1613  H     0.22479   0.74980   0.66254   0.00000  Uiso   1.00
H1614  H     0.20413   0.69475   0.65140   0.00000  Uiso   1.00
H1615  H     0.14544   0.74592   0.62921   0.00000  Uiso   1.00
H1616  H     0.16511   0.72225   0.58261   0.00000  Uiso   1.00
C1617  C     0.05132   0.81507   0.83351   0.00000  Uiso   1.00
H1618  H     0.07083   0.78520   0.82858   0.00000  Uiso   1.00
H1619  H     0.07224   0.84413   0.84098   0.00000  Uiso   1.00
H1620  H     0.03374   0.80832   0.86370   0.00000  Uiso   1.00
C1621  C     0.28252   0.84925   0.66684   0.00000  Uiso   1.00
H1622  H     0.26156   0.82004   0.66022   0.00000  Uiso   1.00
H1623  H     0.26340   0.87935   0.67125   0.00000  Uiso   1.00
H1624  H     0.29994   0.85508   0.63638   0.00000  Uiso   1.00
C1625  C     0.29180   0.82083   0.83517   0.00000  Uiso   1.00
H1626  H     0.25735   0.82556   0.83204   0.00000  Uiso   1.00
H1627  H     0.29739   0.78677   0.84907   0.00000  Uiso   1.00
H1628  H     0.30417   0.84616   0.85954   0.00000  Uiso   1.00
C1629  C     0.04187   0.84549   0.66547   0.00000  Uiso   1.00
H1630  H     0.07645   0.84188   0.66869   0.00000  Uiso   1.00
H1631  H     0.03028   0.81958   0.64133   0.00000  Uiso   1.00
H1632  H     0.03542   0.87925   0.65121   0.00000  Uiso   1.00
C1633  C     0.42040   0.83306   0.75067   0.00000  Uiso   1.00
C1634  C     0.57970   0.83355   0.74983   0.00000  Uiso   1.00
C1635  C     0.50315   0.83355   0.66366   0.00000  Uiso   1.00
C1636  C     0.49752   0.83306   0.83625   0.00000  Uiso   1.00
C1637  C     0.53049   0.69063   0.77443   0.00000  Uiso   1.00
C1638  C     0.46826   0.97589   0.72748   0.00000  Uiso   1.00
C1639  C     0.46929   0.69041   0.72582   0.00000  Uiso   1.00
C1640  C     0.53192   0.97618   0.77219   0.00000  Uiso   1.00
C1641  C     0.35731   0.82457   0.79110   0.00000  Uiso   1.00
C1642  C     0.64303   0.84094   0.70944   0.00000  Uiso   1.00
C1643  C     0.64691   0.82629   0.79140   0.00000  Uiso   1.00
C1644  C     0.35339   0.83976   0.70921   0.00000  Uiso   1.00
C1645  C     0.53764   0.87298   0.54932   0.00000  Uiso   1.00
C1646  C     0.53211   0.79800   0.95028   0.00000  Uiso   1.00
C1647  C     0.50617   0.87320   0.95489   0.00000  Uiso   1.00
C1648  C     0.52236   0.79443   0.54613   0.00000  Uiso   1.00
C1649  C     0.52761   0.87432   0.59413   0.00000  Uiso   1.00
C1650  C     0.51043   0.79322   0.90903   0.00000  Uiso   1.00
C1651  C     0.49236   0.87224   0.90984   0.00000  Uiso   1.00
C1652  C     0.51536   0.79283   0.59144   0.00000  Uiso   1.00
C1653  C     0.51458   0.83380   0.61598   0.00000  Uiso   1.00
C1654  C     0.49752   0.83237   0.88541   0.00000  Uiso   1.00
C1655  C     0.53184   0.83425   0.52444   0.00000  Uiso   1.00
C1656  C     0.52692   0.83658   0.97524   0.00000  Uiso   1.00
C1657  C     0.62406   0.83402   0.75039   0.00000  Uiso   1.00
C1658  C     0.37618   0.83230   0.75024   0.00000  Uiso   1.00
H1659  H     0.54676   0.90352   0.53256   0.00000  Uiso   1.00
H1660  H     0.54747   0.76901   0.96528   0.00000  Uiso   1.00
H1661  H     0.49875   0.90208   0.97439   0.00000  Uiso   1.00
H1662  H     0.51775   0.76406   0.52725   0.00000  Uiso   1.00
N1663  N     0.50000   0.95240   0.75000   0.00000  Uiso   1.00
N1664  N     0.50000   0.71427   0.75000   0.00000  Uiso   1.00
O1665  O     0.43892   0.87154   0.74999   0.00000  Uiso   1.00
O1666  O     0.56108   0.79513   0.75000   0.00000  Uiso   1.00
O1667  O     0.56108   0.87154   0.75000   0.00000  Uiso   1.00
O1668  O     0.43892   0.79513   0.74999   0.00000  Uiso   1.00
O1669  O     0.50000   0.87155   0.68453   0.00000  Uiso   1.00
O1670  O     0.50000   0.79511   0.81547   0.00000  Uiso   1.00
O1671  O     0.50000   0.87155   0.81547   0.00000  Uiso   1.00
O1672  O     0.50000   0.79511   0.68453   0.00000  Uiso   1.00
Zn1673 Zn    0.50000   0.88437   0.75000   0.00000  Uiso   1.00
Zn1674 Zn    0.50000   0.78229   0.75000   0.00000  Uiso   1.00
C1675  C     0.56312   0.71460   0.80412   0.00000  Uiso   1.00
H1676  H     0.55561   0.74916   0.81054   0.00000  Uiso   1.00
H1677  H     0.56504   0.69925   0.83800   0.00000  Uiso   1.00
H1678  H     0.59428   0.71336   0.78931   0.00000  Uiso   1.00
C1679  C     0.43113   0.95074   0.70590   0.00000  Uiso   1.00
H1680  H     0.44170   0.92077   0.68908   0.00000  Uiso   1.00
H1681  H     0.40867   0.94239   0.73179   0.00000  Uiso   1.00
H1682  H     0.41286   0.96874   0.67918   0.00000  Uiso   1.00
C1683  C     0.43540   0.71420   0.69779   0.00000  Uiso   1.00
H1684  H     0.44202   0.74935   0.69208   0.00000  Uiso   1.00
H1685  H     0.43287   0.70068   0.66339   0.00000  Uiso   1.00
H1686  H     0.40474   0.71066   0.71344   0.00000  Uiso   1.00
C1687  C     0.56991   0.95160   0.79209   0.00000  Uiso   1.00
H1688  H     0.56035   0.92149   0.81049   0.00000  Uiso   1.00
H1689  H     0.59054   0.94327   0.76477   0.00000  Uiso   1.00
H1690  H     0.59005   0.97042   0.81665   0.00000  Uiso   1.00
C1691  C     0.52823   0.92094   0.61410   0.00000  Uiso   1.00
C1692  C     0.48519   0.94260   0.60647   0.00000  Uiso   1.00
H1693  H     0.45981   0.91942   0.61609   0.00000  Uiso   1.00
H1694  H     0.48394   0.97355   0.62642   0.00000  Uiso   1.00
H1695  H     0.47951   0.95140   0.57049   0.00000  Uiso   1.00
H1696  H     0.53968   0.92212   0.64960   0.00000  Uiso   1.00
H1697  H     0.55145   0.94259   0.59758   0.00000  Uiso   1.00
C1698  C     0.49534   0.74640   0.89625   0.00000  Uiso   1.00
C1699  C     0.46788   0.72648   0.93200   0.00000  Uiso   1.00
H1700  H     0.48725   0.71768   0.96279   0.00000  Uiso   1.00
H1701  H     0.44331   0.75058   0.94048   0.00000  Uiso   1.00
H1702  H     0.45186   0.69568   0.91929   0.00000  Uiso   1.00
H1703  H     0.47516   0.74565   0.86498   0.00000  Uiso   1.00
H1704  H     0.52276   0.72456   0.89242   0.00000  Uiso   1.00
C1705  C     0.46843   0.91257   0.89137   0.00000  Uiso   1.00
C1706  C     0.49761   0.95290   0.88679   0.00000  Uiso   1.00
H1707  H     0.50621   0.96718   0.92024   0.00000  Uiso   1.00
H1708  H     0.52688   0.94319   0.87144   0.00000  Uiso   1.00
H1709  H     0.48169   0.97885   0.86540   0.00000  Uiso   1.00
H1710  H     0.45114   0.90586   0.85894   0.00000  Uiso   1.00
H1711  H     0.44367   0.92119   0.91450   0.00000  Uiso   1.00
C1712  C     0.50700   0.74626   0.60988   0.00000  Uiso   1.00
C1713  C     0.54570   0.72717   0.63576   0.00000  Uiso   1.00
H1714  H     0.57102   0.72151   0.61245   0.00000  Uiso   1.00
H1715  H     0.55813   0.74980   0.66254   0.00000  Uiso   1.00
H1716  H     0.53746   0.69475   0.65140   0.00000  Uiso   1.00
H1717  H     0.47878   0.74592   0.62921   0.00000  Uiso   1.00
H1718  H     0.49844   0.72225   0.58261   0.00000  Uiso   1.00
C1719  C     0.38465   0.81507   0.83351   0.00000  Uiso   1.00
H1720  H     0.40416   0.78520   0.82858   0.00000  Uiso   1.00
H1721  H     0.40558   0.84413   0.84098   0.00000  Uiso   1.00
H1722  H     0.36708   0.80832   0.86370   0.00000  Uiso   1.00
C1723  C     0.61586   0.84925   0.66684   0.00000  Uiso   1.00
H1724  H     0.59490   0.82004   0.66022   0.00000  Uiso   1.00
H1725  H     0.59673   0.87935   0.67125   0.00000  Uiso   1.00
H1726  H     0.63328   0.85508   0.63638   0.00000  Uiso   1.00
C1727  C     0.62514   0.82083   0.83517   0.00000  Uiso   1.00
H1728  H     0.59068   0.82556   0.83204   0.00000  Uiso   1.00
H1729  H     0.63072   0.78677   0.84907   0.00000  Uiso   1.00
H1730  H     0.63750   0.84616   0.85954   0.00000  Uiso   1.00
C1731  C     0.37520   0.84549   0.66547   0.00000  Uiso   1.00
H1732  H     0.40978   0.84188   0.66869   0.00000  Uiso   1.00
H1733  H     0.36361   0.81958   0.64133   0.00000  Uiso   1.00
H1734  H     0.36875   0.87925   0.65121   0.00000  Uiso   1.00
C1735  C     0.75374   0.83306   0.75067   0.00000  Uiso   1.00
C1736  C     0.91303   0.83355   0.74983   0.00000  Uiso   1.00
C1737  C     0.83649   0.83355   0.66366   0.00000  Uiso   1.00
C1738  C     0.83085   0.83306   0.83625   0.00000  Uiso   1.00
C1739  C     0.86383   0.69063   0.77443   0.00000  Uiso   1.00
C1740  C     0.80159   0.97589   0.72748   0.00000  Uiso   1.00
C1741  C     0.80262   0.69041   0.72582   0.00000  Uiso   1.00
C1742  C     0.86525   0.97618   0.77219   0.00000  Uiso   1.00
C1743  C     0.69064   0.82457   0.79110   0.00000  Uiso   1.00
C1744  C     0.97636   0.84094   0.70944   0.00000  Uiso   1.00
C1745  C     0.98024   0.82629   0.79140   0.00000  Uiso   1.00
C1746  C     0.68672   0.83976   0.70921   0.00000  Uiso   1.00
C1747  C     0.87097   0.87298   0.54932   0.00000  Uiso   1.00
C1748  C     0.86544   0.79800   0.95028   0.00000  Uiso   1.00
C1749  C     0.83950   0.87320   0.95489   0.00000  Uiso   1.00
C1750  C     0.85570   0.79443   0.54613   0.00000  Uiso   1.00
C1751  C     0.86095   0.87432   0.59413   0.00000  Uiso   1.00
C1752  C     0.84376   0.79322   0.90903   0.00000  Uiso   1.00
C1753  C     0.82569   0.87224   0.90984   0.00000  Uiso   1.00
C1754  C     0.84869   0.79283   0.59144   0.00000  Uiso   1.00
C1755  C     0.84792   0.83380   0.61598   0.00000  Uiso   1.00
C1756  C     0.83085   0.83237   0.88541   0.00000  Uiso   1.00
C1757  C     0.86518   0.83425   0.52444   0.00000  Uiso   1.00
C1758  C     0.86025   0.83658   0.97524   0.00000  Uiso   1.00
C1759  C     0.95739   0.83402   0.75039   0.00000  Uiso   1.00
C1760  C     0.70951   0.83230   0.75024   0.00000  Uiso   1.00
H1761  H     0.88009   0.90352   0.53256   0.00000  Uiso   1.00
H1762  H     0.88081   0.76901   0.96528   0.00000  Uiso   1.00
H1763  H     0.83208   0.90208   0.97439   0.00000  Uiso   1.00
H1764  H     0.85108   0.76406   0.52725   0.00000  Uiso   1.00
N1765  N     0.83333   0.95240   0.75000   0.00000  Uiso   1.00
N1766  N     0.83333   0.71427   0.75000   0.00000  Uiso   1.00
O1767  O     0.77226   0.87154   0.74999   0.00000  Uiso   1.00
O1768  O     0.89441   0.79513   0.75000   0.00000  Uiso   1.00
O1769  O     0.89441   0.87154   0.75000   0.00000  Uiso   1.00
O1770  O     0.77226   0.79513   0.74999   0.00000  Uiso   1.00
O1771  O     0.83333   0.87155   0.68453   0.00000  Uiso   1.00
O1772  O     0.83334   0.79511   0.81547   0.00000  Uiso   1.00
O1773  O     0.83334   0.87155   0.81547   0.00000  Uiso   1.00
O1774  O     0.83333   0.79511   0.68453   0.00000  Uiso   1.00
Zn1775 Zn    0.83333   0.88437   0.75000   0.00000  Uiso   1.00
Zn1776 Zn    0.83333   0.78229   0.75000   0.00000  Uiso   1.00
C1777  C     0.89646   0.71460   0.80412   0.00000  Uiso   1.00
H1778  H     0.88894   0.74916   0.81054   0.00000  Uiso   1.00
H1779  H     0.89837   0.69925   0.83800   0.00000  Uiso   1.00
H1780  H     0.92761   0.71336   0.78931   0.00000  Uiso   1.00
C1781  C     0.76446   0.95074   0.70590   0.00000  Uiso   1.00
H1782  H     0.77504   0.92077   0.68908   0.00000  Uiso   1.00
H1783  H     0.74200   0.94239   0.73179   0.00000  Uiso   1.00
H1784  H     0.74619   0.96874   0.67918   0.00000  Uiso   1.00
C1785  C     0.76874   0.71420   0.69779   0.00000  Uiso   1.00
H1786  H     0.77536   0.74935   0.69208   0.00000  Uiso   1.00
H1787  H     0.76620   0.70068   0.66339   0.00000  Uiso   1.00
H1788  H     0.73807   0.71066   0.71344   0.00000  Uiso   1.00
C1789  C     0.90324   0.95160   0.79209   0.00000  Uiso   1.00
H1790  H     0.89369   0.92149   0.81049   0.00000  Uiso   1.00
H1791  H     0.92387   0.94327   0.76477   0.00000  Uiso   1.00
H1792  H     0.92339   0.97042   0.81665   0.00000  Uiso   1.00
C1793  C     0.86156   0.92094   0.61410   0.00000  Uiso   1.00
C1794  C     0.81852   0.94260   0.60647   0.00000  Uiso   1.00
H1795  H     0.79314   0.91942   0.61609   0.00000  Uiso   1.00
H1796  H     0.81727   0.97355   0.62642   0.00000  Uiso   1.00
H1797  H     0.81284   0.95140   0.57049   0.00000  Uiso   1.00
H1798  H     0.87301   0.92212   0.64960   0.00000  Uiso   1.00
H1799  H     0.88478   0.94259   0.59758   0.00000  Uiso   1.00
C1800  C     0.82867   0.74640   0.89625   0.00000  Uiso   1.00
C1801  C     0.80122   0.72648   0.93200   0.00000  Uiso   1.00
H1802  H     0.82058   0.71768   0.96279   0.00000  Uiso   1.00
H1803  H     0.77664   0.75058   0.94048   0.00000  Uiso   1.00
H1804  H     0.78519   0.69568   0.91929   0.00000  Uiso   1.00
H1805  H     0.80849   0.74565   0.86498   0.00000  Uiso   1.00
H1806  H     0.85609   0.72456   0.89242   0.00000  Uiso   1.00
C1807  C     0.80176   0.91257   0.89137   0.00000  Uiso   1.00
C1808  C     0.83095   0.95290   0.88679   0.00000  Uiso   1.00
H1809  H     0.83954   0.96718   0.92024   0.00000  Uiso   1.00
H1810  H     0.86021   0.94319   0.87144   0.00000  Uiso   1.00
H1811  H     0.81503   0.97885   0.86540   0.00000  Uiso   1.00
H1812  H     0.78447   0.90586   0.85894   0.00000  Uiso   1.00
H1813  H     0.77701   0.92119   0.91450   0.00000  Uiso   1.00
C1814  C     0.84033   0.74626   0.60988   0.00000  Uiso   1.00
C1815  C     0.87904   0.72717   0.63576   0.00000  Uiso   1.00
H1816  H     0.90435   0.72151   0.61245   0.00000  Uiso   1.00
H1817  H     0.89146   0.74980   0.66254   0.00000  Uiso   1.00
H1818  H     0.87079   0.69475   0.65140   0.00000  Uiso   1.00
H1819  H     0.81211   0.74592   0.62921   0.00000  Uiso   1.00
H1820  H     0.83177   0.72225   0.58261   0.00000  Uiso   1.00
C1821  C     0.71798   0.81507   0.83351   0.00000  Uiso   1.00
H1822  H     0.73750   0.78520   0.82858   0.00000  Uiso   1.00
H1823  H     0.73891   0.84413   0.84098   0.00000  Uiso   1.00
H1824  H     0.70041   0.80832   0.86370   0.00000  Uiso   1.00
C1825  C     0.94919   0.84925   0.66684   0.00000  Uiso   1.00
H1826  H     0.92823   0.82004   0.66022   0.00000  Uiso   1.00
H1827  H     0.93007   0.87935   0.67125   0.00000  Uiso   1.00
H1828  H     0.96661   0.85508   0.63638   0.00000  Uiso   1.00
C1829  C     0.95847   0.82083   0.83517   0.00000  Uiso   1.00
H1830  H     0.92401   0.82556   0.83204   0.00000  Uiso   1.00
H1831  H     0.96406   0.78677   0.84907   0.00000  Uiso   1.00
H1832  H     0.97083   0.84616   0.85954   0.00000  Uiso   1.00
C1833  C     0.70853   0.84549   0.66547   0.00000  Uiso   1.00
H1834  H     0.74311   0.84188   0.66869   0.00000  Uiso   1.00
H1835  H     0.69695   0.81958   0.64133   0.00000  Uiso   1.00
H1836  H     0.70209   0.87925   0.65121   0.00000  Uiso   1.00
loop_
_geom_bond_atom_site_label_1
_geom_bond_atom_site_label_2
_geom_bond_distance
_geom_bond_site_symmetry_2
_ccdc_geom_bond_type
C1     O33     1.290   .     A
C1     C26     1.408   .     S
C1     O36     1.286   .     A
C2     O35     1.288   .     A
C2     O34     1.289   .     A
C2     C25     1.412   .     S
C3     C21     1.491   .     S
C3     O40     1.310   .     A
C3     O37     1.310   .     A
C4     C22     1.470   .     S
C4     O39     1.309   .     A
C4     O38     1.305   .     A
C5     N32     1.379   .     A
C5     C43     1.508   .     S
C5     C620    1.434   1_545 S
C6     N31     1.378   .     A
C6     C47     1.512   .     S
C6     C313    1.434   .     S
C7     N32     1.380   .     A
C7     C51     1.509   .     S
C7     C618    1.434   1_545 S
C8     C55     1.513   .     S
C8     N31     1.378   .     A
C8     C311    1.434   .     S
C9     C26     1.409   .     A
C9     C87     1.523   .     S
C9     C215    1.395   1_455 S
C10    C25     1.409   .     A
C10    C91     1.519   .     S
C10    C114    1.393   .     S
C11    C25     1.409   .     A
C11    C95     1.523   .     S
C11    C111    1.395   .     S
C12    C99     1.524   .     S
C12    C26     1.407   .     A
C12    C214    1.393   1_455 S
C13    C23     1.389   .     A
C13    C17     1.396   .     A
C13    H27     1.084   .     S
C14    H28     1.082   .     S
C14    C18     1.387   .     A
C14    C24     1.397   .     A
C15    C19     1.394   .     A
C15    H29     1.083   .     S
C15    C24     1.402   .     A
C16    H30     1.079   .     S
C16    C20     1.386   .     A
C16    C23     1.391   .     A
C17    C21     1.442   .     A
C17    C59     1.523   .     S
C18    C22     1.416   .     A
C18    C66     1.523   .     S
C19    C73     1.518   .     S
C19    C22     1.421   .     A
C20    C80     1.522   .     S
C20    C21     1.437   .     A
C23    C942    1.472   1_554 S
C24    C941    1.472   .     S
N31    Zn41    2.037   .     S
N32    Zn42    2.037   .     S
O33    Zn41    1.979   .     S
O34    Zn42    1.979   .     S
O35    Zn41    1.987   .     S
O36    Zn42    1.987   .     S
O37    Zn41    1.999   .     S
O38    Zn42    1.999   .     S
O39    Zn41    1.992   .     S
O40    Zn42    1.992   .     S
C43    H44     1.086   .     S
C43    H45     1.108   .     S
C43    H46     1.110   .     S
C47    H48     1.098   .     S
C47    H50     1.102   .     S
C47    H49     1.109   .     S
C51    H52     1.085   .     S
C51    H53     1.108   .     S
C51    H54     1.110   .     S
C55    H56     1.102   .     S
C55    H57     1.109   .     S
C55    H58     1.103   .     S
C59    H64     1.103   .     S
C59    C60     1.527   .     S
C59    H65     1.113   .     S
C60    H63     1.111   .     S
C60    H62     1.109   .     S
C60    H61     1.109   .     S
C66    H72     1.108   .     S
C66    H71     1.104   .     S
C66    C67     1.533   .     S
C67    H68     1.110   .     S
C67    H70     1.109   .     S
C67    H69     1.111   .     S
C73    C74     1.527   .     S
C73    H78     1.107   .     S
C73    H79     1.112   .     S
C74    H76     1.105   .     S
C74    H77     1.110   .     S
C74    H75     1.110   .     S
C80    H86     1.112   .     S
C80    H85     1.096   .     S
C80    C81     1.531   .     S
C81    H82     1.111   .     S
C81    H83     1.107   .     S
C81    H84     1.110   .     S
C87    H88     1.110   .     S
C87    H90     1.105   .     S
C87    H89     1.108   .     S
C91    H92     1.107   .     S
C91    H93     1.106   .     S
C91    H94     1.105   .     S
C95    H96     1.107   .     S
C95    H98     1.110   .     S
C95    H97     1.110   .     S
C99    H101    1.110   .     S
C99    H100    1.107   .     S
C99    H102    1.110   .     S
C103   O135    1.290   .     A
C103   C128    1.408   .     S
C103   O138    1.286   .     A
C104   O137    1.288   .     A
C104   O136    1.289   .     A
C104   C127    1.412   .     S
C105   C123    1.491   .     S
C105   O142    1.310   .     A
C105   O139    1.310   .     A
C106   C124    1.470   .     S
C106   O141    1.309   .     A
C106   O140    1.305   .     A
C107   N134    1.379   .     A
C107   C145    1.508   .     S
C107   C722    1.434   1_545 S
C108   N133    1.378   .     A
C108   C149    1.512   .     S
C108   C415    1.434   .     S
C109   N134    1.380   .     A
C109   C153    1.509   .     S
C109   C720    1.434   1_545 S
C110   C157    1.513   .     S
C110   N133    1.378   .     A
C110   C413    1.434   .     S
C111   C128    1.409   .     A
C111   C189    1.523   .     S
C112   C127    1.409   .     A
C112   C193    1.519   .     S
C112   C216    1.393   .     S
C113   C127    1.409   .     A
C113   C197    1.523   .     S
C113   C213    1.395   .     S
C114   C201    1.524   .     S
C114   C128    1.407   .     A
C115   C125    1.389   .     A
C115   C119    1.396   .     A
C115   H129    1.084   .     S
C116   H130    1.082   .     S
C116   C120    1.387   .     A
C116   C126    1.397   .     A
C117   C121    1.394   .     A
C117   H131    1.083   .     S
C117   C126    1.402   .     A
C118   H132    1.079   .     S
C118   C122    1.386   .     A
C118   C125    1.391   .     A
C119   C123    1.442   .     A
C119   C161    1.523   .     S
C120   C124    1.416   .     A
C120   C168    1.523   .     S
C121   C175    1.518   .     S
C121   C124    1.421   .     A
C122   C182    1.522   .     S
C122   C123    1.437   .     A
C125   C1044   1.472   1_554 S
C126   C1043   1.472   .     S
N133   Zn143   2.037   .     S
N134   Zn144   2.037   .     S
O135   Zn143   1.979   .     S
O136   Zn144   1.979   .     S
O137   Zn143   1.987   .     S
O138   Zn144   1.987   .     S
O139   Zn143   1.999   .     S
O140   Zn144   1.999   .     S
O141   Zn143   1.992   .     S
O142   Zn144   1.992   .     S
C145   H146    1.086   .     S
C145   H147    1.108   .     S
C145   H148    1.110   .     S
C149   H150    1.098   .     S
C149   H152    1.102   .     S
C149   H151    1.109   .     S
C153   H154    1.085   .     S
C153   H155    1.108   .     S
C153   H156    1.110   .     S
C157   H158    1.102   .     S
C157   H159    1.109   .     S
C157   H160    1.103   .     S
C161   H166    1.103   .     S
C161   C162    1.527   .     S
C161   H167    1.113   .     S
C162   H165    1.111   .     S
C162   H164    1.109   .     S
C162   H163    1.109   .     S
C168   H174    1.108   .     S
C168   H173    1.104   .     S
C168   C169    1.533   .     S
C169   H170    1.110   .     S
C169   H172    1.109   .     S
C169   H171    1.111   .     S
C175   C176    1.527   .     S
C175   H180    1.107   .     S
C175   H181    1.112   .     S
C176   H178    1.105   .     S
C176   H179    1.110   .     S
C176   H177    1.110   .     S
C182   H188    1.112   .     S
C182   H187    1.096   .     S
C182   C183    1.531   .     S
C183   H184    1.111   .     S
C183   H185    1.107   .     S
C183   H186    1.110   .     S
C189   H190    1.110   .     S
C189   H192    1.105   .     S
C189   H191    1.108   .     S
C193   H194    1.107   .     S
C193   H195    1.106   .     S
C193   H196    1.105   .     S
C197   H198    1.107   .     S
C197   H200    1.110   .     S
C197   H199    1.110   .     S
C201   H203    1.110   .     S
C201   H202    1.107   .     S
C201   H204    1.110   .     S
C205   O237    1.290   .     A
C205   C230    1.408   .     S
C205   O240    1.286   .     A
C206   O239    1.288   .     A
C206   O238    1.289   .     A
C206   C229    1.412   .     S
C207   C225    1.491   .     S
C207   O244    1.310   .     A
C207   O241    1.310   .     A
C208   C226    1.470   .     S
C208   O243    1.309   .     A
C208   O242    1.305   .     A
C209   N236    1.379   .     A
C209   C247    1.508   .     S
C209   C824    1.434   1_545 S
C210   N235    1.378   .     A
C210   C251    1.512   .     S
C210   C517    1.434   .     S
C211   N236    1.380   .     A
C211   C255    1.509   .     S
C211   C822    1.434   1_545 S
C212   C259    1.513   .     S
C212   N235    1.378   .     A
C212   C515    1.434   .     S
C213   C230    1.409   .     A
C213   C291    1.523   .     S
C214   C229    1.409   .     A
C214   C295    1.519   .     S
C214   C12     1.393   1_655 S
C215   C229    1.409   .     A
C215   C299    1.523   .     S
C215   C9      1.395   1_655 S
C216   C303    1.524   .     S
C216   C230    1.407   .     A
C217   C227    1.389   .     A
C217   C221    1.396   .     A
C217   H231    1.084   .     S
C218   H232    1.082   .     S
C218   C222    1.387   .     A
C218   C228    1.397   .     A
C219   C223    1.394   .     A
C219   H233    1.083   .     S
C219   C228    1.402   .     A
C220   H234    1.079   .     S
C220   C224    1.386   .     A
C220   C227    1.391   .     A
C221   C225    1.442   .     A
C221   C263    1.523   .     S
C222   C226    1.416   .     A
C222   C270    1.523   .     S
C223   C277    1.518   .     S
C223   C226    1.421   .     A
C224   C284    1.522   .     S
C224   C225    1.437   .     A
C227   C1146   1.472   1_554 S
C228   C1145   1.472   .     S
N235   Zn245   2.037   .     S
N236   Zn246   2.037   .     S
O237   Zn245   1.979   .     S
O238   Zn246   1.979   .     S
O239   Zn245   1.987   .     S
O240   Zn246   1.987   .     S
O241   Zn245   1.999   .     S
O242   Zn246   1.999   .     S
O243   Zn245   1.992   .     S
O244   Zn246   1.992   .     S
C247   H248    1.086   .     S
C247   H249    1.108   .     S
C247   H250    1.110   .     S
C251   H252    1.098   .     S
C251   H254    1.102   .     S
C251   H253    1.109   .     S
C255   H256    1.085   .     S
C255   H257    1.108   .     S
C255   H258    1.110   .     S
C259   H260    1.102   .     S
C259   H261    1.109   .     S
C259   H262    1.103   .     S
C263   H268    1.103   .     S
C263   C264    1.527   .     S
C263   H269    1.113   .     S
C264   H267    1.111   .     S
C264   H266    1.109   .     S
C264   H265    1.109   .     S
C270   H276    1.108   .     S
C270   H275    1.104   .     S
C270   C271    1.533   .     S
C271   H272    1.110   .     S
C271   H274    1.109   .     S
C271   H273    1.111   .     S
C277   C278    1.527   .     S
C277   H282    1.107   .     S
C277   H283    1.112   .     S
C278   H280    1.105   .     S
C278   H281    1.110   .     S
C278   H279    1.110   .     S
C284   H290    1.112   .     S
C284   H289    1.096   .     S
C284   C285    1.531   .     S
C285   H286    1.111   .     S
C285   H287    1.107   .     S
C285   H288    1.110   .     S
C291   H292    1.110   .     S
C291   H294    1.105   .     S
C291   H293    1.108   .     S
C295   H296    1.107   .     S
C295   H297    1.106   .     S
C295   H298    1.105   .     S
C299   H300    1.107   .     S
C299   H302    1.110   .     S
C299   H301    1.110   .     S
C303   H305    1.110   .     S
C303   H304    1.107   .     S
C303   H306    1.110   .     S
C307   O339    1.290   .     A
C307   C332    1.408   .     S
C307   O342    1.286   .     A
C308   O341    1.288   .     A
C308   O340    1.289   .     A
C308   C331    1.412   .     S
C309   C327    1.491   .     S
C309   O346    1.310   .     A
C309   O343    1.310   .     A
C310   C328    1.470   .     S
C310   O345    1.309   .     A
C310   O344    1.305   .     A
C311   N338    1.379   .     A
C311   C349    1.508   .     S
C312   N337    1.378   .     A
C312   C353    1.512   .     S
C312   C619    1.434   .     S
C313   N338    1.380   .     A
C313   C357    1.509   .     S
C314   C361    1.513   .     S
C314   N337    1.378   .     A
C314   C617    1.434   .     S
C315   C332    1.409   .     A
C315   C393    1.523   .     S
C315   C521    1.395   1_455 S
C316   C331    1.409   .     A
C316   C397    1.519   .     S
C316   C420    1.393   .     S
C317   C331    1.409   .     A
C317   C401    1.523   .     S
C317   C417    1.395   .     S
C318   C405    1.524   .     S
C318   C332    1.407   .     A
C318   C520    1.393   1_455 S
C319   C329    1.389   .     A
C319   C323    1.396   .     A
C319   H333    1.084   .     S
C320   H334    1.082   .     S
C320   C324    1.387   .     A
C320   C330    1.397   .     A
C321   C325    1.394   .     A
C321   H335    1.083   .     S
C321   C330    1.402   .     A
C322   H336    1.079   .     S
C322   C326    1.386   .     A
C322   C329    1.391   .     A
C323   C327    1.442   .     A
C323   C365    1.523   .     S
C324   C328    1.416   .     A
C324   C372    1.523   .     S
C325   C379    1.518   .     S
C325   C328    1.421   .     A
C326   C386    1.522   .     S
C326   C327    1.437   .     A
C329   C1248   1.472   1_554 S
C330   C1247   1.472   .     S
N337   Zn347   2.037   .     S
N338   Zn348   2.037   .     S
O339   Zn347   1.979   .     S
O340   Zn348   1.979   .     S
O341   Zn347   1.987   .     S
O342   Zn348   1.987   .     S
O343   Zn347   1.999   .     S
O344   Zn348   1.999   .     S
O345   Zn347   1.992   .     S
O346   Zn348   1.992   .     S
C349   H350    1.086   .     S
C349   H351    1.108   .     S
C349   H352    1.110   .     S
C353   H354    1.098   .     S
C353   H356    1.102   .     S
C353   H355    1.109   .     S
C357   H358    1.085   .     S
C357   H359    1.108   .     S
C357   H360    1.110   .     S
C361   H362    1.102   .     S
C361   H363    1.109   .     S
C361   H364    1.103   .     S
C365   H370    1.103   .     S
C365   C366    1.527   .     S
C365   H371    1.113   .     S
C366   H369    1.111   .     S
C366   H368    1.109   .     S
C366   H367    1.109   .     S
C372   H378    1.108   .     S
C372   H377    1.104   .     S
C372   C373    1.533   .     S
C373   H374    1.110   .     S
C373   H376    1.109   .     S
C373   H375    1.111   .     S
C379   C380    1.527   .     S
C379   H384    1.107   .     S
C379   H385    1.112   .     S
C380   H382    1.105   .     S
C380   H383    1.110   .     S
C380   H381    1.110   .     S
C386   H392    1.112   .     S
C386   H391    1.096   .     S
C386   C387    1.531   .     S
C387   H388    1.111   .     S
C387   H389    1.107   .     S
C387   H390    1.110   .     S
C393   H394    1.110   .     S
C393   H396    1.105   .     S
C393   H395    1.108   .     S
C397   H398    1.107   .     S
C397   H399    1.106   .     S
C397   H400    1.105   .     S
C401   H402    1.107   .     S
C401   H404    1.110   .     S
C401   H403    1.110   .     S
C405   H407    1.110   .     S
C405   H406    1.107   .     S
C405   H408    1.110   .     S
C409   O441    1.290   .     A
C409   C434    1.408   .     S
C409   O444    1.286   .     A
C410   O443    1.288   .     A
C410   O442    1.289   .     A
C410   C433    1.412   .     S
C411   C429    1.491   .     S
C411   O448    1.310   .     A
C411   O445    1.310   .     A
C412   C430    1.470   .     S
C412   O447    1.309   .     A
C412   O446    1.305   .     A
C413   N440    1.379   .     A
C413   C451    1.508   .     S
C414   N439    1.378   .     A
C414   C455    1.512   .     S
C414   C721    1.434   .     S
C415   N440    1.380   .     A
C415   C459    1.509   .     S
C416   C463    1.513   .     S
C416   N439    1.378   .     A
C416   C719    1.434   .     S
C417   C434    1.409   .     A
C417   C495    1.523   .     S
C418   C433    1.409   .     A
C418   C499    1.519   .     S
C418   C522    1.393   .     S
C419   C433    1.409   .     A
C419   C503    1.523   .     S
C419   C519    1.395   .     S
C420   C507    1.524   .     S
C420   C434    1.407   .     A
C421   C431    1.389   .     A
C421   C425    1.396   .     A
C421   H435    1.084   .     S
C422   H436    1.082   .     S
C422   C426    1.387   .     A
C422   C432    1.397   .     A
C423   C427    1.394   .     A
C423   H437    1.083   .     S
C423   C432    1.402   .     A
C424   H438    1.079   .     S
C424   C428    1.386   .     A
C424   C431    1.391   .     A
C425   C429    1.442   .     A
C425   C467    1.523   .     S
C426   C430    1.416   .     A
C426   C474    1.523   .     S
C427   C481    1.518   .     S
C427   C430    1.421   .     A
C428   C488    1.522   .     S
C428   C429    1.437   .     A
C431   C1350   1.472   1_554 S
C432   C1349   1.472   .     S
N439   Zn449   2.037   .     S
N440   Zn450   2.037   .     S
O441   Zn449   1.979   .     S
O442   Zn450   1.979   .     S
O443   Zn449   1.987   .     S
O444   Zn450   1.987   .     S
O445   Zn449   1.999   .     S
O446   Zn450   1.999   .     S
O447   Zn449   1.992   .     S
O448   Zn450   1.992   .     S
C451   H452    1.086   .     S
C451   H453    1.108   .     S
C451   H454    1.110   .     S
C455   H456    1.098   .     S
C455   H458    1.102   .     S
C455   H457    1.109   .     S
C459   H460    1.085   .     S
C459   H461    1.108   .     S
C459   H462    1.110   .     S
C463   H464    1.102   .     S
C463   H465    1.109   .     S
C463   H466    1.103   .     S
C467   H472    1.103   .     S
C467   C468    1.527   .     S
C467   H473    1.113   .     S
C468   H471    1.111   .     S
C468   H470    1.109   .     S
C468   H469    1.109   .     S
C474   H480    1.108   .     S
C474   H479    1.104   .     S
C474   C475    1.533   .     S
C475   H476    1.110   .     S
C475   H478    1.109   .     S
C475   H477    1.111   .     S
C481   C482    1.527   .     S
C481   H486    1.107   .     S
C481   H487    1.112   .     S
C482   H484    1.105   .     S
C482   H485    1.110   .     S
C482   H483    1.110   .     S
C488   H494    1.112   .     S
C488   H493    1.096   .     S
C488   C489    1.531   .     S
C489   H490    1.111   .     S
C489   H491    1.107   .     S
C489   H492    1.110   .     S
C495   H496    1.110   .     S
C495   H498    1.105   .     S
C495   H497    1.108   .     S
C499   H500    1.107   .     S
C499   H501    1.106   .     S
C499   H502    1.105   .     S
C503   H504    1.107   .     S
C503   H506    1.110   .     S
C503   H505    1.110   .     S
C507   H509    1.110   .     S
C507   H508    1.107   .     S
C507   H510    1.110   .     S
C511   O543    1.290   .     A
C511   C536    1.408   .     S
C511   O546    1.286   .     A
C512   O545    1.288   .     A
C512   O544    1.289   .     A
C512   C535    1.412   .     S
C513   C531    1.491   .     S
C513   O550    1.310   .     A
C513   O547    1.310   .     A
C514   C532    1.470   .     S
C514   O549    1.309   .     A
C514   O548    1.305   .     A
C515   N542    1.379   .     A
C515   C553    1.508   .     S
C516   N541    1.378   .     A
C516   C557    1.512   .     S
C516   C823    1.434   .     S
C517   N542    1.380   .     A
C517   C561    1.509   .     S
C518   C565    1.513   .     S
C518   N541    1.378   .     A
C518   C821    1.434   .     S
C519   C536    1.409   .     A
C519   C597    1.523   .     S
C520   C535    1.409   .     A
C520   C601    1.519   .     S
C520   C318    1.393   1_655 S
C521   C535    1.409   .     A
C521   C605    1.523   .     S
C521   C315    1.395   1_655 S
C522   C609    1.524   .     S
C522   C536    1.407   .     A
C523   C533    1.389   .     A
C523   C527    1.396   .     A
C523   H537    1.084   .     S
C524   H538    1.082   .     S
C524   C528    1.387   .     A
C524   C534    1.397   .     A
C525   C529    1.394   .     A
C525   H539    1.083   .     S
C525   C534    1.402   .     A
C526   H540    1.079   .     S
C526   C530    1.386   .     A
C526   C533    1.391   .     A
C527   C531    1.442   .     A
C527   C569    1.523   .     S
C528   C532    1.416   .     A
C528   C576    1.523   .     S
C529   C583    1.518   .     S
C529   C532    1.421   .     A
C530   C590    1.522   .     S
C530   C531    1.437   .     A
C533   C1452   1.472   1_554 S
C534   C1451   1.472   .     S
N541   Zn551   2.037   .     S
N542   Zn552   2.037   .     S
O543   Zn551   1.979   .     S
O544   Zn552   1.979   .     S
O545   Zn551   1.987   .     S
O546   Zn552   1.987   .     S
O547   Zn551   1.999   .     S
O548   Zn552   1.999   .     S
O549   Zn551   1.992   .     S
O550   Zn552   1.992   .     S
C553   H554    1.086   .     S
C553   H555    1.108   .     S
C553   H556    1.110   .     S
C557   H558    1.098   .     S
C557   H560    1.102   .     S
C557   H559    1.109   .     S
C561   H562    1.085   .     S
C561   H563    1.108   .     S
C561   H564    1.110   .     S
C565   H566    1.102   .     S
C565   H567    1.109   .     S
C565   H568    1.103   .     S
C569   H574    1.103   .     S
C569   C570    1.527   .     S
C569   H575    1.113   .     S
C570   H573    1.111   .     S
C570   H572    1.109   .     S
C570   H571    1.109   .     S
C576   H582    1.108   .     S
C576   H581    1.104   .     S
C576   C577    1.533   .     S
C577   H578    1.110   .     S
C577   H580    1.109   .     S
C577   H579    1.111   .     S
C583   C584    1.527   .     S
C583   H588    1.107   .     S
C583   H589    1.112   .     S
C584   H586    1.105   .     S
C584   H587    1.110   .     S
C584   H585    1.110   .     S
C590   H596    1.112   .     S
C590   H595    1.096   .     S
C590   C591    1.531   .     S
C591   H592    1.111   .     S
C591   H593    1.107   .     S
C591   H594    1.110   .     S
C597   H598    1.110   .     S
C597   H600    1.105   .     S
C597   H599    1.108   .     S
C601   H602    1.107   .     S
C601   H603    1.106   .     S
C601   H604    1.105   .     S
C605   H606    1.107   .     S
C605   H608    1.110   .     S
C605   H607    1.110   .     S
C609   H611    1.110   .     S
C609   H610    1.107   .     S
C609   H612    1.110   .     S
C613   O645    1.290   .     A
C613   C638    1.408   .     S
C613   O648    1.286   .     A
C614   O647    1.288   .     A
C614   O646    1.289   .     A
C614   C637    1.412   .     S
C615   C633    1.491   .     S
C615   O652    1.310   .     A
C615   O649    1.310   .     A
C616   C634    1.470   .     S
C616   O651    1.309   .     A
C616   O650    1.305   .     A
C617   N644    1.379   .     A
C617   C655    1.508   .     S
C618   N643    1.378   .     A
C618   C659    1.512   .     S
C618   C7      1.434   1_565 S
C619   N644    1.380   .     A
C619   C663    1.509   .     S
C620   C667    1.513   .     S
C620   N643    1.378   .     A
C620   C5      1.434   1_565 S
C621   C638    1.409   .     A
C621   C699    1.523   .     S
C621   C827    1.395   1_455 S
C622   C637    1.409   .     A
C622   C703    1.519   .     S
C622   C726    1.393   .     S
C623   C637    1.409   .     A
C623   C707    1.523   .     S
C623   C723    1.395   .     S
C624   C711    1.524   .     S
C624   C638    1.407   .     A
C624   C826    1.393   1_455 S
C625   C635    1.389   .     A
C625   C629    1.396   .     A
C625   H639    1.084   .     S
C626   H640    1.082   .     S
C626   C630    1.387   .     A
C626   C636    1.397   .     A
C627   C631    1.394   .     A
C627   H641    1.083   .     S
C627   C636    1.402   .     A
C628   H642    1.079   .     S
C628   C632    1.386   .     A
C628   C635    1.391   .     A
C629   C633    1.442   .     A
C629   C671    1.523   .     S
C630   C634    1.416   .     A
C630   C678    1.523   .     S
C631   C685    1.518   .     S
C631   C634    1.421   .     A
C632   C692    1.522   .     S
C632   C633    1.437   .     A
C635   C1554   1.472   1_554 S
C636   C1553   1.472   .     S
N643   Zn653   2.037   .     S
N644   Zn654   2.037   .     S
O645   Zn653   1.979   .     S
O646   Zn654   1.979   .     S
O647   Zn653   1.987   .     S
O648   Zn654   1.987   .     S
O649   Zn653   1.999   .     S
O650   Zn654   1.999   .     S
O651   Zn653   1.992   .     S
O652   Zn654   1.992   .     S
C655   H656    1.086   .     S
C655   H657    1.108   .     S
C655   H658    1.110   .     S
C659   H660    1.098   .     S
C659   H662    1.102   .     S
C659   H661    1.109   .     S
C663   H664    1.085   .     S
C663   H665    1.108   .     S
C663   H666    1.110   .     S
C667   H668    1.102   .     S
C667   H669    1.109   .     S
C667   H670    1.103   .     S
C671   H676    1.103   .     S
C671   C672    1.527   .     S
C671   H677    1.113   .     S
C672   H675    1.111   .     S
C672   H674    1.109   .     S
C672   H673    1.109   .     S
C678   H684    1.108   .     S
C678   H683    1.104   .     S
C678   C679    1.533   .     S
C679   H680    1.110   .     S
C679   H682    1.109   .     S
C679   H681    1.111   .     S
C685   C686    1.527   .     S
C685   H690    1.107   .     S
C685   H691    1.112   .     S
C686   H688    1.105   .     S
C686   H689    1.110   .     S
C686   H687    1.110   .     S
C692   H698    1.112   .     S
C692   H697    1.096   .     S
C692   C693    1.531   .     S
C693   H694    1.111   .     S
C693   H695    1.107   .     S
C693   H696    1.110   .     S
C699   H700    1.110   .     S
C699   H702    1.105   .     S
C699   H701    1.108   .     S
C703   H704    1.107   .     S
C703   H705    1.106   .     S
C703   H706    1.105   .     S
C707   H708    1.107   .     S
C707   H710    1.110   .     S
C707   H709    1.110   .     S
C711   H713    1.110   .     S
C711   H712    1.107   .     S
C711   H714    1.110   .     S
C715   O747    1.290   .     A
C715   C740    1.408   .     S
C715   O750    1.286   .     A
C716   O749    1.288   .     A
C716   O748    1.289   .     A
C716   C739    1.412   .     S
C717   C735    1.491   .     S
C717   O754    1.310   .     A
C717   O751    1.310   .     A
C718   C736    1.470   .     S
C718   O753    1.309   .     A
C718   O752    1.305   .     A
C719   N746    1.379   .     A
C719   C757    1.508   .     S
C720   N745    1.378   .     A
C720   C761    1.512   .     S
C720   C109    1.434   1_565 S
C721   N746    1.380   .     A
C721   C765    1.509   .     S
C722   C769    1.513   .     S
C722   N745    1.378   .     A
C722   C107    1.434   1_565 S
C723   C740    1.409   .     A
C723   C801    1.523   .     S
C724   C739    1.409   .     A
C724   C805    1.519   .     S
C724   C828    1.393   .     S
C725   C739    1.409   .     A
C725   C809    1.523   .     S
C725   C825    1.395   .     S
C726   C813    1.524   .     S
C726   C740    1.407   .     A
C727   C737    1.389   .     A
C727   C731    1.396   .     A
C727   H741    1.084   .     S
C728   H742    1.082   .     S
C728   C732    1.387   .     A
C728   C738    1.397   .     A
C729   C733    1.394   .     A
C729   H743    1.083   .     S
C729   C738    1.402   .     A
C730   H744    1.079   .     S
C730   C734    1.386   .     A
C730   C737    1.391   .     A
C731   C735    1.442   .     A
C731   C773    1.523   .     S
C732   C736    1.416   .     A
C732   C780    1.523   .     S
C733   C787    1.518   .     S
C733   C736    1.421   .     A
C734   C794    1.522   .     S
C734   C735    1.437   .     A
C737   C1656   1.472   1_554 S
C738   C1655   1.472   .     S
N745   Zn755   2.037   .     S
N746   Zn756   2.037   .     S
O747   Zn755   1.979   .     S
O748   Zn756   1.979   .     S
O749   Zn755   1.987   .     S
O750   Zn756   1.987   .     S
O751   Zn755   1.999   .     S
O752   Zn756   1.999   .     S
O753   Zn755   1.992   .     S
O754   Zn756   1.992   .     S
C757   H758    1.086   .     S
C757   H759    1.108   .     S
C757   H760    1.110   .     S
C761   H762    1.098   .     S
C761   H764    1.102   .     S
C761   H763    1.109   .     S
C765   H766    1.085   .     S
C765   H767    1.108   .     S
C765   H768    1.110   .     S
C769   H770    1.102   .     S
C769   H771    1.109   .     S
C769   H772    1.103   .     S
C773   H778    1.103   .     S
C773   C774    1.527   .     S
C773   H779    1.113   .     S
C774   H777    1.111   .     S
C774   H776    1.109   .     S
C774   H775    1.109   .     S
C780   H786    1.108   .     S
C780   H785    1.104   .     S
C780   C781    1.533   .     S
C781   H782    1.110   .     S
C781   H784    1.109   .     S
C781   H783    1.111   .     S
C787   C788    1.527   .     S
C787   H792    1.107   .     S
C787   H793    1.112   .     S
C788   H790    1.105   .     S
C788   H791    1.110   .     S
C788   H789    1.110   .     S
C794   H800    1.112   .     S
C794   H799    1.096   .     S
C794   C795    1.531   .     S
C795   H796    1.111   .     S
C795   H797    1.107   .     S
C795   H798    1.110   .     S
C801   H802    1.110   .     S
C801   H804    1.105   .     S
C801   H803    1.108   .     S
C805   H806    1.107   .     S
C805   H807    1.106   .     S
C805   H808    1.105   .     S
C809   H810    1.107   .     S
C809   H812    1.110   .     S
C809   H811    1.110   .     S
C813   H815    1.110   .     S
C813   H814    1.107   .     S
C813   H816    1.110   .     S
C817   O849    1.290   .     A
C817   C842    1.408   .     S
C817   O852    1.286   .     A
C818   O851    1.288   .     A
C818   O850    1.289   .     A
C818   C841    1.412   .     S
C819   C837    1.491   .     S
C819   O856    1.310   .     A
C819   O853    1.310   .     A
C820   C838    1.470   .     S
C820   O855    1.309   .     A
C820   O854    1.305   .     A
C821   N848    1.379   .     A
C821   C859    1.508   .     S
C822   N847    1.378   .     A
C822   C863    1.512   .     S
C822   C211    1.434   1_565 S
C823   N848    1.380   .     A
C823   C867    1.509   .     S
C824   C871    1.513   .     S
C824   N847    1.378   .     A
C824   C209    1.434   1_565 S
C825   C842    1.409   .     A
C825   C903    1.523   .     S
C826   C841    1.409   .     A
C826   C907    1.519   .     S
C826   C624    1.393   1_655 S
C827   C841    1.409   .     A
C827   C911    1.523   .     S
C827   C621    1.395   1_655 S
C828   C915    1.524   .     S
C828   C842    1.407   .     A
C829   C839    1.389   .     A
C829   C833    1.396   .     A
C829   H843    1.084   .     S
C830   H844    1.082   .     S
C830   C834    1.387   .     A
C830   C840    1.397   .     A
C831   C835    1.394   .     A
C831   H845    1.083   .     S
C831   C840    1.402   .     A
C832   H846    1.079   .     S
C832   C836    1.386   .     A
C832   C839    1.391   .     A
C833   C837    1.442   .     A
C833   C875    1.523   .     S
C834   C838    1.416   .     A
C834   C882    1.523   .     S
C835   C889    1.518   .     S
C835   C838    1.421   .     A
C836   C896    1.522   .     S
C836   C837    1.437   .     A
C839   C1758   1.472   1_554 S
C840   C1757   1.472   .     S
N847   Zn857   2.037   .     S
N848   Zn858   2.037   .     S
O849   Zn857   1.979   .     S
O850   Zn858   1.979   .     S
O851   Zn857   1.987   .     S
O852   Zn858   1.987   .     S
O853   Zn857   1.999   .     S
O854   Zn858   1.999   .     S
O855   Zn857   1.992   .     S
O856   Zn858   1.992   .     S
C859   H860    1.086   .     S
C859   H861    1.108   .     S
C859   H862    1.110   .     S
C863   H864    1.098   .     S
C863   H866    1.102   .     S
C863   H865    1.109   .     S
C867   H868    1.085   .     S
C867   H869    1.108   .     S
C867   H870    1.110   .     S
C871   H872    1.102   .     S
C871   H873    1.109   .     S
C871   H874    1.103   .     S
C875   H880    1.103   .     S
C875   C876    1.527   .     S
C875   H881    1.113   .     S
C876   H879    1.111   .     S
C876   H878    1.109   .     S
C876   H877    1.109   .     S
C882   H888    1.108   .     S
C882   H887    1.104   .     S
C882   C883    1.533   .     S
C883   H884    1.110   .     S
C883   H886    1.109   .     S
C883   H885    1.111   .     S
C889   C890    1.527   .     S
C889   H894    1.107   .     S
C889   H895    1.112   .     S
C890   H892    1.105   .     S
C890   H893    1.110   .     S
C890   H891    1.110   .     S
C896   H902    1.112   .     S
C896   H901    1.096   .     S
C896   C897    1.531   .     S
C897   H898    1.111   .     S
C897   H899    1.107   .     S
C897   H900    1.110   .     S
C903   H904    1.110   .     S
C903   H906    1.105   .     S
C903   H905    1.108   .     S
C907   H908    1.107   .     S
C907   H909    1.106   .     S
C907   H910    1.105   .     S
C911   H912    1.107   .     S
C911   H914    1.110   .     S
C911   H913    1.110   .     S
C915   H917    1.110   .     S
C915   H916    1.107   .     S
C915   H918    1.110   .     S
C919   O951    1.290   .     A
C919   C944    1.408   .     S
C919   O954    1.286   .     A
C920   O953    1.288   .     A
C920   O952    1.289   .     A
C920   C943    1.412   .     S
C921   C939    1.491   .     S
C921   O958    1.310   .     A
C921   O955    1.310   .     A
C922   C940    1.470   .     S
C922   O957    1.309   .     A
C922   O956    1.305   .     A
C923   N950    1.379   .     A
C923   C961    1.508   .     S
C923   C1538   1.434   1_545 S
C924   N949    1.378   .     A
C924   C965    1.512   .     S
C924   C1231   1.434   .     S
C925   N950    1.380   .     A
C925   C969    1.509   .     S
C925   C1536   1.434   1_545 S
C926   C973    1.513   .     S
C926   N949    1.378   .     A
C926   C1229   1.434   .     S
C927   C944    1.409   .     A
C927   C1005   1.523   .     S
C927   C1133   1.395   1_455 S
C928   C943    1.409   .     A
C928   C1009   1.519   .     S
C928   C1032   1.393   .     S
C929   C943    1.409   .     A
C929   C1013   1.523   .     S
C929   C1029   1.395   .     S
C930   C1017   1.524   .     S
C930   C944    1.407   .     A
C930   C1132   1.393   1_455 S
C931   C941    1.389   .     A
C931   C935    1.396   .     A
C931   H945    1.084   .     S
C932   H946    1.082   .     S
C932   C936    1.387   .     A
C932   C942    1.397   .     A
C933   C937    1.394   .     A
C933   H947    1.083   .     S
C933   C942    1.402   .     A
C934   H948    1.079   .     S
C934   C938    1.386   .     A
C934   C941    1.391   .     A
C935   C939    1.442   .     A
C935   C977    1.523   .     S
C936   C940    1.416   .     A
C936   C984    1.523   .     S
C937   C991    1.518   .     S
C937   C940    1.421   .     A
C938   C998    1.522   .     S
C938   C939    1.437   .     A
C942   C23     1.472   1_556 S
N949   Zn959   2.037   .     S
N950   Zn960   2.037   .     S
O951   Zn959   1.979   .     S
O952   Zn960   1.979   .     S
O953   Zn959   1.987   .     S
O954   Zn960   1.987   .     S
O955   Zn959   1.999   .     S
O956   Zn960   1.999   .     S
O957   Zn959   1.992   .     S
O958   Zn960   1.992   .     S
C961   H962    1.086   .     S
C961   H963    1.108   .     S
C961   H964    1.110   .     S
C965   H966    1.098   .     S
C965   H968    1.102   .     S
C965   H967    1.109   .     S
C969   H970    1.085   .     S
C969   H971    1.108   .     S
C969   H972    1.110   .     S
C973   H974    1.102   .     S
C973   H975    1.109   .     S
C973   H976    1.103   .     S
C977   H982    1.103   .     S
C977   C978    1.527   .     S
C977   H983    1.113   .     S
C978   H981    1.111   .     S
C978   H980    1.109   .     S
C978   H979    1.109   .     S
C984   H990    1.108   .     S
C984   H989    1.104   .     S
C984   C985    1.533   .     S
C985   H986    1.110   .     S
C985   H988    1.109   .     S
C985   H987    1.111   .     S
C991   C992    1.527   .     S
C991   H996    1.107   .     S
C991   H997    1.112   .     S
C992   H994    1.105   .     S
C992   H995    1.110   .     S
C992   H993    1.110   .     S
C998   H1004   1.112   .     S
C998   H1003   1.096   .     S
C998   C999    1.531   .     S
C999   H1000   1.111   .     S
C999   H1001   1.107   .     S
C999   H1002   1.110   .     S
C1005  H1006   1.110   .     S
C1005  H1008   1.105   .     S
C1005  H1007   1.108   .     S
C1009  H1010   1.107   .     S
C1009  H1011   1.106   .     S
C1009  H1012   1.105   .     S
C1013  H1014   1.107   .     S
C1013  H1016   1.110   .     S
C1013  H1015   1.110   .     S
C1017  H1019   1.110   .     S
C1017  H1018   1.107   .     S
C1017  H1020   1.110   .     S
C1021  O1053   1.290   .     A
C1021  C1046   1.408   .     S
C1021  O1056   1.286   .     A
C1022  O1055   1.288   .     A
C1022  O1054   1.289   .     A
C1022  C1045   1.412   .     S
C1023  C1041   1.491   .     S
C1023  O1060   1.310   .     A
C1023  O1057   1.310   .     A
C1024  C1042   1.470   .     S
C1024  O1059   1.309   .     A
C1024  O1058   1.305   .     A
C1025  N1052   1.379   .     A
C1025  C1063   1.508   .     S
C1025  C1640   1.434   1_545 S
C1026  N1051   1.378   .     A
C1026  C1067   1.512   .     S
C1026  C1333   1.434   .     S
C1027  N1052   1.380   .     A
C1027  C1071   1.509   .     S
C1027  C1638   1.434   1_545 S
C1028  C1075   1.513   .     S
C1028  N1051   1.378   .     A
C1028  C1331   1.434   .     S
C1029  C1046   1.409   .     A
C1029  C1107   1.523   .     S
C1030  C1045   1.409   .     A
C1030  C1111   1.519   .     S
C1030  C1134   1.393   .     S
C1031  C1045   1.409   .     A
C1031  C1115   1.523   .     S
C1031  C1131   1.395   .     S
C1032  C1119   1.524   .     S
C1032  C1046   1.407   .     A
C1033  C1043   1.389   .     A
C1033  C1037   1.396   .     A
C1033  H1047   1.084   .     S
C1034  H1048   1.082   .     S
C1034  C1038   1.387   .     A
C1034  C1044   1.397   .     A
C1035  C1039   1.394   .     A
C1035  H1049   1.083   .     S
C1035  C1044   1.402   .     A
C1036  H1050   1.079   .     S
C1036  C1040   1.386   .     A
C1036  C1043   1.391   .     A
C1037  C1041   1.442   .     A
C1037  C1079   1.523   .     S
C1038  C1042   1.416   .     A
C1038  C1086   1.523   .     S
C1039  C1093   1.518   .     S
C1039  C1042   1.421   .     A
C1040  C1100   1.522   .     S
C1040  C1041   1.437   .     A
C1044  C125    1.472   1_556 S
N1051  Zn1061  2.037   .     S
N1052  Zn1062  2.037   .     S
O1053  Zn1061  1.979   .     S
O1054  Zn1062  1.979   .     S
O1055  Zn1061  1.987   .     S
O1056  Zn1062  1.987   .     S
O1057  Zn1061  1.999   .     S
O1058  Zn1062  1.999   .     S
O1059  Zn1061  1.992   .     S
O1060  Zn1062  1.992   .     S
C1063  H1064   1.086   .     S
C1063  H1065   1.108   .     S
C1063  H1066   1.110   .     S
C1067  H1068   1.098   .     S
C1067  H1070   1.102   .     S
C1067  H1069   1.109   .     S
C1071  H1072   1.085   .     S
C1071  H1073   1.108   .     S
C1071  H1074   1.110   .     S
C1075  H1076   1.102   .     S
C1075  H1077   1.109   .     S
C1075  H1078   1.103   .     S
C1079  H1084   1.103   .     S
C1079  C1080   1.527   .     S
C1079  H1085   1.113   .     S
C1080  H1083   1.111   .     S
C1080  H1082   1.109   .     S
C1080  H1081   1.109   .     S
C1086  H1092   1.108   .     S
C1086  H1091   1.104   .     S
C1086  C1087   1.533   .     S
C1087  H1088   1.110   .     S
C1087  H1090   1.109   .     S
C1087  H1089   1.111   .     S
C1093  C1094   1.527   .     S
C1093  H1098   1.107   .     S
C1093  H1099   1.112   .     S
C1094  H1096   1.105   .     S
C1094  H1097   1.110   .     S
C1094  H1095   1.110   .     S
C1100  H1106   1.112   .     S
C1100  H1105   1.096   .     S
C1100  C1101   1.531   .     S
C1101  H1102   1.111   .     S
C1101  H1103   1.107   .     S
C1101  H1104   1.110   .     S
C1107  H1108   1.110   .     S
C1107  H1110   1.105   .     S
C1107  H1109   1.108   .     S
C1111  H1112   1.107   .     S
C1111  H1113   1.106   .     S
C1111  H1114   1.105   .     S
C1115  H1116   1.107   .     S
C1115  H1118   1.110   .     S
C1115  H1117   1.110   .     S
C1119  H1121   1.110   .     S
C1119  H1120   1.107   .     S
C1119  H1122   1.110   .     S
C1123  O1155   1.290   .     A
C1123  C1148   1.408   .     S
C1123  O1158   1.286   .     A
C1124  O1157   1.288   .     A
C1124  O1156   1.289   .     A
C1124  C1147   1.412   .     S
C1125  C1143   1.491   .     S
C1125  O1162   1.310   .     A
C1125  O1159   1.310   .     A
C1126  C1144   1.470   .     S
C1126  O1161   1.309   .     A
C1126  O1160   1.305   .     A
C1127  N1154   1.379   .     A
C1127  C1165   1.508   .     S
C1127  C1742   1.434   1_545 S
C1128  N1153   1.378   .     A
C1128  C1169   1.512   .     S
C1128  C1435   1.434   .     S
C1129  N1154   1.380   .     A
C1129  C1173   1.509   .     S
C1129  C1740   1.434   1_545 S
C1130  C1177   1.513   .     S
C1130  N1153   1.378   .     A
C1130  C1433   1.434   .     S
C1131  C1148   1.409   .     A
C1131  C1209   1.523   .     S
C1132  C1147   1.409   .     A
C1132  C1213   1.519   .     S
C1132  C930    1.393   1_655 S
C1133  C1147   1.409   .     A
C1133  C1217   1.523   .     S
C1133  C927    1.395   1_655 S
C1134  C1221   1.524   .     S
C1134  C1148   1.407   .     A
C1135  C1145   1.389   .     A
C1135  C1139   1.396   .     A
C1135  H1149   1.084   .     S
C1136  H1150   1.082   .     S
C1136  C1140   1.387   .     A
C1136  C1146   1.397   .     A
C1137  C1141   1.394   .     A
C1137  H1151   1.083   .     S
C1137  C1146   1.402   .     A
C1138  H1152   1.079   .     S
C1138  C1142   1.386   .     A
C1138  C1145   1.391   .     A
C1139  C1143   1.442   .     A
C1139  C1181   1.523   .     S
C1140  C1144   1.416   .     A
C1140  C1188   1.523   .     S
C1141  C1195   1.518   .     S
C1141  C1144   1.421   .     A
C1142  C1202   1.522   .     S
C1142  C1143   1.437   .     A
C1146  C227    1.472   1_556 S
N1153  Zn1163  2.037   .     S
N1154  Zn1164  2.037   .     S
O1155  Zn1163  1.979   .     S
O1156  Zn1164  1.979   .     S
O1157  Zn1163  1.987   .     S
O1158  Zn1164  1.987   .     S
O1159  Zn1163  1.999   .     S
O1160  Zn1164  1.999   .     S
O1161  Zn1163  1.992   .     S
O1162  Zn1164  1.992   .     S
C1165  H1166   1.086   .     S
C1165  H1167   1.108   .     S
C1165  H1168   1.110   .     S
C1169  H1170   1.098   .     S
C1169  H1172   1.102   .     S
C1169  H1171   1.109   .     S
C1173  H1174   1.085   .     S
C1173  H1175   1.108   .     S
C1173  H1176   1.110   .     S
C1177  H1178   1.102   .     S
C1177  H1179   1.109   .     S
C1177  H1180   1.103   .     S
C1181  H1186   1.103   .     S
C1181  C1182   1.527   .     S
C1181  H1187   1.113   .     S
C1182  H1185   1.111   .     S
C1182  H1184   1.109   .     S
C1182  H1183   1.109   .     S
C1188  H1194   1.108   .     S
C1188  H1193   1.104   .     S
C1188  C1189   1.533   .     S
C1189  H1190   1.110   .     S
C1189  H1192   1.109   .     S
C1189  H1191   1.111   .     S
C1195  C1196   1.527   .     S
C1195  H1200   1.107   .     S
C1195  H1201   1.112   .     S
C1196  H1198   1.105   .     S
C1196  H1199   1.110   .     S
C1196  H1197   1.110   .     S
C1202  H1208   1.112   .     S
C1202  H1207   1.096   .     S
C1202  C1203   1.531   .     S
C1203  H1204   1.111   .     S
C1203  H1205   1.107   .     S
C1203  H1206   1.110   .     S
C1209  H1210   1.110   .     S
C1209  H1212   1.105   .     S
C1209  H1211   1.108   .     S
C1213  H1214   1.107   .     S
C1213  H1215   1.106   .     S
C1213  H1216   1.105   .     S
C1217  H1218   1.107   .     S
C1217  H1220   1.110   .     S
C1217  H1219   1.110   .     S
C1221  H1223   1.110   .     S
C1221  H1222   1.107   .     S
C1221  H1224   1.110   .     S
C1225  O1257   1.290   .     A
C1225  C1250   1.408   .     S
C1225  O1260   1.286   .     A
C1226  O1259   1.288   .     A
C1226  O1258   1.289   .     A
C1226  C1249   1.412   .     S
C1227  C1245   1.491   .     S
C1227  O1264   1.310   .     A
C1227  O1261   1.310   .     A
C1228  C1246   1.470   .     S
C1228  O1263   1.309   .     A
C1228  O1262   1.305   .     A
C1229  N1256   1.379   .     A
C1229  C1267   1.508   .     S
C1230  N1255   1.378   .     A
C1230  C1271   1.512   .     S
C1230  C1537   1.434   .     S
C1231  N1256   1.380   .     A
C1231  C1275   1.509   .     S
C1232  C1279   1.513   .     S
C1232  N1255   1.378   .     A
C1232  C1535   1.434   .     S
C1233  C1250   1.409   .     A
C1233  C1311   1.523   .     S
C1233  C1439   1.395   1_455 S
C1234  C1249   1.409   .     A
C1234  C1315   1.519   .     S
C1234  C1338   1.393   .     S
C1235  C1249   1.409   .     A
C1235  C1319   1.523   .     S
C1235  C1335   1.395   .     S
C1236  C1323   1.524   .     S
C1236  C1250   1.407   .     A
C1236  C1438   1.393   1_455 S
C1237  C1247   1.389   .     A
C1237  C1241   1.396   .     A
C1237  H1251   1.084   .     S
C1238  H1252   1.082   .     S
C1238  C1242   1.387   .     A
C1238  C1248   1.397   .     A
C1239  C1243   1.394   .     A
C1239  H1253   1.083   .     S
C1239  C1248   1.402   .     A
C1240  H1254   1.079   .     S
C1240  C1244   1.386   .     A
C1240  C1247   1.391   .     A
C1241  C1245   1.442   .     A
C1241  C1283   1.523   .     S
C1242  C1246   1.416   .     A
C1242  C1290   1.523   .     S
C1243  C1297   1.518   .     S
C1243  C1246   1.421   .     A
C1244  C1304   1.522   .     S
C1244  C1245   1.437   .     A
C1248  C329    1.472   1_556 S
N1255  Zn1265  2.037   .     S
N1256  Zn1266  2.037   .     S
O1257  Zn1265  1.979   .     S
O1258  Zn1266  1.979   .     S
O1259  Zn1265  1.987   .     S
O1260  Zn1266  1.987   .     S
O1261  Zn1265  1.999   .     S
O1262  Zn1266  1.999   .     S
O1263  Zn1265  1.992   .     S
O1264  Zn1266  1.992   .     S
C1267  H1268   1.086   .     S
C1267  H1269   1.108   .     S
C1267  H1270   1.110   .     S
C1271  H1272   1.098   .     S
C1271  H1274   1.102   .     S
C1271  H1273   1.109   .     S
C1275  H1276   1.085   .     S
C1275  H1277   1.108   .     S
C1275  H1278   1.110   .     S
C1279  H1280   1.102   .     S
C1279  H1281   1.109   .     S
C1279  H1282   1.103   .     S
C1283  H1288   1.103   .     S
C1283  C1284   1.527   .     S
C1283  H1289   1.113   .     S
C1284  H1287   1.111   .     S
C1284  H1286   1.109   .     S
C1284  H1285   1.109   .     S
C1290  H1296   1.108   .     S
C1290  H1295   1.104   .     S
C1290  C1291   1.533   .     S
C1291  H1292   1.110   .     S
C1291  H1294   1.109   .     S
C1291  H1293   1.111   .     S
C1297  C1298   1.527   .     S
C1297  H1302   1.107   .     S
C1297  H1303   1.112   .     S
C1298  H1300   1.105   .     S
C1298  H1301   1.110   .     S
C1298  H1299   1.110   .     S
C1304  H1310   1.112   .     S
C1304  H1309   1.096   .     S
C1304  C1305   1.531   .     S
C1305  H1306   1.111   .     S
C1305  H1307   1.107   .     S
C1305  H1308   1.110   .     S
C1311  H1312   1.110   .     S
C1311  H1314   1.105   .     S
C1311  H1313   1.108   .     S
C1315  H1316   1.107   .     S
C1315  H1317   1.106   .     S
C1315  H1318   1.105   .     S
C1319  H1320   1.107   .     S
C1319  H1322   1.110   .     S
C1319  H1321   1.110   .     S
C1323  H1325   1.110   .     S
C1323  H1324   1.107   .     S
C1323  H1326   1.110   .     S
C1327  O1359   1.290   .     A
C1327  C1352   1.408   .     S
C1327  O1362   1.286   .     A
C1328  O1361   1.288   .     A
C1328  O1360   1.289   .     A
C1328  C1351   1.412   .     S
C1329  C1347   1.491   .     S
C1329  O1366   1.310   .     A
C1329  O1363   1.310   .     A
C1330  C1348   1.470   .     S
C1330  O1365   1.309   .     A
C1330  O1364   1.305   .     A
C1331  N1358   1.379   .     A
C1331  C1369   1.508   .     S
C1332  N1357   1.378   .     A
C1332  C1373   1.512   .     S
C1332  C1639   1.434   .     S
C1333  N1358   1.380   .     A
C1333  C1377   1.509   .     S
C1334  C1381   1.513   .     S
C1334  N1357   1.378   .     A
C1334  C1637   1.434   .     S
C1335  C1352   1.409   .     A
C1335  C1413   1.523   .     S
C1336  C1351   1.409   .     A
C1336  C1417   1.519   .     S
C1336  C1440   1.393   .     S
C1337  C1351   1.409   .     A
C1337  C1421   1.523   .     S
C1337  C1437   1.395   .     S
C1338  C1425   1.524   .     S
C1338  C1352   1.407   .     A
C1339  C1349   1.389   .     A
C1339  C1343   1.396   .     A
C1339  H1353   1.084   .     S
C1340  H1354   1.082   .     S
C1340  C1344   1.387   .     A
C1340  C1350   1.397   .     A
C1341  C1345   1.394   .     A
C1341  H1355   1.083   .     S
C1341  C1350   1.402   .     A
C1342  H1356   1.079   .     S
C1342  C1346   1.386   .     A
C1342  C1349   1.391   .     A
C1343  C1347   1.442   .     A
C1343  C1385   1.523   .     S
C1344  C1348   1.416   .     A
C1344  C1392   1.523   .     S
C1345  C1399   1.518   .     S
C1345  C1348   1.421   .     A
C1346  C1406   1.522   .     S
C1346  C1347   1.437   .     A
C1350  C431    1.472   1_556 S
N1357  Zn1367  2.037   .     S
N1358  Zn1368  2.037   .     S
O1359  Zn1367  1.979   .     S
O1360  Zn1368  1.979   .     S
O1361  Zn1367  1.987   .     S
O1362  Zn1368  1.987   .     S
O1363  Zn1367  1.999   .     S
O1364  Zn1368  1.999   .     S
O1365  Zn1367  1.992   .     S
O1366  Zn1368  1.992   .     S
C1369  H1370   1.086   .     S
C1369  H1371   1.108   .     S
C1369  H1372   1.110   .     S
C1373  H1374   1.098   .     S
C1373  H1376   1.102   .     S
C1373  H1375   1.109   .     S
C1377  H1378   1.085   .     S
C1377  H1379   1.108   .     S
C1377  H1380   1.110   .     S
C1381  H1382   1.102   .     S
C1381  H1383   1.109   .     S
C1381  H1384   1.103   .     S
C1385  H1390   1.103   .     S
C1385  C1386   1.527   .     S
C1385  H1391   1.113   .     S
C1386  H1389   1.111   .     S
C1386  H1388   1.109   .     S
C1386  H1387   1.109   .     S
C1392  H1398   1.108   .     S
C1392  H1397   1.104   .     S
C1392  C1393   1.533   .     S
C1393  H1394   1.110   .     S
C1393  H1396   1.109   .     S
C1393  H1395   1.111   .     S
C1399  C1400   1.527   .     S
C1399  H1404   1.107   .     S
C1399  H1405   1.112   .     S
C1400  H1402   1.105   .     S
C1400  H1403   1.110   .     S
C1400  H1401   1.110   .     S
C1406  H1412   1.112   .     S
C1406  H1411   1.096   .     S
C1406  C1407   1.531   .     S
C1407  H1408   1.111   .     S
C1407  H1409   1.107   .     S
C1407  H1410   1.110   .     S
C1413  H1414   1.110   .     S
C1413  H1416   1.105   .     S
C1413  H1415   1.108   .     S
C1417  H1418   1.107   .     S
C1417  H1419   1.106   .     S
C1417  H1420   1.105   .     S
C1421  H1422   1.107   .     S
C1421  H1424   1.110   .     S
C1421  H1423   1.110   .     S
C1425  H1427   1.110   .     S
C1425  H1426   1.107   .     S
C1425  H1428   1.110   .     S
C1429  O1461   1.290   .     A
C1429  C1454   1.408   .     S
C1429  O1464   1.286   .     A
C1430  O1463   1.288   .     A
C1430  O1462   1.289   .     A
C1430  C1453   1.412   .     S
C1431  C1449   1.491   .     S
C1431  O1468   1.310   .     A
C1431  O1465   1.310   .     A
C1432  C1450   1.470   .     S
C1432  O1467   1.309   .     A
C1432  O1466   1.305   .     A
C1433  N1460   1.379   .     A
C1433  C1471   1.508   .     S
C1434  N1459   1.378   .     A
C1434  C1475   1.512   .     S
C1434  C1741   1.434   .     S
C1435  N1460   1.380   .     A
C1435  C1479   1.509   .     S
C1436  C1483   1.513   .     S
C1436  N1459   1.378   .     A
C1436  C1739   1.434   .     S
C1437  C1454   1.409   .     A
C1437  C1515   1.523   .     S
C1438  C1453   1.409   .     A
C1438  C1519   1.519   .     S
C1438  C1236   1.393   1_655 S
C1439  C1453   1.409   .     A
C1439  C1523   1.523   .     S
C1439  C1233   1.395   1_655 S
C1440  C1527   1.524   .     S
C1440  C1454   1.407   .     A
C1441  C1451   1.389   .     A
C1441  C1445   1.396   .     A
C1441  H1455   1.084   .     S
C1442  H1456   1.082   .     S
C1442  C1446   1.387   .     A
C1442  C1452   1.397   .     A
C1443  C1447   1.394   .     A
C1443  H1457   1.083   .     S
C1443  C1452   1.402   .     A
C1444  H1458   1.079   .     S
C1444  C1448   1.386   .     A
C1444  C1451   1.391   .     A
C1445  C1449   1.442   .     A
C1445  C1487   1.523   .     S
C1446  C1450   1.416   .     A
C1446  C1494   1.523   .     S
C1447  C1501   1.518   .     S
C1447  C1450   1.421   .     A
C1448  C1508   1.522   .     S
C1448  C1449   1.437   .     A
C1452  C533    1.472   1_556 S
N1459  Zn1469  2.037   .     S
N1460  Zn1470  2.037   .     S
O1461  Zn1469  1.979   .     S
O1462  Zn1470  1.979   .     S
O1463  Zn1469  1.987   .     S
O1464  Zn1470  1.987   .     S
O1465  Zn1469  1.999   .     S
O1466  Zn1470  1.999   .     S
O1467  Zn1469  1.992   .     S
O1468  Zn1470  1.992   .     S
C1471  H1472   1.086   .     S
C1471  H1473   1.108   .     S
C1471  H1474   1.110   .     S
C1475  H1476   1.098   .     S
C1475  H1478   1.102   .     S
C1475  H1477   1.109   .     S
C1479  H1480   1.085   .     S
C1479  H1481   1.108   .     S
C1479  H1482   1.110   .     S
C1483  H1484   1.102   .     S
C1483  H1485   1.109   .     S
C1483  H1486   1.103   .     S
C1487  H1492   1.103   .     S
C1487  C1488   1.527   .     S
C1487  H1493   1.113   .     S
C1488  H1491   1.111   .     S
C1488  H1490   1.109   .     S
C1488  H1489   1.109   .     S
C1494  H1500   1.108   .     S
C1494  H1499   1.104   .     S
C1494  C1495   1.533   .     S
C1495  H1496   1.110   .     S
C1495  H1498   1.109   .     S
C1495  H1497   1.111   .     S
C1501  C1502   1.527   .     S
C1501  H1506   1.107   .     S
C1501  H1507   1.112   .     S
C1502  H1504   1.105   .     S
C1502  H1505   1.110   .     S
C1502  H1503   1.110   .     S
C1508  H1514   1.112   .     S
C1508  H1513   1.096   .     S
C1508  C1509   1.531   .     S
C1509  H1510   1.111   .     S
C1509  H1511   1.107   .     S
C1509  H1512   1.110   .     S
C1515  H1516   1.110   .     S
C1515  H1518   1.105   .     S
C1515  H1517   1.108   .     S
C1519  H1520   1.107   .     S
C1519  H1521   1.106   .     S
C1519  H1522   1.105   .     S
C1523  H1524   1.107   .     S
C1523  H1526   1.110   .     S
C1523  H1525   1.110   .     S
C1527  H1529   1.110   .     S
C1527  H1528   1.107   .     S
C1527  H1530   1.110   .     S
C1531  O1563   1.290   .     A
C1531  C1556   1.408   .     S
C1531  O1566   1.286   .     A
C1532  O1565   1.288   .     A
C1532  O1564   1.289   .     A
C1532  C1555   1.412   .     S
C1533  C1551   1.491   .     S
C1533  O1570   1.310   .     A
C1533  O1567   1.310   .     A
C1534  C1552   1.470   .     S
C1534  O1569   1.309   .     A
C1534  O1568   1.305   .     A
C1535  N1562   1.379   .     A
C1535  C1573   1.508   .     S
C1536  N1561   1.378   .     A
C1536  C1577   1.512   .     S
C1536  C925    1.434   1_565 S
C1537  N1562   1.380   .     A
C1537  C1581   1.509   .     S
C1538  C1585   1.513   .     S
C1538  N1561   1.378   .     A
C1538  C923    1.434   1_565 S
C1539  C1556   1.409   .     A
C1539  C1617   1.523   .     S
C1539  C1745   1.395   1_455 S
C1540  C1555   1.409   .     A
C1540  C1621   1.519   .     S
C1540  C1644   1.393   .     S
C1541  C1555   1.409   .     A
C1541  C1625   1.523   .     S
C1541  C1641   1.395   .     S
C1542  C1629   1.524   .     S
C1542  C1556   1.407   .     A
C1542  C1744   1.393   1_455 S
C1543  C1553   1.389   .     A
C1543  C1547   1.396   .     A
C1543  H1557   1.084   .     S
C1544  H1558   1.082   .     S
C1544  C1548   1.387   .     A
C1544  C1554   1.397   .     A
C1545  C1549   1.394   .     A
C1545  H1559   1.083   .     S
C1545  C1554   1.402   .     A
C1546  H1560   1.079   .     S
C1546  C1550   1.386   .     A
C1546  C1553   1.391   .     A
C1547  C1551   1.442   .     A
C1547  C1589   1.523   .     S
C1548  C1552   1.416   .     A
C1548  C1596   1.523   .     S
C1549  C1603   1.518   .     S
C1549  C1552   1.421   .     A
C1550  C1610   1.522   .     S
C1550  C1551   1.437   .     A
C1554  C635    1.472   1_556 S
N1561  Zn1571  2.037   .     S
N1562  Zn1572  2.037   .     S
O1563  Zn1571  1.979   .     S
O1564  Zn1572  1.979   .     S
O1565  Zn1571  1.987   .     S
O1566  Zn1572  1.987   .     S
O1567  Zn1571  1.999   .     S
O1568  Zn1572  1.999   .     S
O1569  Zn1571  1.992   .     S
O1570  Zn1572  1.992   .     S
C1573  H1574   1.086   .     S
C1573  H1575   1.108   .     S
C1573  H1576   1.110   .     S
C1577  H1578   1.098   .     S
C1577  H1580   1.102   .     S
C1577  H1579   1.109   .     S
C1581  H1582   1.085   .     S
C1581  H1583   1.108   .     S
C1581  H1584   1.110   .     S
C1585  H1586   1.102   .     S
C1585  H1587   1.109   .     S
C1585  H1588   1.103   .     S
C1589  H1594   1.103   .     S
C1589  C1590   1.527   .     S
C1589  H1595   1.113   .     S
C1590  H1593   1.111   .     S
C1590  H1592   1.109   .     S
C1590  H1591   1.109   .     S
C1596  H1602   1.108   .     S
C1596  H1601   1.104   .     S
C1596  C1597   1.533   .     S
C1597  H1598   1.110   .     S
C1597  H1600   1.109   .     S
C1597  H1599   1.111   .     S
C1603  C1604   1.527   .     S
C1603  H1608   1.107   .     S
C1603  H1609   1.112   .     S
C1604  H1606   1.105   .     S
C1604  H1607   1.110   .     S
C1604  H1605   1.110   .     S
C1610  H1616   1.112   .     S
C1610  H1615   1.096   .     S
C1610  C1611   1.531   .     S
C1611  H1612   1.111   .     S
C1611  H1613   1.107   .     S
C1611  H1614   1.110   .     S
C1617  H1618   1.110   .     S
C1617  H1620   1.105   .     S
C1617  H1619   1.108   .     S
C1621  H1622   1.107   .     S
C1621  H1623   1.106   .     S
C1621  H1624   1.105   .     S
C1625  H1626   1.107   .     S
C1625  H1628   1.110   .     S
C1625  H1627   1.110   .     S
C1629  H1631   1.110   .     S
C1629  H1630   1.107   .     S
C1629  H1632   1.110   .     S
C1633  O1665   1.290   .     A
C1633  C1658   1.408   .     S
C1633  O1668   1.286   .     A
C1634  O1667   1.288   .     A
C1634  O1666   1.289   .     A
C1634  C1657   1.412   .     S
C1635  C1653   1.491   .     S
C1635  O1672   1.310   .     A
C1635  O1669   1.310   .     A
C1636  C1654   1.470   .     S
C1636  O1671   1.309   .     A
C1636  O1670   1.305   .     A
C1637  N1664   1.379   .     A
C1637  C1675   1.508   .     S
C1638  N1663   1.378   .     A
C1638  C1679   1.512   .     S
C1638  C1027   1.434   1_565 S
C1639  N1664   1.380   .     A
C1639  C1683   1.509   .     S
C1640  C1687   1.513   .     S
C1640  N1663   1.378   .     A
C1640  C1025   1.434   1_565 S
C1641  C1658   1.409   .     A
C1641  C1719   1.523   .     S
C1642  C1657   1.409   .     A
C1642  C1723   1.519   .     S
C1642  C1746   1.393   .     S
C1643  C1657   1.409   .     A
C1643  C1727   1.523   .     S
C1643  C1743   1.395   .     S
C1644  C1731   1.524   .     S
C1644  C1658   1.407   .     A
C1645  C1655   1.389   .     A
C1645  C1649   1.396   .     A
C1645  H1659   1.084   .     S
C1646  H1660   1.082   .     S
C1646  C1650   1.387   .     A
C1646  C1656   1.397   .     A
C1647  C1651   1.394   .     A
C1647  H1661   1.083   .     S
C1647  C1656   1.402   .     A
C1648  H1662   1.079   .     S
C1648  C1652   1.386   .     A
C1648  C1655   1.391   .     A
C1649  C1653   1.442   .     A
C1649  C1691   1.523   .     S
C1650  C1654   1.416   .     A
C1650  C1698   1.523   .     S
C1651  C1705   1.518   .     S
C1651  C1654   1.421   .     A
C1652  C1712   1.522   .     S
C1652  C1653   1.437   .     A
C1656  C737    1.472   1_556 S
N1663  Zn1673  2.037   .     S
N1664  Zn1674  2.037   .     S
O1665  Zn1673  1.979   .     S
O1666  Zn1674  1.979   .     S
O1667  Zn1673  1.987   .     S
O1668  Zn1674  1.987   .     S
O1669  Zn1673  1.999   .     S
O1670  Zn1674  1.999   .     S
O1671  Zn1673  1.992   .     S
O1672  Zn1674  1.992   .     S
C1675  H1676   1.086   .     S
C1675  H1677   1.108   .     S
C1675  H1678   1.110   .     S
C1679  H1680   1.098   .     S
C1679  H1682   1.102   .     S
C1679  H1681   1.109   .     S
C1683  H1684   1.085   .     S
C1683  H1685   1.108   .     S
C1683  H1686   1.110   .     S
C1687  H1688   1.102   .     S
C1687  H1689   1.109   .     S
C1687  H1690   1.103   .     S
C1691  H1696   1.103   .     S
C1691  C1692   1.527   .     S
C1691  H1697   1.113   .     S
C1692  H1695   1.111   .     S
C1692  H1694   1.109   .     S
C1692  H1693   1.109   .     S
C1698  H1704   1.108   .     S
C1698  H1703   1.104   .     S
C1698  C1699   1.533   .     S
C1699  H1700   1.110   .     S
C1699  H1702   1.109   .     S
C1699  H1701   1.111   .     S
C1705  C1706   1.527   .     S
C1705  H1710   1.107   .     S
C1705  H1711   1.112   .     S
C1706  H1708   1.105   .     S
C1706  H1709   1.110   .     S
C1706  H1707   1.110   .     S
C1712  H1718   1.112   .     S
C1712  H1717   1.096   .     S
C1712  C1713   1.531   .     S
C1713  H1714   1.111   .     S
C1713  H1715   1.107   .     S
C1713  H1716   1.110   .     S
C1719  H1720   1.110   .     S
C1719  H1722   1.105   .     S
C1719  H1721   1.108   .     S
C1723  H1724   1.107   .     S
C1723  H1725   1.106   .     S
C1723  H1726   1.105   .     S
C1727  H1728   1.107   .     S
C1727  H1730   1.110   .     S
C1727  H1729   1.110   .     S
C1731  H1733   1.110   .     S
C1731  H1732   1.107   .     S
C1731  H1734   1.110   .     S
C1735  O1767   1.290   .     A
C1735  C1760   1.408   .     S
C1735  O1770   1.286   .     A
C1736  O1769   1.288   .     A
C1736  O1768   1.289   .     A
C1736  C1759   1.412   .     S
C1737  C1755   1.491   .     S
C1737  O1774   1.310   .     A
C1737  O1771   1.310   .     A
C1738  C1756   1.470   .     S
C1738  O1773   1.309   .     A
C1738  O1772   1.305   .     A
C1739  N1766   1.379   .     A
C1739  C1777   1.508   .     S
C1740  N1765   1.378   .     A
C1740  C1781   1.512   .     S
C1740  C1129   1.434   1_565 S
C1741  N1766   1.380   .     A
C1741  C1785   1.509   .     S
C1742  C1789   1.513   .     S
C1742  N1765   1.378   .     A
C1742  C1127   1.434   1_565 S
C1743  C1760   1.409   .     A
C1743  C1821   1.523   .     S
C1744  C1759   1.409   .     A
C1744  C1825   1.519   .     S
C1744  C1542   1.393   1_655 S
C1745  C1759   1.409   .     A
C1745  C1829   1.523   .     S
C1745  C1539   1.395   1_655 S
C1746  C1833   1.524   .     S
C1746  C1760   1.407   .     A
C1747  C1757   1.389   .     A
C1747  C1751   1.396   .     A
C1747  H1761   1.084   .     S
C1748  H1762   1.082   .     S
C1748  C1752   1.387   .     A
C1748  C1758   1.397   .     A
C1749  C1753   1.394   .     A
C1749  H1763   1.083   .     S
C1749  C1758   1.402   .     A
C1750  H1764   1.079   .     S
C1750  C1754   1.386   .     A
C1750  C1757   1.391   .     A
C1751  C1755   1.442   .     A
C1751  C1793   1.523   .     S
C1752  C1756   1.416   .     A
C1752  C1800   1.523   .     S
C1753  C1807   1.518   .     S
C1753  C1756   1.421   .     A
C1754  C1814   1.522   .     S
C1754  C1755   1.437   .     A
C1758  C839    1.472   1_556 S
N1765  Zn1775  2.037   .     S
N1766  Zn1776  2.037   .     S
O1767  Zn1775  1.979   .     S
O1768  Zn1776  1.979   .     S
O1769  Zn1775  1.987   .     S
O1770  Zn1776  1.987   .     S
O1771  Zn1775  1.999   .     S
O1772  Zn1776  1.999   .     S
O1773  Zn1775  1.992   .     S
O1774  Zn1776  1.992   .     S
C1777  H1778   1.086   .     S
C1777  H1779   1.108   .     S
C1777  H1780   1.110   .     S
C1781  H1782   1.098   .     S
C1781  H1784   1.102   .     S
C1781  H1783   1.109   .     S
C1785  H1786   1.085   .     S
C1785  H1787   1.108   .     S
C1785  H1788   1.110   .     S
C1789  H1790   1.102   .     S
C1789  H1791   1.109   .     S
C1789  H1792   1.103   .     S
C1793  H1798   1.103   .     S
C1793  C1794   1.527   .     S
C1793  H1799   1.113   .     S
C1794  H1797   1.111   .     S
C1794  H1796   1.109   .     S
C1794  H1795   1.109   .     S
C1800  H1806   1.108   .     S
C1800  H1805   1.104   .     S
C1800  C1801   1.533   .     S
C1801  H1802   1.110   .     S
C1801  H1804   1.109   .     S
C1801  H1803   1.111   .     S
C1807  C1808   1.527   .     S
C1807  H1812   1.107   .     S
C1807  H1813   1.112   .     S
C1808  H1810   1.105   .     S
C1808  H1811   1.110   .     S
C1808  H1809   1.110   .     S
C1814  H1820   1.112   .     S
C1814  H1819   1.096   .     S
C1814  C1815   1.531   .     S
C1815  H1816   1.111   .     S
C1815  H1817   1.107   .     S
C1815  H1818   1.110   .     S
C1821  H1822   1.110   .     S
C1821  H1824   1.105   .     S
C1821  H1823   1.108   .     S
C1825  H1826   1.107   .     S
C1825  H1827   1.106   .     S
C1825  H1828   1.105   .     S
C1829  H1830   1.107   .     S
C1829  H1832   1.110   .     S
C1829  H1831   1.110   .     S
C1833  H1835   1.110   .     S
C1833  H1834   1.107   .     S
C1833  H1836   1.110   .     S
