data_str_m3_o1_o18_pcu_sym.26
_audit_creation_date              2020-01-03
_audit_creation_method            'Materials Studio'
_symmetry_space_group_name_H-M    'P1'
_symmetry_Int_Tables_number       1
_symmetry_cell_setting            triclinic
loop_
_symmetry_equiv_pos_as_xyz
  x,y,z
_cell_length_a                    29.6056
_cell_length_b                    31.9014
_cell_length_c                    31.0288
_cell_angle_alpha                 89.9820
_cell_angle_beta                  67.2864
_cell_angle_gamma                 90.0852
loop_
_atom_site_label
_atom_site_type_symbol
_atom_site_fract_x
_atom_site_fract_y
_atom_site_fract_z
_atom_site_U_iso_or_equiv
_atom_site_adp_type
_atom_site_occupancy
Br1    Br    0.03000   0.24721   0.06065   0.00000  Uiso   1.00
Br2    Br    0.31871   0.12461   0.42787   0.00000  Uiso   1.00
Br3    Br    0.19242   0.28546   0.33323   0.00000  Uiso   1.00
Br4    Br    0.14050   0.04779   0.16707   0.00000  Uiso   1.00
C5     C     0.16632   0.24658   0.25099   0.00000  Uiso   1.00
C6     C     0.15384   0.31104   0.21762   0.00000  Uiso   1.00
C7     C     0.16705   0.04263   0.24881   0.00000  Uiso   1.00
C8     C     0.16621   0.29068   0.25130   0.00000  Uiso   1.00
C9     C     0.32265   0.14475   0.21706   0.00000  Uiso   1.00
C10    C     0.01067   0.18855   0.28297   0.00000  Uiso   1.00
C11    C     0.03719   0.14473   0.21709   0.00000  Uiso   1.00
C12    C     0.29613   0.18857   0.28294   0.00000  Uiso   1.00
C13    C     0.13597   0.16712   0.33800   0.00000  Uiso   1.00
C14    C     0.19740   0.16701   0.16193   0.00000  Uiso   1.00
C15    C     0.11701   0.17326   0.38829   0.00000  Uiso   1.00
C16    C     0.16699   0.08675   0.24906   0.00000  Uiso   1.00
C17    C     0.21707   0.16791   0.11100   0.00000  Uiso   1.00
C18    C     0.06371   0.20928   0.45753   0.00000  Uiso   1.00
C19    C     0.27916   0.15047   0.03588   0.00000  Uiso   1.00
C20    C     0.07472   0.19658   0.41163   0.00000  Uiso   1.00
C21    C     0.26461   0.15471   0.08405   0.00000  Uiso   1.00
C22    C     0.14730   0.16198   0.41104   0.00000  Uiso   1.00
C23    C     0.18577   0.18005   0.08948   0.00000  Uiso   1.00
C24    C     0.14076   0.17896   0.45450   0.00000  Uiso   1.00
C25    C     0.19950   0.17676   0.04121   0.00000  Uiso   1.00
C26    C     0.09694   0.20150   0.47914   0.00000  Uiso   1.00
C27    C     0.12223   0.20934   0.04393   0.00000  Uiso   1.00
C28    C     0.24626   0.15960   0.01427   0.00000  Uiso   1.00
C29    C     0.17695   0.17414   0.47359   0.00000  Uiso   1.00
C30    C     0.16609   0.18688   0.02006   0.00000  Uiso   1.00
C31    C     0.22412   0.15800   0.44716   0.00000  Uiso   1.00
C32    C     0.08816   0.21658   0.02405   0.00000  Uiso   1.00
C33    C     0.25825   0.15078   0.46691   0.00000  Uiso   1.00
C34    C     0.17882   0.31256   0.28417   0.00000  Uiso   1.00
C35    C     0.15437   0.02074   0.21600   0.00000  Uiso   1.00
C36    C     0.17940   0.02227   0.28251   0.00000  Uiso   1.00
H37    H     0.14926   0.18938   0.11170   0.00000  Uiso   1.00
H38    H     0.14476   0.29341   0.19216   0.00000  Uiso   1.00
H39    H     0.31519   0.12722   0.19070   0.00000  Uiso   1.00
H40    H     0.01812   0.20604   0.30937   0.00000  Uiso   1.00
H41    H     0.06583   0.12714   0.19073   0.00000  Uiso   1.00
H42    H     0.26748   0.20613   0.30934   0.00000  Uiso   1.00
H43    H     0.17703   0.14091   0.39294   0.00000  Uiso   1.00
H44    H     0.28960   0.14581   0.10035   0.00000  Uiso   1.00
H45    H     0.05107   0.20598   0.39404   0.00000  Uiso   1.00
H46    H     0.03036   0.22683   0.47483   0.00000  Uiso   1.00
H47    H     0.31559   0.13873   0.01620   0.00000  Uiso   1.00
H48    H     0.11408   0.22335   0.07770   0.00000  Uiso   1.00
H49    H     0.23634   0.15143   0.41035   0.00000  Uiso   1.00
H50    H     0.18847   0.03990   0.30798   0.00000  Uiso   1.00
N51    N     0.04759   0.16668   0.25001   0.00000  Uiso   1.00
N52    N     0.28574   0.16666   0.24999   0.00000  Uiso   1.00
O53    O     0.12846   0.22775   0.25001   0.00000  Uiso   1.00
O54    O     0.20488   0.10558   0.24999   0.00000  Uiso   1.00
O55    O     0.20490   0.22774   0.25000   0.00000  Uiso   1.00
O56    O     0.12843   0.10559   0.25000   0.00000  Uiso   1.00
O57    O     0.10661   0.16667   0.31613   0.00000  Uiso   1.00
O58    O     0.22672   0.16666   0.18387   0.00000  Uiso   1.00
O59    O     0.18305   0.16666   0.31612   0.00000  Uiso   1.00
O60    O     0.15028   0.16667   0.18388   0.00000  Uiso   1.00
Zn61   Zn    0.11562   0.16667   0.25000   0.00000  Uiso   1.00
Zn62   Zn    0.21771   0.16666   0.25000   0.00000  Uiso   1.00
Br63   Br    0.36333   0.24721   0.06065   0.00000  Uiso   1.00
Br64   Br    0.65204   0.12461   0.42787   0.00000  Uiso   1.00
Br65   Br    0.52575   0.28546   0.33323   0.00000  Uiso   1.00
Br66   Br    0.47383   0.04779   0.16707   0.00000  Uiso   1.00
C67    C     0.49965   0.24658   0.25099   0.00000  Uiso   1.00
C68    C     0.48717   0.31104   0.21762   0.00000  Uiso   1.00
C69    C     0.50039   0.04263   0.24881   0.00000  Uiso   1.00
C70    C     0.49955   0.29068   0.25130   0.00000  Uiso   1.00
C71    C     0.65598   0.14475   0.21706   0.00000  Uiso   1.00
C72    C     0.34400   0.18855   0.28297   0.00000  Uiso   1.00
C73    C     0.37052   0.14473   0.21709   0.00000  Uiso   1.00
C74    C     0.62946   0.18857   0.28294   0.00000  Uiso   1.00
C75    C     0.46930   0.16712   0.33800   0.00000  Uiso   1.00
C76    C     0.53073   0.16701   0.16193   0.00000  Uiso   1.00
C77    C     0.45034   0.17326   0.38829   0.00000  Uiso   1.00
C78    C     0.50032   0.08675   0.24906   0.00000  Uiso   1.00
C79    C     0.55040   0.16791   0.11100   0.00000  Uiso   1.00
C80    C     0.39704   0.20928   0.45753   0.00000  Uiso   1.00
C81    C     0.61249   0.15047   0.03588   0.00000  Uiso   1.00
C82    C     0.40805   0.19658   0.41163   0.00000  Uiso   1.00
C83    C     0.59794   0.15471   0.08405   0.00000  Uiso   1.00
C84    C     0.48064   0.16198   0.41104   0.00000  Uiso   1.00
C85    C     0.51910   0.18005   0.08948   0.00000  Uiso   1.00
C86    C     0.47409   0.17896   0.45450   0.00000  Uiso   1.00
C87    C     0.53284   0.17676   0.04121   0.00000  Uiso   1.00
C88    C     0.43027   0.20150   0.47914   0.00000  Uiso   1.00
C89    C     0.45556   0.20934   0.04393   0.00000  Uiso   1.00
C90    C     0.57959   0.15960   0.01427   0.00000  Uiso   1.00
C91    C     0.51028   0.17414   0.47359   0.00000  Uiso   1.00
C92    C     0.49942   0.18688   0.02006   0.00000  Uiso   1.00
C93    C     0.55746   0.15800   0.44716   0.00000  Uiso   1.00
C94    C     0.42149   0.21658   0.02405   0.00000  Uiso   1.00
C95    C     0.59158   0.15078   0.46691   0.00000  Uiso   1.00
C96    C     0.51215   0.31256   0.28417   0.00000  Uiso   1.00
C97    C     0.48770   0.02074   0.21600   0.00000  Uiso   1.00
C98    C     0.51273   0.02227   0.28251   0.00000  Uiso   1.00
H99    H     0.48260   0.18938   0.11170   0.00000  Uiso   1.00
H100   H     0.47809   0.29341   0.19216   0.00000  Uiso   1.00
H101   H     0.64852   0.12722   0.19070   0.00000  Uiso   1.00
H102   H     0.35145   0.20604   0.30937   0.00000  Uiso   1.00
H103   H     0.39916   0.12714   0.19073   0.00000  Uiso   1.00
H104   H     0.60081   0.20613   0.30934   0.00000  Uiso   1.00
H105   H     0.51037   0.14091   0.39294   0.00000  Uiso   1.00
H106   H     0.62294   0.14581   0.10035   0.00000  Uiso   1.00
H107   H     0.38440   0.20598   0.39404   0.00000  Uiso   1.00
H108   H     0.36369   0.22683   0.47483   0.00000  Uiso   1.00
H109   H     0.64893   0.13873   0.01620   0.00000  Uiso   1.00
H110   H     0.44741   0.22335   0.07770   0.00000  Uiso   1.00
H111   H     0.56967   0.15143   0.41035   0.00000  Uiso   1.00
H112   H     0.52181   0.03990   0.30798   0.00000  Uiso   1.00
N113   N     0.38093   0.16668   0.25001   0.00000  Uiso   1.00
N114   N     0.61907   0.16666   0.24999   0.00000  Uiso   1.00
O115   O     0.46179   0.22775   0.25001   0.00000  Uiso   1.00
O116   O     0.53821   0.10558   0.24999   0.00000  Uiso   1.00
O117   O     0.53823   0.22774   0.25000   0.00000  Uiso   1.00
O118   O     0.46177   0.10559   0.25000   0.00000  Uiso   1.00
O119   O     0.43994   0.16667   0.31613   0.00000  Uiso   1.00
O120   O     0.56006   0.16666   0.18387   0.00000  Uiso   1.00
O121   O     0.51639   0.16666   0.31612   0.00000  Uiso   1.00
O122   O     0.48361   0.16667   0.18388   0.00000  Uiso   1.00
Zn123  Zn    0.44896   0.16667   0.25000   0.00000  Uiso   1.00
Zn124  Zn    0.55104   0.16666   0.25000   0.00000  Uiso   1.00
Br125  Br    0.69667   0.24721   0.06065   0.00000  Uiso   1.00
Br126  Br    0.98538   0.12461   0.42787   0.00000  Uiso   1.00
Br127  Br    0.85909   0.28546   0.33323   0.00000  Uiso   1.00
Br128  Br    0.80717   0.04779   0.16707   0.00000  Uiso   1.00
C129   C     0.83299   0.24658   0.25099   0.00000  Uiso   1.00
C130   C     0.82051   0.31104   0.21762   0.00000  Uiso   1.00
C131   C     0.83372   0.04263   0.24881   0.00000  Uiso   1.00
C132   C     0.83288   0.29068   0.25130   0.00000  Uiso   1.00
C133   C     0.98932   0.14475   0.21706   0.00000  Uiso   1.00
C134   C     0.67734   0.18855   0.28297   0.00000  Uiso   1.00
C135   C     0.70386   0.14473   0.21709   0.00000  Uiso   1.00
C136   C     0.96280   0.18857   0.28294   0.00000  Uiso   1.00
C137   C     0.80263   0.16712   0.33800   0.00000  Uiso   1.00
C138   C     0.86407   0.16701   0.16193   0.00000  Uiso   1.00
C139   C     0.78368   0.17326   0.38829   0.00000  Uiso   1.00
C140   C     0.83366   0.08675   0.24906   0.00000  Uiso   1.00
C141   C     0.88374   0.16791   0.11100   0.00000  Uiso   1.00
C142   C     0.73037   0.20928   0.45753   0.00000  Uiso   1.00
C143   C     0.94583   0.15047   0.03588   0.00000  Uiso   1.00
C144   C     0.74138   0.19658   0.41163   0.00000  Uiso   1.00
C145   C     0.93128   0.15471   0.08405   0.00000  Uiso   1.00
C146   C     0.81397   0.16198   0.41104   0.00000  Uiso   1.00
C147   C     0.85244   0.18005   0.08948   0.00000  Uiso   1.00
C148   C     0.80743   0.17896   0.45450   0.00000  Uiso   1.00
C149   C     0.86617   0.17676   0.04121   0.00000  Uiso   1.00
C150   C     0.76360   0.20150   0.47914   0.00000  Uiso   1.00
C151   C     0.78890   0.20934   0.04393   0.00000  Uiso   1.00
C152   C     0.91292   0.15960   0.01427   0.00000  Uiso   1.00
C153   C     0.84361   0.17414   0.47359   0.00000  Uiso   1.00
C154   C     0.83276   0.18688   0.02006   0.00000  Uiso   1.00
C155   C     0.89079   0.15800   0.44716   0.00000  Uiso   1.00
C156   C     0.75482   0.21658   0.02405   0.00000  Uiso   1.00
C157   C     0.92492   0.15078   0.46691   0.00000  Uiso   1.00
C158   C     0.84549   0.31256   0.28417   0.00000  Uiso   1.00
C159   C     0.82103   0.02074   0.21600   0.00000  Uiso   1.00
C160   C     0.84607   0.02227   0.28251   0.00000  Uiso   1.00
H161   H     0.81593   0.18938   0.11170   0.00000  Uiso   1.00
H162   H     0.81143   0.29341   0.19216   0.00000  Uiso   1.00
H163   H     0.98186   0.12722   0.19070   0.00000  Uiso   1.00
H164   H     0.68478   0.20604   0.30937   0.00000  Uiso   1.00
H165   H     0.73250   0.12714   0.19073   0.00000  Uiso   1.00
H166   H     0.93414   0.20613   0.30934   0.00000  Uiso   1.00
H167   H     0.84370   0.14091   0.39294   0.00000  Uiso   1.00
H168   H     0.95627   0.14581   0.10035   0.00000  Uiso   1.00
H169   H     0.71773   0.20598   0.39404   0.00000  Uiso   1.00
H170   H     0.69703   0.22683   0.47483   0.00000  Uiso   1.00
H171   H     0.98226   0.13873   0.01620   0.00000  Uiso   1.00
H172   H     0.78075   0.22335   0.07770   0.00000  Uiso   1.00
H173   H     0.90300   0.15143   0.41035   0.00000  Uiso   1.00
H174   H     0.85514   0.03990   0.30798   0.00000  Uiso   1.00
N175   N     0.71426   0.16668   0.25001   0.00000  Uiso   1.00
N176   N     0.95241   0.16666   0.24999   0.00000  Uiso   1.00
O177   O     0.79512   0.22775   0.25001   0.00000  Uiso   1.00
O178   O     0.87154   0.10558   0.24999   0.00000  Uiso   1.00
O179   O     0.87157   0.22774   0.25000   0.00000  Uiso   1.00
O180   O     0.79510   0.10559   0.25000   0.00000  Uiso   1.00
O181   O     0.77328   0.16667   0.31613   0.00000  Uiso   1.00
O182   O     0.89339   0.16666   0.18387   0.00000  Uiso   1.00
O183   O     0.84972   0.16666   0.31612   0.00000  Uiso   1.00
O184   O     0.81695   0.16667   0.18388   0.00000  Uiso   1.00
Zn185  Zn    0.78229   0.16667   0.25000   0.00000  Uiso   1.00
Zn186  Zn    0.88438   0.16666   0.25000   0.00000  Uiso   1.00
Br187  Br    0.03000   0.58054   0.06065   0.00000  Uiso   1.00
Br188  Br    0.31871   0.45795   0.42787   0.00000  Uiso   1.00
Br189  Br    0.19242   0.61880   0.33323   0.00000  Uiso   1.00
Br190  Br    0.14050   0.38112   0.16707   0.00000  Uiso   1.00
C191   C     0.16632   0.57991   0.25099   0.00000  Uiso   1.00
C192   C     0.15384   0.64437   0.21762   0.00000  Uiso   1.00
C193   C     0.16705   0.37597   0.24881   0.00000  Uiso   1.00
C194   C     0.16621   0.62402   0.25130   0.00000  Uiso   1.00
C195   C     0.32265   0.47808   0.21706   0.00000  Uiso   1.00
C196   C     0.01067   0.52188   0.28297   0.00000  Uiso   1.00
C197   C     0.03719   0.47807   0.21709   0.00000  Uiso   1.00
C198   C     0.29613   0.52190   0.28294   0.00000  Uiso   1.00
C199   C     0.13597   0.50046   0.33800   0.00000  Uiso   1.00
C200   C     0.19740   0.50034   0.16193   0.00000  Uiso   1.00
C201   C     0.11701   0.50659   0.38829   0.00000  Uiso   1.00
C202   C     0.16699   0.42008   0.24906   0.00000  Uiso   1.00
C203   C     0.21707   0.50124   0.11100   0.00000  Uiso   1.00
C204   C     0.06371   0.54261   0.45753   0.00000  Uiso   1.00
C205   C     0.27916   0.48381   0.03588   0.00000  Uiso   1.00
C206   C     0.07472   0.52992   0.41163   0.00000  Uiso   1.00
C207   C     0.26461   0.48804   0.08405   0.00000  Uiso   1.00
C208   C     0.14730   0.49531   0.41104   0.00000  Uiso   1.00
C209   C     0.18577   0.51338   0.08948   0.00000  Uiso   1.00
C210   C     0.14076   0.51229   0.45450   0.00000  Uiso   1.00
C211   C     0.19950   0.51009   0.04121   0.00000  Uiso   1.00
C212   C     0.09694   0.53483   0.47914   0.00000  Uiso   1.00
C213   C     0.12223   0.54267   0.04393   0.00000  Uiso   1.00
C214   C     0.24626   0.49293   0.01427   0.00000  Uiso   1.00
C215   C     0.17695   0.50748   0.47359   0.00000  Uiso   1.00
C216   C     0.16609   0.52021   0.02006   0.00000  Uiso   1.00
C217   C     0.22412   0.49134   0.44716   0.00000  Uiso   1.00
C218   C     0.08816   0.54991   0.02405   0.00000  Uiso   1.00
C219   C     0.25825   0.48412   0.46691   0.00000  Uiso   1.00
C220   C     0.17882   0.64589   0.28417   0.00000  Uiso   1.00
C221   C     0.15437   0.35408   0.21600   0.00000  Uiso   1.00
C222   C     0.17940   0.35561   0.28251   0.00000  Uiso   1.00
H223   H     0.14926   0.52272   0.11170   0.00000  Uiso   1.00
H224   H     0.14476   0.62674   0.19216   0.00000  Uiso   1.00
H225   H     0.31519   0.46055   0.19070   0.00000  Uiso   1.00
H226   H     0.01812   0.53938   0.30937   0.00000  Uiso   1.00
H227   H     0.06583   0.46047   0.19073   0.00000  Uiso   1.00
H228   H     0.26748   0.53946   0.30934   0.00000  Uiso   1.00
H229   H     0.17703   0.47424   0.39294   0.00000  Uiso   1.00
H230   H     0.28960   0.47914   0.10035   0.00000  Uiso   1.00
H231   H     0.05107   0.53931   0.39404   0.00000  Uiso   1.00
H232   H     0.03036   0.56016   0.47483   0.00000  Uiso   1.00
H233   H     0.31559   0.47206   0.01620   0.00000  Uiso   1.00
H234   H     0.11408   0.55668   0.07770   0.00000  Uiso   1.00
H235   H     0.23634   0.48477   0.41035   0.00000  Uiso   1.00
H236   H     0.18847   0.37324   0.30798   0.00000  Uiso   1.00
N237   N     0.04759   0.50001   0.25001   0.00000  Uiso   1.00
N238   N     0.28574   0.49999   0.24999   0.00000  Uiso   1.00
O239   O     0.12846   0.56108   0.25001   0.00000  Uiso   1.00
O240   O     0.20488   0.43892   0.24999   0.00000  Uiso   1.00
O241   O     0.20490   0.56107   0.25000   0.00000  Uiso   1.00
O242   O     0.12843   0.43893   0.25000   0.00000  Uiso   1.00
O243   O     0.10661   0.50001   0.31613   0.00000  Uiso   1.00
O244   O     0.22672   0.49999   0.18387   0.00000  Uiso   1.00
O245   O     0.18305   0.50000   0.31612   0.00000  Uiso   1.00
O246   O     0.15028   0.50000   0.18388   0.00000  Uiso   1.00
Zn247  Zn    0.11562   0.50001   0.25000   0.00000  Uiso   1.00
Zn248  Zn    0.21771   0.49999   0.25000   0.00000  Uiso   1.00
Br249  Br    0.36333   0.58054   0.06065   0.00000  Uiso   1.00
Br250  Br    0.65204   0.45795   0.42787   0.00000  Uiso   1.00
Br251  Br    0.52575   0.61880   0.33323   0.00000  Uiso   1.00
Br252  Br    0.47383   0.38112   0.16707   0.00000  Uiso   1.00
C253   C     0.49965   0.57991   0.25099   0.00000  Uiso   1.00
C254   C     0.48717   0.64437   0.21762   0.00000  Uiso   1.00
C255   C     0.50039   0.37597   0.24881   0.00000  Uiso   1.00
C256   C     0.49955   0.62402   0.25130   0.00000  Uiso   1.00
C257   C     0.65598   0.47808   0.21706   0.00000  Uiso   1.00
C258   C     0.34400   0.52188   0.28297   0.00000  Uiso   1.00
C259   C     0.37052   0.47807   0.21709   0.00000  Uiso   1.00
C260   C     0.62946   0.52190   0.28294   0.00000  Uiso   1.00
C261   C     0.46930   0.50046   0.33800   0.00000  Uiso   1.00
C262   C     0.53073   0.50034   0.16193   0.00000  Uiso   1.00
C263   C     0.45034   0.50659   0.38829   0.00000  Uiso   1.00
C264   C     0.50032   0.42008   0.24906   0.00000  Uiso   1.00
C265   C     0.55040   0.50124   0.11100   0.00000  Uiso   1.00
C266   C     0.39704   0.54261   0.45753   0.00000  Uiso   1.00
C267   C     0.61249   0.48381   0.03588   0.00000  Uiso   1.00
C268   C     0.40805   0.52992   0.41163   0.00000  Uiso   1.00
C269   C     0.59794   0.48804   0.08405   0.00000  Uiso   1.00
C270   C     0.48064   0.49531   0.41104   0.00000  Uiso   1.00
C271   C     0.51910   0.51338   0.08948   0.00000  Uiso   1.00
C272   C     0.47409   0.51229   0.45450   0.00000  Uiso   1.00
C273   C     0.53284   0.51009   0.04121   0.00000  Uiso   1.00
C274   C     0.43027   0.53483   0.47914   0.00000  Uiso   1.00
C275   C     0.45556   0.54267   0.04393   0.00000  Uiso   1.00
C276   C     0.57959   0.49293   0.01427   0.00000  Uiso   1.00
C277   C     0.51028   0.50748   0.47359   0.00000  Uiso   1.00
C278   C     0.49942   0.52021   0.02006   0.00000  Uiso   1.00
C279   C     0.55746   0.49134   0.44716   0.00000  Uiso   1.00
C280   C     0.42149   0.54991   0.02405   0.00000  Uiso   1.00
C281   C     0.59158   0.48412   0.46691   0.00000  Uiso   1.00
C282   C     0.51215   0.64589   0.28417   0.00000  Uiso   1.00
C283   C     0.48770   0.35408   0.21600   0.00000  Uiso   1.00
C284   C     0.51273   0.35561   0.28251   0.00000  Uiso   1.00
H285   H     0.48260   0.52272   0.11170   0.00000  Uiso   1.00
H286   H     0.47809   0.62674   0.19216   0.00000  Uiso   1.00
H287   H     0.64852   0.46055   0.19070   0.00000  Uiso   1.00
H288   H     0.35145   0.53938   0.30937   0.00000  Uiso   1.00
H289   H     0.39916   0.46047   0.19073   0.00000  Uiso   1.00
H290   H     0.60081   0.53946   0.30934   0.00000  Uiso   1.00
H291   H     0.51037   0.47424   0.39294   0.00000  Uiso   1.00
H292   H     0.62294   0.47914   0.10035   0.00000  Uiso   1.00
H293   H     0.38440   0.53931   0.39404   0.00000  Uiso   1.00
H294   H     0.36369   0.56016   0.47483   0.00000  Uiso   1.00
H295   H     0.64893   0.47206   0.01620   0.00000  Uiso   1.00
H296   H     0.44741   0.55668   0.07770   0.00000  Uiso   1.00
H297   H     0.56967   0.48477   0.41035   0.00000  Uiso   1.00
H298   H     0.52181   0.37324   0.30798   0.00000  Uiso   1.00
N299   N     0.38093   0.50001   0.25001   0.00000  Uiso   1.00
N300   N     0.61907   0.49999   0.24999   0.00000  Uiso   1.00
O301   O     0.46179   0.56108   0.25001   0.00000  Uiso   1.00
O302   O     0.53821   0.43892   0.24999   0.00000  Uiso   1.00
O303   O     0.53823   0.56107   0.25000   0.00000  Uiso   1.00
O304   O     0.46177   0.43893   0.25000   0.00000  Uiso   1.00
O305   O     0.43994   0.50001   0.31613   0.00000  Uiso   1.00
O306   O     0.56006   0.49999   0.18387   0.00000  Uiso   1.00
O307   O     0.51639   0.50000   0.31612   0.00000  Uiso   1.00
O308   O     0.48361   0.50000   0.18388   0.00000  Uiso   1.00
Zn309  Zn    0.44896   0.50001   0.25000   0.00000  Uiso   1.00
Zn310  Zn    0.55104   0.49999   0.25000   0.00000  Uiso   1.00
Br311  Br    0.69667   0.58054   0.06065   0.00000  Uiso   1.00
Br312  Br    0.98538   0.45795   0.42787   0.00000  Uiso   1.00
Br313  Br    0.85909   0.61880   0.33323   0.00000  Uiso   1.00
Br314  Br    0.80717   0.38112   0.16707   0.00000  Uiso   1.00
C315   C     0.83299   0.57991   0.25099   0.00000  Uiso   1.00
C316   C     0.82051   0.64437   0.21762   0.00000  Uiso   1.00
C317   C     0.83372   0.37597   0.24881   0.00000  Uiso   1.00
C318   C     0.83288   0.62402   0.25130   0.00000  Uiso   1.00
C319   C     0.98932   0.47808   0.21706   0.00000  Uiso   1.00
C320   C     0.67734   0.52188   0.28297   0.00000  Uiso   1.00
C321   C     0.70386   0.47807   0.21709   0.00000  Uiso   1.00
C322   C     0.96280   0.52190   0.28294   0.00000  Uiso   1.00
C323   C     0.80263   0.50046   0.33800   0.00000  Uiso   1.00
C324   C     0.86407   0.50034   0.16193   0.00000  Uiso   1.00
C325   C     0.78368   0.50659   0.38829   0.00000  Uiso   1.00
C326   C     0.83366   0.42008   0.24906   0.00000  Uiso   1.00
C327   C     0.88374   0.50124   0.11100   0.00000  Uiso   1.00
C328   C     0.73037   0.54261   0.45753   0.00000  Uiso   1.00
C329   C     0.94583   0.48381   0.03588   0.00000  Uiso   1.00
C330   C     0.74138   0.52992   0.41163   0.00000  Uiso   1.00
C331   C     0.93128   0.48804   0.08405   0.00000  Uiso   1.00
C332   C     0.81397   0.49531   0.41104   0.00000  Uiso   1.00
C333   C     0.85244   0.51338   0.08948   0.00000  Uiso   1.00
C334   C     0.80743   0.51229   0.45450   0.00000  Uiso   1.00
C335   C     0.86617   0.51009   0.04121   0.00000  Uiso   1.00
C336   C     0.76360   0.53483   0.47914   0.00000  Uiso   1.00
C337   C     0.78890   0.54267   0.04393   0.00000  Uiso   1.00
C338   C     0.91292   0.49293   0.01427   0.00000  Uiso   1.00
C339   C     0.84361   0.50748   0.47359   0.00000  Uiso   1.00
C340   C     0.83276   0.52021   0.02006   0.00000  Uiso   1.00
C341   C     0.89079   0.49134   0.44716   0.00000  Uiso   1.00
C342   C     0.75482   0.54991   0.02405   0.00000  Uiso   1.00
C343   C     0.92492   0.48412   0.46691   0.00000  Uiso   1.00
C344   C     0.84549   0.64589   0.28417   0.00000  Uiso   1.00
C345   C     0.82103   0.35408   0.21600   0.00000  Uiso   1.00
C346   C     0.84607   0.35561   0.28251   0.00000  Uiso   1.00
H347   H     0.81593   0.52272   0.11170   0.00000  Uiso   1.00
H348   H     0.81143   0.62674   0.19216   0.00000  Uiso   1.00
H349   H     0.98186   0.46055   0.19070   0.00000  Uiso   1.00
H350   H     0.68478   0.53938   0.30937   0.00000  Uiso   1.00
H351   H     0.73250   0.46047   0.19073   0.00000  Uiso   1.00
H352   H     0.93414   0.53946   0.30934   0.00000  Uiso   1.00
H353   H     0.84370   0.47424   0.39294   0.00000  Uiso   1.00
H354   H     0.95627   0.47914   0.10035   0.00000  Uiso   1.00
H355   H     0.71773   0.53931   0.39404   0.00000  Uiso   1.00
H356   H     0.69703   0.56016   0.47483   0.00000  Uiso   1.00
H357   H     0.98226   0.47206   0.01620   0.00000  Uiso   1.00
H358   H     0.78075   0.55668   0.07770   0.00000  Uiso   1.00
H359   H     0.90300   0.48477   0.41035   0.00000  Uiso   1.00
H360   H     0.85514   0.37324   0.30798   0.00000  Uiso   1.00
N361   N     0.71426   0.50001   0.25001   0.00000  Uiso   1.00
N362   N     0.95241   0.49999   0.24999   0.00000  Uiso   1.00
O363   O     0.79512   0.56108   0.25001   0.00000  Uiso   1.00
O364   O     0.87154   0.43892   0.24999   0.00000  Uiso   1.00
O365   O     0.87157   0.56107   0.25000   0.00000  Uiso   1.00
O366   O     0.79510   0.43893   0.25000   0.00000  Uiso   1.00
O367   O     0.77328   0.50001   0.31613   0.00000  Uiso   1.00
O368   O     0.89339   0.49999   0.18387   0.00000  Uiso   1.00
O369   O     0.84972   0.50000   0.31612   0.00000  Uiso   1.00
O370   O     0.81695   0.50000   0.18388   0.00000  Uiso   1.00
Zn371  Zn    0.78229   0.50001   0.25000   0.00000  Uiso   1.00
Zn372  Zn    0.88438   0.49999   0.25000   0.00000  Uiso   1.00
Br373  Br    0.03000   0.91387   0.06065   0.00000  Uiso   1.00
Br374  Br    0.31871   0.79128   0.42787   0.00000  Uiso   1.00
Br375  Br    0.19242   0.95213   0.33323   0.00000  Uiso   1.00
Br376  Br    0.14050   0.71446   0.16707   0.00000  Uiso   1.00
C377   C     0.16632   0.91324   0.25099   0.00000  Uiso   1.00
C378   C     0.15384   0.97770   0.21762   0.00000  Uiso   1.00
C379   C     0.16705   0.70930   0.24881   0.00000  Uiso   1.00
C380   C     0.16621   0.95735   0.25130   0.00000  Uiso   1.00
C381   C     0.32265   0.81142   0.21706   0.00000  Uiso   1.00
C382   C     0.01067   0.85521   0.28297   0.00000  Uiso   1.00
C383   C     0.03719   0.81140   0.21709   0.00000  Uiso   1.00
C384   C     0.29613   0.85523   0.28294   0.00000  Uiso   1.00
C385   C     0.13597   0.83379   0.33800   0.00000  Uiso   1.00
C386   C     0.19740   0.83367   0.16193   0.00000  Uiso   1.00
C387   C     0.11701   0.83993   0.38829   0.00000  Uiso   1.00
C388   C     0.16699   0.75342   0.24906   0.00000  Uiso   1.00
C389   C     0.21707   0.83457   0.11100   0.00000  Uiso   1.00
C390   C     0.06371   0.87594   0.45753   0.00000  Uiso   1.00
C391   C     0.27916   0.81714   0.03588   0.00000  Uiso   1.00
C392   C     0.07472   0.86325   0.41163   0.00000  Uiso   1.00
C393   C     0.26461   0.82138   0.08405   0.00000  Uiso   1.00
C394   C     0.14730   0.82864   0.41104   0.00000  Uiso   1.00
C395   C     0.18577   0.84672   0.08948   0.00000  Uiso   1.00
C396   C     0.14076   0.84563   0.45450   0.00000  Uiso   1.00
C397   C     0.19950   0.84343   0.04121   0.00000  Uiso   1.00
C398   C     0.09694   0.86816   0.47914   0.00000  Uiso   1.00
C399   C     0.12223   0.87601   0.04393   0.00000  Uiso   1.00
C400   C     0.24626   0.82626   0.01427   0.00000  Uiso   1.00
C401   C     0.17695   0.84081   0.47359   0.00000  Uiso   1.00
C402   C     0.16609   0.85355   0.02006   0.00000  Uiso   1.00
C403   C     0.22412   0.82467   0.44716   0.00000  Uiso   1.00
C404   C     0.08816   0.88325   0.02405   0.00000  Uiso   1.00
C405   C     0.25825   0.81745   0.46691   0.00000  Uiso   1.00
C406   C     0.17882   0.97923   0.28417   0.00000  Uiso   1.00
C407   C     0.15437   0.68741   0.21600   0.00000  Uiso   1.00
C408   C     0.17940   0.68894   0.28251   0.00000  Uiso   1.00
H409   H     0.14926   0.85605   0.11170   0.00000  Uiso   1.00
H410   H     0.14476   0.96008   0.19216   0.00000  Uiso   1.00
H411   H     0.31519   0.79388   0.19070   0.00000  Uiso   1.00
H412   H     0.01812   0.87271   0.30937   0.00000  Uiso   1.00
H413   H     0.06583   0.79381   0.19073   0.00000  Uiso   1.00
H414   H     0.26748   0.87279   0.30934   0.00000  Uiso   1.00
H415   H     0.17703   0.80758   0.39294   0.00000  Uiso   1.00
H416   H     0.28960   0.81248   0.10035   0.00000  Uiso   1.00
H417   H     0.05107   0.87265   0.39404   0.00000  Uiso   1.00
H418   H     0.03036   0.89349   0.47483   0.00000  Uiso   1.00
H419   H     0.31559   0.80539   0.01620   0.00000  Uiso   1.00
H420   H     0.11408   0.89001   0.07770   0.00000  Uiso   1.00
H421   H     0.23634   0.81810   0.41035   0.00000  Uiso   1.00
H422   H     0.18847   0.70657   0.30798   0.00000  Uiso   1.00
N423   N     0.04759   0.83334   0.25001   0.00000  Uiso   1.00
N424   N     0.28574   0.83332   0.24999   0.00000  Uiso   1.00
O425   O     0.12846   0.89442   0.25001   0.00000  Uiso   1.00
O426   O     0.20488   0.77225   0.24999   0.00000  Uiso   1.00
O427   O     0.20490   0.89441   0.25000   0.00000  Uiso   1.00
O428   O     0.12843   0.77226   0.25000   0.00000  Uiso   1.00
O429   O     0.10661   0.83334   0.31613   0.00000  Uiso   1.00
O430   O     0.22672   0.83333   0.18387   0.00000  Uiso   1.00
O431   O     0.18305   0.83333   0.31612   0.00000  Uiso   1.00
O432   O     0.15028   0.83334   0.18388   0.00000  Uiso   1.00
Zn433  Zn    0.11562   0.83334   0.25000   0.00000  Uiso   1.00
Zn434  Zn    0.21771   0.83333   0.25000   0.00000  Uiso   1.00
Br435  Br    0.36333   0.91387   0.06065   0.00000  Uiso   1.00
Br436  Br    0.65204   0.79128   0.42787   0.00000  Uiso   1.00
Br437  Br    0.52575   0.95213   0.33323   0.00000  Uiso   1.00
Br438  Br    0.47383   0.71446   0.16707   0.00000  Uiso   1.00
C439   C     0.49965   0.91324   0.25099   0.00000  Uiso   1.00
C440   C     0.48717   0.97770   0.21762   0.00000  Uiso   1.00
C441   C     0.50039   0.70930   0.24881   0.00000  Uiso   1.00
C442   C     0.49955   0.95735   0.25130   0.00000  Uiso   1.00
C443   C     0.65598   0.81142   0.21706   0.00000  Uiso   1.00
C444   C     0.34400   0.85521   0.28297   0.00000  Uiso   1.00
C445   C     0.37052   0.81140   0.21709   0.00000  Uiso   1.00
C446   C     0.62946   0.85523   0.28294   0.00000  Uiso   1.00
C447   C     0.46930   0.83379   0.33800   0.00000  Uiso   1.00
C448   C     0.53073   0.83367   0.16193   0.00000  Uiso   1.00
C449   C     0.45034   0.83993   0.38829   0.00000  Uiso   1.00
C450   C     0.50032   0.75342   0.24906   0.00000  Uiso   1.00
C451   C     0.55040   0.83457   0.11100   0.00000  Uiso   1.00
C452   C     0.39704   0.87594   0.45753   0.00000  Uiso   1.00
C453   C     0.61249   0.81714   0.03588   0.00000  Uiso   1.00
C454   C     0.40805   0.86325   0.41163   0.00000  Uiso   1.00
C455   C     0.59794   0.82138   0.08405   0.00000  Uiso   1.00
C456   C     0.48064   0.82864   0.41104   0.00000  Uiso   1.00
C457   C     0.51910   0.84672   0.08948   0.00000  Uiso   1.00
C458   C     0.47409   0.84563   0.45450   0.00000  Uiso   1.00
C459   C     0.53284   0.84343   0.04121   0.00000  Uiso   1.00
C460   C     0.43027   0.86816   0.47914   0.00000  Uiso   1.00
C461   C     0.45556   0.87601   0.04393   0.00000  Uiso   1.00
C462   C     0.57959   0.82626   0.01427   0.00000  Uiso   1.00
C463   C     0.51028   0.84081   0.47359   0.00000  Uiso   1.00
C464   C     0.49942   0.85355   0.02006   0.00000  Uiso   1.00
C465   C     0.55746   0.82467   0.44716   0.00000  Uiso   1.00
C466   C     0.42149   0.88325   0.02405   0.00000  Uiso   1.00
C467   C     0.59158   0.81745   0.46691   0.00000  Uiso   1.00
C468   C     0.51215   0.97923   0.28417   0.00000  Uiso   1.00
C469   C     0.48770   0.68741   0.21600   0.00000  Uiso   1.00
C470   C     0.51273   0.68894   0.28251   0.00000  Uiso   1.00
H471   H     0.48260   0.85605   0.11170   0.00000  Uiso   1.00
H472   H     0.47809   0.96008   0.19216   0.00000  Uiso   1.00
H473   H     0.64852   0.79388   0.19070   0.00000  Uiso   1.00
H474   H     0.35145   0.87271   0.30937   0.00000  Uiso   1.00
H475   H     0.39916   0.79381   0.19073   0.00000  Uiso   1.00
H476   H     0.60081   0.87279   0.30934   0.00000  Uiso   1.00
H477   H     0.51037   0.80758   0.39294   0.00000  Uiso   1.00
H478   H     0.62294   0.81248   0.10035   0.00000  Uiso   1.00
H479   H     0.38440   0.87265   0.39404   0.00000  Uiso   1.00
H480   H     0.36369   0.89349   0.47483   0.00000  Uiso   1.00
H481   H     0.64893   0.80539   0.01620   0.00000  Uiso   1.00
H482   H     0.44741   0.89001   0.07770   0.00000  Uiso   1.00
H483   H     0.56967   0.81810   0.41035   0.00000  Uiso   1.00
H484   H     0.52181   0.70657   0.30798   0.00000  Uiso   1.00
N485   N     0.38093   0.83334   0.25001   0.00000  Uiso   1.00
N486   N     0.61907   0.83332   0.24999   0.00000  Uiso   1.00
O487   O     0.46179   0.89442   0.25001   0.00000  Uiso   1.00
O488   O     0.53821   0.77225   0.24999   0.00000  Uiso   1.00
O489   O     0.53823   0.89441   0.25000   0.00000  Uiso   1.00
O490   O     0.46177   0.77226   0.25000   0.00000  Uiso   1.00
O491   O     0.43994   0.83334   0.31613   0.00000  Uiso   1.00
O492   O     0.56006   0.83333   0.18387   0.00000  Uiso   1.00
O493   O     0.51639   0.83333   0.31612   0.00000  Uiso   1.00
O494   O     0.48361   0.83334   0.18388   0.00000  Uiso   1.00
Zn495  Zn    0.44896   0.83334   0.25000   0.00000  Uiso   1.00
Zn496  Zn    0.55104   0.83333   0.25000   0.00000  Uiso   1.00
Br497  Br    0.69667   0.91387   0.06065   0.00000  Uiso   1.00
Br498  Br    0.98538   0.79128   0.42787   0.00000  Uiso   1.00
Br499  Br    0.85909   0.95213   0.33323   0.00000  Uiso   1.00
Br500  Br    0.80717   0.71446   0.16707   0.00000  Uiso   1.00
C501   C     0.83299   0.91324   0.25099   0.00000  Uiso   1.00
C502   C     0.82051   0.97770   0.21762   0.00000  Uiso   1.00
C503   C     0.83372   0.70930   0.24881   0.00000  Uiso   1.00
C504   C     0.83288   0.95735   0.25130   0.00000  Uiso   1.00
C505   C     0.98932   0.81142   0.21706   0.00000  Uiso   1.00
C506   C     0.67734   0.85521   0.28297   0.00000  Uiso   1.00
C507   C     0.70386   0.81140   0.21709   0.00000  Uiso   1.00
C508   C     0.96280   0.85523   0.28294   0.00000  Uiso   1.00
C509   C     0.80263   0.83379   0.33800   0.00000  Uiso   1.00
C510   C     0.86407   0.83367   0.16193   0.00000  Uiso   1.00
C511   C     0.78368   0.83993   0.38829   0.00000  Uiso   1.00
C512   C     0.83366   0.75342   0.24906   0.00000  Uiso   1.00
C513   C     0.88374   0.83457   0.11100   0.00000  Uiso   1.00
C514   C     0.73037   0.87594   0.45753   0.00000  Uiso   1.00
C515   C     0.94583   0.81714   0.03588   0.00000  Uiso   1.00
C516   C     0.74138   0.86325   0.41163   0.00000  Uiso   1.00
C517   C     0.93128   0.82138   0.08405   0.00000  Uiso   1.00
C518   C     0.81397   0.82864   0.41104   0.00000  Uiso   1.00
C519   C     0.85244   0.84672   0.08948   0.00000  Uiso   1.00
C520   C     0.80743   0.84563   0.45450   0.00000  Uiso   1.00
C521   C     0.86617   0.84343   0.04121   0.00000  Uiso   1.00
C522   C     0.76360   0.86816   0.47914   0.00000  Uiso   1.00
C523   C     0.78890   0.87601   0.04393   0.00000  Uiso   1.00
C524   C     0.91292   0.82626   0.01427   0.00000  Uiso   1.00
C525   C     0.84361   0.84081   0.47359   0.00000  Uiso   1.00
C526   C     0.83276   0.85355   0.02006   0.00000  Uiso   1.00
C527   C     0.89079   0.82467   0.44716   0.00000  Uiso   1.00
C528   C     0.75482   0.88325   0.02405   0.00000  Uiso   1.00
C529   C     0.92492   0.81745   0.46691   0.00000  Uiso   1.00
C530   C     0.84549   0.97923   0.28417   0.00000  Uiso   1.00
C531   C     0.82103   0.68741   0.21600   0.00000  Uiso   1.00
C532   C     0.84607   0.68894   0.28251   0.00000  Uiso   1.00
H533   H     0.81593   0.85605   0.11170   0.00000  Uiso   1.00
H534   H     0.81143   0.96008   0.19216   0.00000  Uiso   1.00
H535   H     0.98186   0.79388   0.19070   0.00000  Uiso   1.00
H536   H     0.68478   0.87271   0.30937   0.00000  Uiso   1.00
H537   H     0.73250   0.79381   0.19073   0.00000  Uiso   1.00
H538   H     0.93414   0.87279   0.30934   0.00000  Uiso   1.00
H539   H     0.84370   0.80758   0.39294   0.00000  Uiso   1.00
H540   H     0.95627   0.81248   0.10035   0.00000  Uiso   1.00
H541   H     0.71773   0.87265   0.39404   0.00000  Uiso   1.00
H542   H     0.69703   0.89349   0.47483   0.00000  Uiso   1.00
H543   H     0.98226   0.80539   0.01620   0.00000  Uiso   1.00
H544   H     0.78075   0.89001   0.07770   0.00000  Uiso   1.00
H545   H     0.90300   0.81810   0.41035   0.00000  Uiso   1.00
H546   H     0.85514   0.70657   0.30798   0.00000  Uiso   1.00
N547   N     0.71426   0.83334   0.25001   0.00000  Uiso   1.00
N548   N     0.95241   0.83332   0.24999   0.00000  Uiso   1.00
O549   O     0.79512   0.89442   0.25001   0.00000  Uiso   1.00
O550   O     0.87154   0.77225   0.24999   0.00000  Uiso   1.00
O551   O     0.87157   0.89441   0.25000   0.00000  Uiso   1.00
O552   O     0.79510   0.77226   0.25000   0.00000  Uiso   1.00
O553   O     0.77328   0.83334   0.31613   0.00000  Uiso   1.00
O554   O     0.89339   0.83333   0.18387   0.00000  Uiso   1.00
O555   O     0.84972   0.83333   0.31612   0.00000  Uiso   1.00
O556   O     0.81695   0.83334   0.18388   0.00000  Uiso   1.00
Zn557  Zn    0.78229   0.83334   0.25000   0.00000  Uiso   1.00
Zn558  Zn    0.88438   0.83333   0.25000   0.00000  Uiso   1.00
Br559  Br    0.03000   0.24721   0.56065   0.00000  Uiso   1.00
Br560  Br    0.31871   0.12461   0.92787   0.00000  Uiso   1.00
Br561  Br    0.19242   0.28546   0.83323   0.00000  Uiso   1.00
Br562  Br    0.14050   0.04779   0.66707   0.00000  Uiso   1.00
C563   C     0.16632   0.24658   0.75099   0.00000  Uiso   1.00
C564   C     0.15384   0.31104   0.71762   0.00000  Uiso   1.00
C565   C     0.16705   0.04263   0.74881   0.00000  Uiso   1.00
C566   C     0.16621   0.29068   0.75130   0.00000  Uiso   1.00
C567   C     0.32265   0.14475   0.71706   0.00000  Uiso   1.00
C568   C     0.01067   0.18855   0.78297   0.00000  Uiso   1.00
C569   C     0.03719   0.14473   0.71709   0.00000  Uiso   1.00
C570   C     0.29613   0.18857   0.78294   0.00000  Uiso   1.00
C571   C     0.13597   0.16712   0.83800   0.00000  Uiso   1.00
C572   C     0.19740   0.16701   0.66193   0.00000  Uiso   1.00
C573   C     0.11701   0.17326   0.88829   0.00000  Uiso   1.00
C574   C     0.16699   0.08675   0.74906   0.00000  Uiso   1.00
C575   C     0.21707   0.16791   0.61100   0.00000  Uiso   1.00
C576   C     0.06371   0.20928   0.95753   0.00000  Uiso   1.00
C577   C     0.27916   0.15047   0.53588   0.00000  Uiso   1.00
C578   C     0.07472   0.19658   0.91163   0.00000  Uiso   1.00
C579   C     0.26461   0.15471   0.58405   0.00000  Uiso   1.00
C580   C     0.14730   0.16198   0.91104   0.00000  Uiso   1.00
C581   C     0.18577   0.18005   0.58948   0.00000  Uiso   1.00
C582   C     0.14076   0.17896   0.95450   0.00000  Uiso   1.00
C583   C     0.19950   0.17676   0.54121   0.00000  Uiso   1.00
C584   C     0.09694   0.20150   0.97914   0.00000  Uiso   1.00
C585   C     0.12223   0.20934   0.54393   0.00000  Uiso   1.00
C586   C     0.24626   0.15960   0.51427   0.00000  Uiso   1.00
C587   C     0.17695   0.17414   0.97359   0.00000  Uiso   1.00
C588   C     0.16609   0.18688   0.52006   0.00000  Uiso   1.00
C589   C     0.22412   0.15800   0.94716   0.00000  Uiso   1.00
C590   C     0.08816   0.21658   0.52405   0.00000  Uiso   1.00
C591   C     0.25825   0.15078   0.96691   0.00000  Uiso   1.00
C592   C     0.17882   0.31256   0.78417   0.00000  Uiso   1.00
C593   C     0.15437   0.02074   0.71600   0.00000  Uiso   1.00
C594   C     0.17940   0.02227   0.78251   0.00000  Uiso   1.00
H595   H     0.14926   0.18938   0.61170   0.00000  Uiso   1.00
H596   H     0.14476   0.29341   0.69216   0.00000  Uiso   1.00
H597   H     0.31519   0.12722   0.69070   0.00000  Uiso   1.00
H598   H     0.01812   0.20604   0.80937   0.00000  Uiso   1.00
H599   H     0.06583   0.12714   0.69073   0.00000  Uiso   1.00
H600   H     0.26748   0.20613   0.80934   0.00000  Uiso   1.00
H601   H     0.17703   0.14091   0.89294   0.00000  Uiso   1.00
H602   H     0.28960   0.14581   0.60035   0.00000  Uiso   1.00
H603   H     0.05107   0.20598   0.89404   0.00000  Uiso   1.00
H604   H     0.03036   0.22683   0.97483   0.00000  Uiso   1.00
H605   H     0.31559   0.13873   0.51620   0.00000  Uiso   1.00
H606   H     0.11408   0.22335   0.57770   0.00000  Uiso   1.00
H607   H     0.23634   0.15143   0.91035   0.00000  Uiso   1.00
H608   H     0.18847   0.03990   0.80798   0.00000  Uiso   1.00
N609   N     0.04759   0.16668   0.75001   0.00000  Uiso   1.00
N610   N     0.28574   0.16666   0.74999   0.00000  Uiso   1.00
O611   O     0.12846   0.22775   0.75001   0.00000  Uiso   1.00
O612   O     0.20488   0.10558   0.74999   0.00000  Uiso   1.00
O613   O     0.20490   0.22774   0.75000   0.00000  Uiso   1.00
O614   O     0.12843   0.10559   0.75000   0.00000  Uiso   1.00
O615   O     0.10661   0.16667   0.81613   0.00000  Uiso   1.00
O616   O     0.22672   0.16666   0.68387   0.00000  Uiso   1.00
O617   O     0.18305   0.16666   0.81612   0.00000  Uiso   1.00
O618   O     0.15028   0.16667   0.68388   0.00000  Uiso   1.00
Zn619  Zn    0.11562   0.16667   0.75000   0.00000  Uiso   1.00
Zn620  Zn    0.21771   0.16666   0.75000   0.00000  Uiso   1.00
Br621  Br    0.36333   0.24721   0.56065   0.00000  Uiso   1.00
Br622  Br    0.65204   0.12461   0.92787   0.00000  Uiso   1.00
Br623  Br    0.52575   0.28546   0.83323   0.00000  Uiso   1.00
Br624  Br    0.47383   0.04779   0.66707   0.00000  Uiso   1.00
C625   C     0.49965   0.24658   0.75099   0.00000  Uiso   1.00
C626   C     0.48717   0.31104   0.71762   0.00000  Uiso   1.00
C627   C     0.50039   0.04263   0.74881   0.00000  Uiso   1.00
C628   C     0.49955   0.29068   0.75130   0.00000  Uiso   1.00
C629   C     0.65598   0.14475   0.71706   0.00000  Uiso   1.00
C630   C     0.34400   0.18855   0.78297   0.00000  Uiso   1.00
C631   C     0.37052   0.14473   0.71709   0.00000  Uiso   1.00
C632   C     0.62946   0.18857   0.78294   0.00000  Uiso   1.00
C633   C     0.46930   0.16712   0.83800   0.00000  Uiso   1.00
C634   C     0.53073   0.16701   0.66193   0.00000  Uiso   1.00
C635   C     0.45034   0.17326   0.88829   0.00000  Uiso   1.00
C636   C     0.50032   0.08675   0.74906   0.00000  Uiso   1.00
C637   C     0.55040   0.16791   0.61100   0.00000  Uiso   1.00
C638   C     0.39704   0.20928   0.95753   0.00000  Uiso   1.00
C639   C     0.61249   0.15047   0.53588   0.00000  Uiso   1.00
C640   C     0.40805   0.19658   0.91163   0.00000  Uiso   1.00
C641   C     0.59794   0.15471   0.58405   0.00000  Uiso   1.00
C642   C     0.48064   0.16198   0.91104   0.00000  Uiso   1.00
C643   C     0.51910   0.18005   0.58948   0.00000  Uiso   1.00
C644   C     0.47409   0.17896   0.95450   0.00000  Uiso   1.00
C645   C     0.53284   0.17676   0.54121   0.00000  Uiso   1.00
C646   C     0.43027   0.20150   0.97914   0.00000  Uiso   1.00
C647   C     0.45556   0.20934   0.54393   0.00000  Uiso   1.00
C648   C     0.57959   0.15960   0.51427   0.00000  Uiso   1.00
C649   C     0.51028   0.17414   0.97359   0.00000  Uiso   1.00
C650   C     0.49942   0.18688   0.52006   0.00000  Uiso   1.00
C651   C     0.55746   0.15800   0.94716   0.00000  Uiso   1.00
C652   C     0.42149   0.21658   0.52405   0.00000  Uiso   1.00
C653   C     0.59158   0.15078   0.96691   0.00000  Uiso   1.00
C654   C     0.51215   0.31256   0.78417   0.00000  Uiso   1.00
C655   C     0.48770   0.02074   0.71600   0.00000  Uiso   1.00
C656   C     0.51273   0.02227   0.78251   0.00000  Uiso   1.00
H657   H     0.48260   0.18938   0.61170   0.00000  Uiso   1.00
H658   H     0.47809   0.29341   0.69216   0.00000  Uiso   1.00
H659   H     0.64852   0.12722   0.69070   0.00000  Uiso   1.00
H660   H     0.35145   0.20604   0.80937   0.00000  Uiso   1.00
H661   H     0.39916   0.12714   0.69073   0.00000  Uiso   1.00
H662   H     0.60081   0.20613   0.80934   0.00000  Uiso   1.00
H663   H     0.51037   0.14091   0.89294   0.00000  Uiso   1.00
H664   H     0.62294   0.14581   0.60035   0.00000  Uiso   1.00
H665   H     0.38440   0.20598   0.89404   0.00000  Uiso   1.00
H666   H     0.36369   0.22683   0.97483   0.00000  Uiso   1.00
H667   H     0.64893   0.13873   0.51620   0.00000  Uiso   1.00
H668   H     0.44741   0.22335   0.57770   0.00000  Uiso   1.00
H669   H     0.56967   0.15143   0.91035   0.00000  Uiso   1.00
H670   H     0.52181   0.03990   0.80798   0.00000  Uiso   1.00
N671   N     0.38093   0.16668   0.75001   0.00000  Uiso   1.00
N672   N     0.61907   0.16666   0.74999   0.00000  Uiso   1.00
O673   O     0.46179   0.22775   0.75001   0.00000  Uiso   1.00
O674   O     0.53821   0.10558   0.74999   0.00000  Uiso   1.00
O675   O     0.53823   0.22774   0.75000   0.00000  Uiso   1.00
O676   O     0.46177   0.10559   0.75000   0.00000  Uiso   1.00
O677   O     0.43994   0.16667   0.81613   0.00000  Uiso   1.00
O678   O     0.56006   0.16666   0.68387   0.00000  Uiso   1.00
O679   O     0.51639   0.16666   0.81612   0.00000  Uiso   1.00
O680   O     0.48361   0.16667   0.68388   0.00000  Uiso   1.00
Zn681  Zn    0.44896   0.16667   0.75000   0.00000  Uiso   1.00
Zn682  Zn    0.55104   0.16666   0.75000   0.00000  Uiso   1.00
Br683  Br    0.69667   0.24721   0.56065   0.00000  Uiso   1.00
Br684  Br    0.98538   0.12461   0.92787   0.00000  Uiso   1.00
Br685  Br    0.85909   0.28546   0.83323   0.00000  Uiso   1.00
Br686  Br    0.80717   0.04779   0.66707   0.00000  Uiso   1.00
C687   C     0.83299   0.24658   0.75099   0.00000  Uiso   1.00
C688   C     0.82051   0.31104   0.71762   0.00000  Uiso   1.00
C689   C     0.83372   0.04263   0.74881   0.00000  Uiso   1.00
C690   C     0.83288   0.29068   0.75130   0.00000  Uiso   1.00
C691   C     0.98932   0.14475   0.71706   0.00000  Uiso   1.00
C692   C     0.67734   0.18855   0.78297   0.00000  Uiso   1.00
C693   C     0.70386   0.14473   0.71709   0.00000  Uiso   1.00
C694   C     0.96280   0.18857   0.78294   0.00000  Uiso   1.00
C695   C     0.80263   0.16712   0.83800   0.00000  Uiso   1.00
C696   C     0.86407   0.16701   0.66193   0.00000  Uiso   1.00
C697   C     0.78368   0.17326   0.88829   0.00000  Uiso   1.00
C698   C     0.83366   0.08675   0.74906   0.00000  Uiso   1.00
C699   C     0.88374   0.16791   0.61100   0.00000  Uiso   1.00
C700   C     0.73037   0.20928   0.95753   0.00000  Uiso   1.00
C701   C     0.94583   0.15047   0.53588   0.00000  Uiso   1.00
C702   C     0.74138   0.19658   0.91163   0.00000  Uiso   1.00
C703   C     0.93128   0.15471   0.58405   0.00000  Uiso   1.00
C704   C     0.81397   0.16198   0.91104   0.00000  Uiso   1.00
C705   C     0.85244   0.18005   0.58948   0.00000  Uiso   1.00
C706   C     0.80743   0.17896   0.95450   0.00000  Uiso   1.00
C707   C     0.86617   0.17676   0.54121   0.00000  Uiso   1.00
C708   C     0.76360   0.20150   0.97914   0.00000  Uiso   1.00
C709   C     0.78890   0.20934   0.54393   0.00000  Uiso   1.00
C710   C     0.91292   0.15960   0.51427   0.00000  Uiso   1.00
C711   C     0.84361   0.17414   0.97359   0.00000  Uiso   1.00
C712   C     0.83276   0.18688   0.52006   0.00000  Uiso   1.00
C713   C     0.89079   0.15800   0.94716   0.00000  Uiso   1.00
C714   C     0.75482   0.21658   0.52405   0.00000  Uiso   1.00
C715   C     0.92492   0.15078   0.96691   0.00000  Uiso   1.00
C716   C     0.84549   0.31256   0.78417   0.00000  Uiso   1.00
C717   C     0.82103   0.02074   0.71600   0.00000  Uiso   1.00
C718   C     0.84607   0.02227   0.78251   0.00000  Uiso   1.00
H719   H     0.81593   0.18938   0.61170   0.00000  Uiso   1.00
H720   H     0.81143   0.29341   0.69216   0.00000  Uiso   1.00
H721   H     0.98186   0.12722   0.69070   0.00000  Uiso   1.00
H722   H     0.68478   0.20604   0.80937   0.00000  Uiso   1.00
H723   H     0.73250   0.12714   0.69073   0.00000  Uiso   1.00
H724   H     0.93414   0.20613   0.80934   0.00000  Uiso   1.00
H725   H     0.84370   0.14091   0.89294   0.00000  Uiso   1.00
H726   H     0.95627   0.14581   0.60035   0.00000  Uiso   1.00
H727   H     0.71773   0.20598   0.89404   0.00000  Uiso   1.00
H728   H     0.69703   0.22683   0.97483   0.00000  Uiso   1.00
H729   H     0.98226   0.13873   0.51620   0.00000  Uiso   1.00
H730   H     0.78075   0.22335   0.57770   0.00000  Uiso   1.00
H731   H     0.90300   0.15143   0.91035   0.00000  Uiso   1.00
H732   H     0.85514   0.03990   0.80798   0.00000  Uiso   1.00
N733   N     0.71426   0.16668   0.75001   0.00000  Uiso   1.00
N734   N     0.95241   0.16666   0.74999   0.00000  Uiso   1.00
O735   O     0.79512   0.22775   0.75001   0.00000  Uiso   1.00
O736   O     0.87154   0.10558   0.74999   0.00000  Uiso   1.00
O737   O     0.87157   0.22774   0.75000   0.00000  Uiso   1.00
O738   O     0.79510   0.10559   0.75000   0.00000  Uiso   1.00
O739   O     0.77328   0.16667   0.81613   0.00000  Uiso   1.00
O740   O     0.89339   0.16666   0.68387   0.00000  Uiso   1.00
O741   O     0.84972   0.16666   0.81612   0.00000  Uiso   1.00
O742   O     0.81695   0.16667   0.68388   0.00000  Uiso   1.00
Zn743  Zn    0.78229   0.16667   0.75000   0.00000  Uiso   1.00
Zn744  Zn    0.88438   0.16666   0.75000   0.00000  Uiso   1.00
Br745  Br    0.03000   0.58054   0.56065   0.00000  Uiso   1.00
Br746  Br    0.31871   0.45795   0.92787   0.00000  Uiso   1.00
Br747  Br    0.19242   0.61880   0.83323   0.00000  Uiso   1.00
Br748  Br    0.14050   0.38112   0.66707   0.00000  Uiso   1.00
C749   C     0.16632   0.57991   0.75099   0.00000  Uiso   1.00
C750   C     0.15384   0.64437   0.71762   0.00000  Uiso   1.00
C751   C     0.16705   0.37597   0.74881   0.00000  Uiso   1.00
C752   C     0.16621   0.62402   0.75130   0.00000  Uiso   1.00
C753   C     0.32265   0.47808   0.71706   0.00000  Uiso   1.00
C754   C     0.01067   0.52188   0.78297   0.00000  Uiso   1.00
C755   C     0.03719   0.47807   0.71709   0.00000  Uiso   1.00
C756   C     0.29613   0.52190   0.78294   0.00000  Uiso   1.00
C757   C     0.13597   0.50046   0.83800   0.00000  Uiso   1.00
C758   C     0.19740   0.50034   0.66193   0.00000  Uiso   1.00
C759   C     0.11701   0.50659   0.88829   0.00000  Uiso   1.00
C760   C     0.16699   0.42008   0.74906   0.00000  Uiso   1.00
C761   C     0.21707   0.50124   0.61100   0.00000  Uiso   1.00
C762   C     0.06371   0.54261   0.95753   0.00000  Uiso   1.00
C763   C     0.27916   0.48381   0.53588   0.00000  Uiso   1.00
C764   C     0.07472   0.52992   0.91163   0.00000  Uiso   1.00
C765   C     0.26461   0.48804   0.58405   0.00000  Uiso   1.00
C766   C     0.14730   0.49531   0.91104   0.00000  Uiso   1.00
C767   C     0.18577   0.51338   0.58948   0.00000  Uiso   1.00
C768   C     0.14076   0.51229   0.95450   0.00000  Uiso   1.00
C769   C     0.19950   0.51009   0.54121   0.00000  Uiso   1.00
C770   C     0.09694   0.53483   0.97914   0.00000  Uiso   1.00
C771   C     0.12223   0.54267   0.54393   0.00000  Uiso   1.00
C772   C     0.24626   0.49293   0.51427   0.00000  Uiso   1.00
C773   C     0.17695   0.50748   0.97359   0.00000  Uiso   1.00
C774   C     0.16609   0.52021   0.52006   0.00000  Uiso   1.00
C775   C     0.22412   0.49134   0.94716   0.00000  Uiso   1.00
C776   C     0.08816   0.54991   0.52405   0.00000  Uiso   1.00
C777   C     0.25825   0.48412   0.96691   0.00000  Uiso   1.00
C778   C     0.17882   0.64589   0.78417   0.00000  Uiso   1.00
C779   C     0.15437   0.35408   0.71600   0.00000  Uiso   1.00
C780   C     0.17940   0.35561   0.78251   0.00000  Uiso   1.00
H781   H     0.14926   0.52272   0.61170   0.00000  Uiso   1.00
H782   H     0.14476   0.62674   0.69216   0.00000  Uiso   1.00
H783   H     0.31519   0.46055   0.69070   0.00000  Uiso   1.00
H784   H     0.01812   0.53938   0.80937   0.00000  Uiso   1.00
H785   H     0.06583   0.46047   0.69073   0.00000  Uiso   1.00
H786   H     0.26748   0.53946   0.80934   0.00000  Uiso   1.00
H787   H     0.17703   0.47424   0.89294   0.00000  Uiso   1.00
H788   H     0.28960   0.47914   0.60035   0.00000  Uiso   1.00
H789   H     0.05107   0.53931   0.89404   0.00000  Uiso   1.00
H790   H     0.03036   0.56016   0.97483   0.00000  Uiso   1.00
H791   H     0.31559   0.47206   0.51620   0.00000  Uiso   1.00
H792   H     0.11408   0.55668   0.57770   0.00000  Uiso   1.00
H793   H     0.23634   0.48477   0.91035   0.00000  Uiso   1.00
H794   H     0.18847   0.37324   0.80798   0.00000  Uiso   1.00
N795   N     0.04759   0.50001   0.75001   0.00000  Uiso   1.00
N796   N     0.28574   0.49999   0.74999   0.00000  Uiso   1.00
O797   O     0.12846   0.56108   0.75001   0.00000  Uiso   1.00
O798   O     0.20488   0.43892   0.74999   0.00000  Uiso   1.00
O799   O     0.20490   0.56107   0.75000   0.00000  Uiso   1.00
O800   O     0.12843   0.43893   0.75000   0.00000  Uiso   1.00
O801   O     0.10661   0.50001   0.81613   0.00000  Uiso   1.00
O802   O     0.22672   0.49999   0.68387   0.00000  Uiso   1.00
O803   O     0.18305   0.50000   0.81612   0.00000  Uiso   1.00
O804   O     0.15028   0.50000   0.68388   0.00000  Uiso   1.00
Zn805  Zn    0.11562   0.50001   0.75000   0.00000  Uiso   1.00
Zn806  Zn    0.21771   0.49999   0.75000   0.00000  Uiso   1.00
Br807  Br    0.36333   0.58054   0.56065   0.00000  Uiso   1.00
Br808  Br    0.65204   0.45795   0.92787   0.00000  Uiso   1.00
Br809  Br    0.52575   0.61880   0.83323   0.00000  Uiso   1.00
Br810  Br    0.47383   0.38112   0.66707   0.00000  Uiso   1.00
C811   C     0.49965   0.57991   0.75099   0.00000  Uiso   1.00
C812   C     0.48717   0.64437   0.71762   0.00000  Uiso   1.00
C813   C     0.50039   0.37597   0.74881   0.00000  Uiso   1.00
C814   C     0.49955   0.62402   0.75130   0.00000  Uiso   1.00
C815   C     0.65598   0.47808   0.71706   0.00000  Uiso   1.00
C816   C     0.34400   0.52188   0.78297   0.00000  Uiso   1.00
C817   C     0.37052   0.47807   0.71709   0.00000  Uiso   1.00
C818   C     0.62946   0.52190   0.78294   0.00000  Uiso   1.00
C819   C     0.46930   0.50046   0.83800   0.00000  Uiso   1.00
C820   C     0.53073   0.50034   0.66193   0.00000  Uiso   1.00
C821   C     0.45034   0.50659   0.88829   0.00000  Uiso   1.00
C822   C     0.50032   0.42008   0.74906   0.00000  Uiso   1.00
C823   C     0.55040   0.50124   0.61100   0.00000  Uiso   1.00
C824   C     0.39704   0.54261   0.95753   0.00000  Uiso   1.00
C825   C     0.61249   0.48381   0.53588   0.00000  Uiso   1.00
C826   C     0.40805   0.52992   0.91163   0.00000  Uiso   1.00
C827   C     0.59794   0.48804   0.58405   0.00000  Uiso   1.00
C828   C     0.48064   0.49531   0.91104   0.00000  Uiso   1.00
C829   C     0.51910   0.51338   0.58948   0.00000  Uiso   1.00
C830   C     0.47409   0.51229   0.95450   0.00000  Uiso   1.00
C831   C     0.53284   0.51009   0.54121   0.00000  Uiso   1.00
C832   C     0.43027   0.53483   0.97914   0.00000  Uiso   1.00
C833   C     0.45556   0.54267   0.54393   0.00000  Uiso   1.00
C834   C     0.57959   0.49293   0.51427   0.00000  Uiso   1.00
C835   C     0.51028   0.50748   0.97359   0.00000  Uiso   1.00
C836   C     0.49942   0.52021   0.52006   0.00000  Uiso   1.00
C837   C     0.55746   0.49134   0.94716   0.00000  Uiso   1.00
C838   C     0.42149   0.54991   0.52405   0.00000  Uiso   1.00
C839   C     0.59158   0.48412   0.96691   0.00000  Uiso   1.00
C840   C     0.51215   0.64589   0.78417   0.00000  Uiso   1.00
C841   C     0.48770   0.35408   0.71600   0.00000  Uiso   1.00
C842   C     0.51273   0.35561   0.78251   0.00000  Uiso   1.00
H843   H     0.48260   0.52272   0.61170   0.00000  Uiso   1.00
H844   H     0.47809   0.62674   0.69216   0.00000  Uiso   1.00
H845   H     0.64852   0.46055   0.69070   0.00000  Uiso   1.00
H846   H     0.35145   0.53938   0.80937   0.00000  Uiso   1.00
H847   H     0.39916   0.46047   0.69073   0.00000  Uiso   1.00
H848   H     0.60081   0.53946   0.80934   0.00000  Uiso   1.00
H849   H     0.51037   0.47424   0.89294   0.00000  Uiso   1.00
H850   H     0.62294   0.47914   0.60035   0.00000  Uiso   1.00
H851   H     0.38440   0.53931   0.89404   0.00000  Uiso   1.00
H852   H     0.36369   0.56016   0.97483   0.00000  Uiso   1.00
H853   H     0.64893   0.47206   0.51620   0.00000  Uiso   1.00
H854   H     0.44741   0.55668   0.57770   0.00000  Uiso   1.00
H855   H     0.56967   0.48477   0.91035   0.00000  Uiso   1.00
H856   H     0.52181   0.37324   0.80798   0.00000  Uiso   1.00
N857   N     0.38093   0.50001   0.75001   0.00000  Uiso   1.00
N858   N     0.61907   0.49999   0.74999   0.00000  Uiso   1.00
O859   O     0.46179   0.56108   0.75001   0.00000  Uiso   1.00
O860   O     0.53821   0.43892   0.74999   0.00000  Uiso   1.00
O861   O     0.53823   0.56107   0.75000   0.00000  Uiso   1.00
O862   O     0.46177   0.43893   0.75000   0.00000  Uiso   1.00
O863   O     0.43994   0.50001   0.81613   0.00000  Uiso   1.00
O864   O     0.56006   0.49999   0.68387   0.00000  Uiso   1.00
O865   O     0.51639   0.50000   0.81612   0.00000  Uiso   1.00
O866   O     0.48361   0.50000   0.68388   0.00000  Uiso   1.00
Zn867  Zn    0.44896   0.50001   0.75000   0.00000  Uiso   1.00
Zn868  Zn    0.55104   0.49999   0.75000   0.00000  Uiso   1.00
Br869  Br    0.69667   0.58054   0.56065   0.00000  Uiso   1.00
Br870  Br    0.98538   0.45795   0.92787   0.00000  Uiso   1.00
Br871  Br    0.85909   0.61880   0.83323   0.00000  Uiso   1.00
Br872  Br    0.80717   0.38112   0.66707   0.00000  Uiso   1.00
C873   C     0.83299   0.57991   0.75099   0.00000  Uiso   1.00
C874   C     0.82051   0.64437   0.71762   0.00000  Uiso   1.00
C875   C     0.83372   0.37597   0.74881   0.00000  Uiso   1.00
C876   C     0.83288   0.62402   0.75130   0.00000  Uiso   1.00
C877   C     0.98932   0.47808   0.71706   0.00000  Uiso   1.00
C878   C     0.67734   0.52188   0.78297   0.00000  Uiso   1.00
C879   C     0.70386   0.47807   0.71709   0.00000  Uiso   1.00
C880   C     0.96280   0.52190   0.78294   0.00000  Uiso   1.00
C881   C     0.80263   0.50046   0.83800   0.00000  Uiso   1.00
C882   C     0.86407   0.50034   0.66193   0.00000  Uiso   1.00
C883   C     0.78368   0.50659   0.88829   0.00000  Uiso   1.00
C884   C     0.83366   0.42008   0.74906   0.00000  Uiso   1.00
C885   C     0.88374   0.50124   0.61100   0.00000  Uiso   1.00
C886   C     0.73037   0.54261   0.95753   0.00000  Uiso   1.00
C887   C     0.94583   0.48381   0.53588   0.00000  Uiso   1.00
C888   C     0.74138   0.52992   0.91163   0.00000  Uiso   1.00
C889   C     0.93128   0.48804   0.58405   0.00000  Uiso   1.00
C890   C     0.81397   0.49531   0.91104   0.00000  Uiso   1.00
C891   C     0.85244   0.51338   0.58948   0.00000  Uiso   1.00
C892   C     0.80743   0.51229   0.95450   0.00000  Uiso   1.00
C893   C     0.86617   0.51009   0.54121   0.00000  Uiso   1.00
C894   C     0.76360   0.53483   0.97914   0.00000  Uiso   1.00
C895   C     0.78890   0.54267   0.54393   0.00000  Uiso   1.00
C896   C     0.91292   0.49293   0.51427   0.00000  Uiso   1.00
C897   C     0.84361   0.50748   0.97359   0.00000  Uiso   1.00
C898   C     0.83276   0.52021   0.52006   0.00000  Uiso   1.00
C899   C     0.89079   0.49134   0.94716   0.00000  Uiso   1.00
C900   C     0.75482   0.54991   0.52405   0.00000  Uiso   1.00
C901   C     0.92492   0.48412   0.96691   0.00000  Uiso   1.00
C902   C     0.84549   0.64589   0.78417   0.00000  Uiso   1.00
C903   C     0.82103   0.35408   0.71600   0.00000  Uiso   1.00
C904   C     0.84607   0.35561   0.78251   0.00000  Uiso   1.00
H905   H     0.81593   0.52272   0.61170   0.00000  Uiso   1.00
H906   H     0.81143   0.62674   0.69216   0.00000  Uiso   1.00
H907   H     0.98186   0.46055   0.69070   0.00000  Uiso   1.00
H908   H     0.68478   0.53938   0.80937   0.00000  Uiso   1.00
H909   H     0.73250   0.46047   0.69073   0.00000  Uiso   1.00
H910   H     0.93414   0.53946   0.80934   0.00000  Uiso   1.00
H911   H     0.84370   0.47424   0.89294   0.00000  Uiso   1.00
H912   H     0.95627   0.47914   0.60035   0.00000  Uiso   1.00
H913   H     0.71773   0.53931   0.89404   0.00000  Uiso   1.00
H914   H     0.69703   0.56016   0.97483   0.00000  Uiso   1.00
H915   H     0.98226   0.47206   0.51620   0.00000  Uiso   1.00
H916   H     0.78075   0.55668   0.57770   0.00000  Uiso   1.00
H917   H     0.90300   0.48477   0.91035   0.00000  Uiso   1.00
H918   H     0.85514   0.37324   0.80798   0.00000  Uiso   1.00
N919   N     0.71426   0.50001   0.75001   0.00000  Uiso   1.00
N920   N     0.95241   0.49999   0.74999   0.00000  Uiso   1.00
O921   O     0.79512   0.56108   0.75001   0.00000  Uiso   1.00
O922   O     0.87154   0.43892   0.74999   0.00000  Uiso   1.00
O923   O     0.87157   0.56107   0.75000   0.00000  Uiso   1.00
O924   O     0.79510   0.43893   0.75000   0.00000  Uiso   1.00
O925   O     0.77328   0.50001   0.81613   0.00000  Uiso   1.00
O926   O     0.89339   0.49999   0.68387   0.00000  Uiso   1.00
O927   O     0.84972   0.50000   0.81612   0.00000  Uiso   1.00
O928   O     0.81695   0.50000   0.68388   0.00000  Uiso   1.00
Zn929  Zn    0.78229   0.50001   0.75000   0.00000  Uiso   1.00
Zn930  Zn    0.88438   0.49999   0.75000   0.00000  Uiso   1.00
Br931  Br    0.03000   0.91387   0.56065   0.00000  Uiso   1.00
Br932  Br    0.31871   0.79128   0.92787   0.00000  Uiso   1.00
Br933  Br    0.19242   0.95213   0.83323   0.00000  Uiso   1.00
Br934  Br    0.14050   0.71446   0.66707   0.00000  Uiso   1.00
C935   C     0.16632   0.91324   0.75099   0.00000  Uiso   1.00
C936   C     0.15384   0.97770   0.71762   0.00000  Uiso   1.00
C937   C     0.16705   0.70930   0.74881   0.00000  Uiso   1.00
C938   C     0.16621   0.95735   0.75130   0.00000  Uiso   1.00
C939   C     0.32265   0.81142   0.71706   0.00000  Uiso   1.00
C940   C     0.01067   0.85521   0.78297   0.00000  Uiso   1.00
C941   C     0.03719   0.81140   0.71709   0.00000  Uiso   1.00
C942   C     0.29613   0.85523   0.78294   0.00000  Uiso   1.00
C943   C     0.13597   0.83379   0.83800   0.00000  Uiso   1.00
C944   C     0.19740   0.83367   0.66193   0.00000  Uiso   1.00
C945   C     0.11701   0.83993   0.88829   0.00000  Uiso   1.00
C946   C     0.16699   0.75342   0.74906   0.00000  Uiso   1.00
C947   C     0.21707   0.83457   0.61100   0.00000  Uiso   1.00
C948   C     0.06371   0.87594   0.95753   0.00000  Uiso   1.00
C949   C     0.27916   0.81714   0.53588   0.00000  Uiso   1.00
C950   C     0.07472   0.86325   0.91163   0.00000  Uiso   1.00
C951   C     0.26461   0.82138   0.58405   0.00000  Uiso   1.00
C952   C     0.14730   0.82864   0.91104   0.00000  Uiso   1.00
C953   C     0.18577   0.84672   0.58948   0.00000  Uiso   1.00
C954   C     0.14076   0.84563   0.95450   0.00000  Uiso   1.00
C955   C     0.19950   0.84343   0.54121   0.00000  Uiso   1.00
C956   C     0.09694   0.86816   0.97914   0.00000  Uiso   1.00
C957   C     0.12223   0.87601   0.54393   0.00000  Uiso   1.00
C958   C     0.24626   0.82626   0.51427   0.00000  Uiso   1.00
C959   C     0.17695   0.84081   0.97359   0.00000  Uiso   1.00
C960   C     0.16609   0.85355   0.52006   0.00000  Uiso   1.00
C961   C     0.22412   0.82467   0.94716   0.00000  Uiso   1.00
C962   C     0.08816   0.88325   0.52405   0.00000  Uiso   1.00
C963   C     0.25825   0.81745   0.96691   0.00000  Uiso   1.00
C964   C     0.17882   0.97923   0.78417   0.00000  Uiso   1.00
C965   C     0.15437   0.68741   0.71600   0.00000  Uiso   1.00
C966   C     0.17940   0.68894   0.78251   0.00000  Uiso   1.00
H967   H     0.14926   0.85605   0.61170   0.00000  Uiso   1.00
H968   H     0.14476   0.96008   0.69216   0.00000  Uiso   1.00
H969   H     0.31519   0.79388   0.69070   0.00000  Uiso   1.00
H970   H     0.01812   0.87271   0.80937   0.00000  Uiso   1.00
H971   H     0.06583   0.79381   0.69073   0.00000  Uiso   1.00
H972   H     0.26748   0.87279   0.80934   0.00000  Uiso   1.00
H973   H     0.17703   0.80758   0.89294   0.00000  Uiso   1.00
H974   H     0.28960   0.81248   0.60035   0.00000  Uiso   1.00
H975   H     0.05107   0.87265   0.89404   0.00000  Uiso   1.00
H976   H     0.03036   0.89349   0.97483   0.00000  Uiso   1.00
H977   H     0.31559   0.80539   0.51620   0.00000  Uiso   1.00
H978   H     0.11408   0.89001   0.57770   0.00000  Uiso   1.00
H979   H     0.23634   0.81810   0.91035   0.00000  Uiso   1.00
H980   H     0.18847   0.70657   0.80798   0.00000  Uiso   1.00
N981   N     0.04759   0.83334   0.75001   0.00000  Uiso   1.00
N982   N     0.28574   0.83332   0.74999   0.00000  Uiso   1.00
O983   O     0.12846   0.89442   0.75001   0.00000  Uiso   1.00
O984   O     0.20488   0.77225   0.74999   0.00000  Uiso   1.00
O985   O     0.20490   0.89441   0.75000   0.00000  Uiso   1.00
O986   O     0.12843   0.77226   0.75000   0.00000  Uiso   1.00
O987   O     0.10661   0.83334   0.81613   0.00000  Uiso   1.00
O988   O     0.22672   0.83333   0.68387   0.00000  Uiso   1.00
O989   O     0.18305   0.83333   0.81612   0.00000  Uiso   1.00
O990   O     0.15028   0.83334   0.68388   0.00000  Uiso   1.00
Zn991  Zn    0.11562   0.83334   0.75000   0.00000  Uiso   1.00
Zn992  Zn    0.21771   0.83333   0.75000   0.00000  Uiso   1.00
Br993  Br    0.36333   0.91387   0.56065   0.00000  Uiso   1.00
Br994  Br    0.65204   0.79128   0.92787   0.00000  Uiso   1.00
Br995  Br    0.52575   0.95213   0.83323   0.00000  Uiso   1.00
Br996  Br    0.47383   0.71446   0.66707   0.00000  Uiso   1.00
C997   C     0.49965   0.91324   0.75099   0.00000  Uiso   1.00
C998   C     0.48717   0.97770   0.71762   0.00000  Uiso   1.00
C999   C     0.50039   0.70930   0.74881   0.00000  Uiso   1.00
C1000  C     0.49955   0.95735   0.75130   0.00000  Uiso   1.00
C1001  C     0.65598   0.81142   0.71706   0.00000  Uiso   1.00
C1002  C     0.34400   0.85521   0.78297   0.00000  Uiso   1.00
C1003  C     0.37052   0.81140   0.71709   0.00000  Uiso   1.00
C1004  C     0.62946   0.85523   0.78294   0.00000  Uiso   1.00
C1005  C     0.46930   0.83379   0.83800   0.00000  Uiso   1.00
C1006  C     0.53073   0.83367   0.66193   0.00000  Uiso   1.00
C1007  C     0.45034   0.83993   0.88829   0.00000  Uiso   1.00
C1008  C     0.50032   0.75342   0.74906   0.00000  Uiso   1.00
C1009  C     0.55040   0.83457   0.61100   0.00000  Uiso   1.00
C1010  C     0.39704   0.87594   0.95753   0.00000  Uiso   1.00
C1011  C     0.61249   0.81714   0.53588   0.00000  Uiso   1.00
C1012  C     0.40805   0.86325   0.91163   0.00000  Uiso   1.00
C1013  C     0.59794   0.82138   0.58405   0.00000  Uiso   1.00
C1014  C     0.48064   0.82864   0.91104   0.00000  Uiso   1.00
C1015  C     0.51910   0.84672   0.58948   0.00000  Uiso   1.00
C1016  C     0.47409   0.84563   0.95450   0.00000  Uiso   1.00
C1017  C     0.53284   0.84343   0.54121   0.00000  Uiso   1.00
C1018  C     0.43027   0.86816   0.97914   0.00000  Uiso   1.00
C1019  C     0.45556   0.87601   0.54393   0.00000  Uiso   1.00
C1020  C     0.57959   0.82626   0.51427   0.00000  Uiso   1.00
C1021  C     0.51028   0.84081   0.97359   0.00000  Uiso   1.00
C1022  C     0.49942   0.85355   0.52006   0.00000  Uiso   1.00
C1023  C     0.55746   0.82467   0.94716   0.00000  Uiso   1.00
C1024  C     0.42149   0.88325   0.52405   0.00000  Uiso   1.00
C1025  C     0.59158   0.81745   0.96691   0.00000  Uiso   1.00
C1026  C     0.51215   0.97923   0.78417   0.00000  Uiso   1.00
C1027  C     0.48770   0.68741   0.71600   0.00000  Uiso   1.00
C1028  C     0.51273   0.68894   0.78251   0.00000  Uiso   1.00
H1029  H     0.48260   0.85605   0.61170   0.00000  Uiso   1.00
H1030  H     0.47809   0.96008   0.69216   0.00000  Uiso   1.00
H1031  H     0.64852   0.79388   0.69070   0.00000  Uiso   1.00
H1032  H     0.35145   0.87271   0.80937   0.00000  Uiso   1.00
H1033  H     0.39916   0.79381   0.69073   0.00000  Uiso   1.00
H1034  H     0.60081   0.87279   0.80934   0.00000  Uiso   1.00
H1035  H     0.51037   0.80758   0.89294   0.00000  Uiso   1.00
H1036  H     0.62294   0.81248   0.60035   0.00000  Uiso   1.00
H1037  H     0.38440   0.87265   0.89404   0.00000  Uiso   1.00
H1038  H     0.36369   0.89349   0.97483   0.00000  Uiso   1.00
H1039  H     0.64893   0.80539   0.51620   0.00000  Uiso   1.00
H1040  H     0.44741   0.89001   0.57770   0.00000  Uiso   1.00
H1041  H     0.56967   0.81810   0.91035   0.00000  Uiso   1.00
H1042  H     0.52181   0.70657   0.80798   0.00000  Uiso   1.00
N1043  N     0.38093   0.83334   0.75001   0.00000  Uiso   1.00
N1044  N     0.61907   0.83332   0.74999   0.00000  Uiso   1.00
O1045  O     0.46179   0.89442   0.75001   0.00000  Uiso   1.00
O1046  O     0.53821   0.77225   0.74999   0.00000  Uiso   1.00
O1047  O     0.53823   0.89441   0.75000   0.00000  Uiso   1.00
O1048  O     0.46177   0.77226   0.75000   0.00000  Uiso   1.00
O1049  O     0.43994   0.83334   0.81613   0.00000  Uiso   1.00
O1050  O     0.56006   0.83333   0.68387   0.00000  Uiso   1.00
O1051  O     0.51639   0.83333   0.81612   0.00000  Uiso   1.00
O1052  O     0.48361   0.83334   0.68388   0.00000  Uiso   1.00
Zn1053 Zn    0.44896   0.83334   0.75000   0.00000  Uiso   1.00
Zn1054 Zn    0.55104   0.83333   0.75000   0.00000  Uiso   1.00
Br1055 Br    0.69667   0.91387   0.56065   0.00000  Uiso   1.00
Br1056 Br    0.98538   0.79128   0.92787   0.00000  Uiso   1.00
Br1057 Br    0.85909   0.95213   0.83323   0.00000  Uiso   1.00
Br1058 Br    0.80717   0.71446   0.66707   0.00000  Uiso   1.00
C1059  C     0.83299   0.91324   0.75099   0.00000  Uiso   1.00
C1060  C     0.82051   0.97770   0.71762   0.00000  Uiso   1.00
C1061  C     0.83372   0.70930   0.74881   0.00000  Uiso   1.00
C1062  C     0.83288   0.95735   0.75130   0.00000  Uiso   1.00
C1063  C     0.98932   0.81142   0.71706   0.00000  Uiso   1.00
C1064  C     0.67734   0.85521   0.78297   0.00000  Uiso   1.00
C1065  C     0.70386   0.81140   0.71709   0.00000  Uiso   1.00
C1066  C     0.96280   0.85523   0.78294   0.00000  Uiso   1.00
C1067  C     0.80263   0.83379   0.83800   0.00000  Uiso   1.00
C1068  C     0.86407   0.83367   0.66193   0.00000  Uiso   1.00
C1069  C     0.78368   0.83993   0.88829   0.00000  Uiso   1.00
C1070  C     0.83366   0.75342   0.74906   0.00000  Uiso   1.00
C1071  C     0.88374   0.83457   0.61100   0.00000  Uiso   1.00
C1072  C     0.73037   0.87594   0.95753   0.00000  Uiso   1.00
C1073  C     0.94583   0.81714   0.53588   0.00000  Uiso   1.00
C1074  C     0.74138   0.86325   0.91163   0.00000  Uiso   1.00
C1075  C     0.93128   0.82138   0.58405   0.00000  Uiso   1.00
C1076  C     0.81397   0.82864   0.91104   0.00000  Uiso   1.00
C1077  C     0.85244   0.84672   0.58948   0.00000  Uiso   1.00
C1078  C     0.80743   0.84563   0.95450   0.00000  Uiso   1.00
C1079  C     0.86617   0.84343   0.54121   0.00000  Uiso   1.00
C1080  C     0.76360   0.86816   0.97914   0.00000  Uiso   1.00
C1081  C     0.78890   0.87601   0.54393   0.00000  Uiso   1.00
C1082  C     0.91292   0.82626   0.51427   0.00000  Uiso   1.00
C1083  C     0.84361   0.84081   0.97359   0.00000  Uiso   1.00
C1084  C     0.83276   0.85355   0.52006   0.00000  Uiso   1.00
C1085  C     0.89079   0.82467   0.94716   0.00000  Uiso   1.00
C1086  C     0.75482   0.88325   0.52405   0.00000  Uiso   1.00
C1087  C     0.92492   0.81745   0.96691   0.00000  Uiso   1.00
C1088  C     0.84549   0.97923   0.78417   0.00000  Uiso   1.00
C1089  C     0.82103   0.68741   0.71600   0.00000  Uiso   1.00
C1090  C     0.84607   0.68894   0.78251   0.00000  Uiso   1.00
H1091  H     0.81593   0.85605   0.61170   0.00000  Uiso   1.00
H1092  H     0.81143   0.96008   0.69216   0.00000  Uiso   1.00
H1093  H     0.98186   0.79388   0.69070   0.00000  Uiso   1.00
H1094  H     0.68478   0.87271   0.80937   0.00000  Uiso   1.00
H1095  H     0.73250   0.79381   0.69073   0.00000  Uiso   1.00
H1096  H     0.93414   0.87279   0.80934   0.00000  Uiso   1.00
H1097  H     0.84370   0.80758   0.89294   0.00000  Uiso   1.00
H1098  H     0.95627   0.81248   0.60035   0.00000  Uiso   1.00
H1099  H     0.71773   0.87265   0.89404   0.00000  Uiso   1.00
H1100  H     0.69703   0.89349   0.97483   0.00000  Uiso   1.00
H1101  H     0.98226   0.80539   0.51620   0.00000  Uiso   1.00
H1102  H     0.78075   0.89001   0.57770   0.00000  Uiso   1.00
H1103  H     0.90300   0.81810   0.91035   0.00000  Uiso   1.00
H1104  H     0.85514   0.70657   0.80798   0.00000  Uiso   1.00
N1105  N     0.71426   0.83334   0.75001   0.00000  Uiso   1.00
N1106  N     0.95241   0.83332   0.74999   0.00000  Uiso   1.00
O1107  O     0.79512   0.89442   0.75001   0.00000  Uiso   1.00
O1108  O     0.87154   0.77225   0.74999   0.00000  Uiso   1.00
O1109  O     0.87157   0.89441   0.75000   0.00000  Uiso   1.00
O1110  O     0.79510   0.77226   0.75000   0.00000  Uiso   1.00
O1111  O     0.77328   0.83334   0.81613   0.00000  Uiso   1.00
O1112  O     0.89339   0.83333   0.68387   0.00000  Uiso   1.00
O1113  O     0.84972   0.83333   0.81612   0.00000  Uiso   1.00
O1114  O     0.81695   0.83334   0.68388   0.00000  Uiso   1.00
Zn1115 Zn    0.78229   0.83334   0.75000   0.00000  Uiso   1.00
Zn1116 Zn    0.88438   0.83333   0.75000   0.00000  Uiso   1.00
loop_
_geom_bond_atom_site_label_1
_geom_bond_atom_site_label_2
_geom_bond_distance
_geom_bond_site_symmetry_2
_ccdc_geom_bond_type
Br1    C32     1.925   .     S
Br2    C33     1.923   .     S
Br3    C34     1.924   .     S
Br4    C35     1.923   .     S
C5     C8      1.407   .     S
C5     O55     1.281   .     A
C5     O53     1.282   .     A
C6     C8      1.394   .     A
C6     H38     1.085   .     S
C6     C221    1.374   .     S
C7     C36     1.394   .     A
C7     C16     1.407   .     S
C7     C35     1.400   .     A
C8     C34     1.400   .     A
C9     N52     1.366   .     A
C9     H39     1.082   .     S
C9     C73     1.418   .     S
C10    N51     1.366   .     A
C10    H40     1.082   .     S
C10    C136    1.418   1_455 S
C11    H41     1.081   .     S
C11    N51     1.368   .     A
C11    C133    1.418   1_455 S
C12    H42     1.081   .     S
C12    N52     1.368   .     A
C12    C72     1.418   .     S
C13    O59     1.294   .     A
C13    C15     1.454   .     S
C13    O57     1.293   .     A
C14    O60     1.295   .     A
C14    C17     1.458   .     S
C14    O58     1.294   .     A
C15    C20     1.396   .     A
C15    C22     1.386   .     A
C16    O54     1.282   .     A
C16    O56     1.281   .     A
C17    C23     1.391   .     A
C17    C21     1.397   .     A
C18    C20     1.393   .     A
C18    H46     1.081   .     S
C18    C26     1.410   .     A
C19    C28     1.410   .     A
C19    C21     1.393   .     A
C19    H47     1.081   .     S
C20    H45     1.083   .     S
C21    H44     1.083   .     S
C22    H43     1.078   .     S
C22    C24     1.396   .     A
C23    H37     1.076   .     S
C23    C25     1.396   .     A
C24    C26     1.422   .     A
C24    C29     1.419   .     A
C25    C28     1.422   .     A
C25    C30     1.420   .     A
C26    C590    1.401   .     S
C27    H48     1.077   .     S
C27    C32     1.390   .     A
C27    C30     1.417   .     A
C28    C591    1.401   1_554 S
C29    C31     1.416   .     A
C29    C588    1.411   .     S
C30    C587    1.411   1_554 S
C31    C33     1.389   .     A
C31    H49     1.077   .     S
C32    C584    1.401   1_554 S
C33    C586    1.401   .     S
C34    C222    1.374   .     S
C35    C378    1.374   1_545 S
C36    H50     1.085   .     S
C36    C406    1.374   1_545 S
N51    Zn61    2.014   .     S
N52    Zn62    2.014   .     S
O53    Zn61    1.985   .     S
O54    Zn62    1.985   .     S
O55    Zn62    1.986   .     S
O56    Zn61    1.986   .     S
O57    Zn61    1.964   .     S
O58    Zn62    1.964   .     S
O59    Zn62    1.907   .     S
O60    Zn61    1.907   .     S
Br63   C94     1.925   .     S
Br64   C95     1.923   .     S
Br65   C96     1.924   .     S
Br66   C97     1.923   .     S
C67    C70     1.407   .     S
C67    O117    1.281   .     A
C67    O115    1.282   .     A
C68    C70     1.394   .     A
C68    H100    1.085   .     S
C68    C283    1.374   .     S
C69    C98     1.394   .     A
C69    C78     1.407   .     S
C69    C97     1.400   .     A
C70    C96     1.400   .     A
C71    N114    1.366   .     A
C71    H101    1.082   .     S
C71    C135    1.418   .     S
C72    N113    1.366   .     A
C72    H102    1.082   .     S
C73    H103    1.081   .     S
C73    N113    1.368   .     A
C74    H104    1.081   .     S
C74    N114    1.368   .     A
C74    C134    1.418   .     S
C75    O121    1.294   .     A
C75    C77     1.454   .     S
C75    O119    1.293   .     A
C76    O122    1.295   .     A
C76    C79     1.458   .     S
C76    O120    1.294   .     A
C77    C82     1.396   .     A
C77    C84     1.386   .     A
C78    O116    1.282   .     A
C78    O118    1.281   .     A
C79    C85     1.391   .     A
C79    C83     1.397   .     A
C80    C82     1.393   .     A
C80    H108    1.081   .     S
C80    C88     1.410   .     A
C81    C90     1.410   .     A
C81    C83     1.393   .     A
C81    H109    1.081   .     S
C82    H107    1.083   .     S
C83    H106    1.083   .     S
C84    H105    1.078   .     S
C84    C86     1.396   .     A
C85    H99     1.076   .     S
C85    C87     1.396   .     A
C86    C88     1.422   .     A
C86    C91     1.419   .     A
C87    C90     1.422   .     A
C87    C92     1.420   .     A
C88    C652    1.401   .     S
C89    H110    1.077   .     S
C89    C94     1.390   .     A
C89    C92     1.417   .     A
C90    C653    1.401   1_554 S
C91    C93     1.416   .     A
C91    C650    1.411   .     S
C92    C649    1.411   1_554 S
C93    C95     1.389   .     A
C93    H111    1.077   .     S
C94    C646    1.401   1_554 S
C95    C648    1.401   .     S
C96    C284    1.374   .     S
C97    C440    1.374   1_545 S
C98    H112    1.085   .     S
C98    C468    1.374   1_545 S
N113   Zn123   2.014   .     S
N114   Zn124   2.014   .     S
O115   Zn123   1.985   .     S
O116   Zn124   1.985   .     S
O117   Zn124   1.986   .     S
O118   Zn123   1.986   .     S
O119   Zn123   1.964   .     S
O120   Zn124   1.964   .     S
O121   Zn124   1.907   .     S
O122   Zn123   1.907   .     S
Br125  C156    1.925   .     S
Br126  C157    1.923   .     S
Br127  C158    1.924   .     S
Br128  C159    1.923   .     S
C129   C132    1.407   .     S
C129   O179    1.281   .     A
C129   O177    1.282   .     A
C130   C132    1.394   .     A
C130   H162    1.085   .     S
C130   C345    1.374   .     S
C131   C160    1.394   .     A
C131   C140    1.407   .     S
C131   C159    1.400   .     A
C132   C158    1.400   .     A
C133   N176    1.366   .     A
C133   H163    1.082   .     S
C133   C11     1.418   1_655 S
C134   N175    1.366   .     A
C134   H164    1.082   .     S
C135   H165    1.081   .     S
C135   N175    1.368   .     A
C136   H166    1.081   .     S
C136   N176    1.368   .     A
C136   C10     1.418   1_655 S
C137   O183    1.294   .     A
C137   C139    1.454   .     S
C137   O181    1.293   .     A
C138   O184    1.295   .     A
C138   C141    1.458   .     S
C138   O182    1.294   .     A
C139   C144    1.396   .     A
C139   C146    1.386   .     A
C140   O178    1.282   .     A
C140   O180    1.281   .     A
C141   C147    1.391   .     A
C141   C145    1.397   .     A
C142   C144    1.393   .     A
C142   H170    1.081   .     S
C142   C150    1.410   .     A
C143   C152    1.410   .     A
C143   C145    1.393   .     A
C143   H171    1.081   .     S
C144   H169    1.083   .     S
C145   H168    1.083   .     S
C146   H167    1.078   .     S
C146   C148    1.396   .     A
C147   H161    1.076   .     S
C147   C149    1.396   .     A
C148   C150    1.422   .     A
C148   C153    1.419   .     A
C149   C152    1.422   .     A
C149   C154    1.420   .     A
C150   C714    1.401   .     S
C151   H172    1.077   .     S
C151   C156    1.390   .     A
C151   C154    1.417   .     A
C152   C715    1.401   1_554 S
C153   C155    1.416   .     A
C153   C712    1.411   .     S
C154   C711    1.411   1_554 S
C155   C157    1.389   .     A
C155   H173    1.077   .     S
C156   C708    1.401   1_554 S
C157   C710    1.401   .     S
C158   C346    1.374   .     S
C159   C502    1.374   1_545 S
C160   H174    1.085   .     S
C160   C530    1.374   1_545 S
N175   Zn185   2.014   .     S
N176   Zn186   2.014   .     S
O177   Zn185   1.985   .     S
O178   Zn186   1.985   .     S
O179   Zn186   1.986   .     S
O180   Zn185   1.986   .     S
O181   Zn185   1.964   .     S
O182   Zn186   1.964   .     S
O183   Zn186   1.907   .     S
O184   Zn185   1.907   .     S
Br187  C218    1.925   .     S
Br188  C219    1.923   .     S
Br189  C220    1.924   .     S
Br190  C221    1.923   .     S
C191   C194    1.407   .     S
C191   O241    1.281   .     A
C191   O239    1.282   .     A
C192   C194    1.394   .     A
C192   H224    1.085   .     S
C192   C407    1.374   .     S
C193   C222    1.394   .     A
C193   C202    1.407   .     S
C193   C221    1.400   .     A
C194   C220    1.400   .     A
C195   N238    1.366   .     A
C195   H225    1.082   .     S
C195   C259    1.418   .     S
C196   N237    1.366   .     A
C196   H226    1.082   .     S
C196   C322    1.418   1_455 S
C197   H227    1.081   .     S
C197   N237    1.368   .     A
C197   C319    1.418   1_455 S
C198   H228    1.081   .     S
C198   N238    1.368   .     A
C198   C258    1.418   .     S
C199   O245    1.294   .     A
C199   C201    1.454   .     S
C199   O243    1.293   .     A
C200   O246    1.295   .     A
C200   C203    1.458   .     S
C200   O244    1.294   .     A
C201   C206    1.396   .     A
C201   C208    1.386   .     A
C202   O240    1.282   .     A
C202   O242    1.281   .     A
C203   C209    1.391   .     A
C203   C207    1.397   .     A
C204   C206    1.393   .     A
C204   H232    1.081   .     S
C204   C212    1.410   .     A
C205   C214    1.410   .     A
C205   C207    1.393   .     A
C205   H233    1.081   .     S
C206   H231    1.083   .     S
C207   H230    1.083   .     S
C208   H229    1.078   .     S
C208   C210    1.396   .     A
C209   H223    1.076   .     S
C209   C211    1.396   .     A
C210   C212    1.422   .     A
C210   C215    1.419   .     A
C211   C214    1.422   .     A
C211   C216    1.420   .     A
C212   C776    1.401   .     S
C213   H234    1.077   .     S
C213   C218    1.390   .     A
C213   C216    1.417   .     A
C214   C777    1.401   1_554 S
C215   C217    1.416   .     A
C215   C774    1.411   .     S
C216   C773    1.411   1_554 S
C217   C219    1.389   .     A
C217   H235    1.077   .     S
C218   C770    1.401   1_554 S
C219   C772    1.401   .     S
C220   C408    1.374   .     S
C222   H236    1.085   .     S
N237   Zn247   2.014   .     S
N238   Zn248   2.014   .     S
O239   Zn247   1.985   .     S
O240   Zn248   1.985   .     S
O241   Zn248   1.986   .     S
O242   Zn247   1.986   .     S
O243   Zn247   1.964   .     S
O244   Zn248   1.964   .     S
O245   Zn248   1.907   .     S
O246   Zn247   1.907   .     S
Br249  C280    1.925   .     S
Br250  C281    1.923   .     S
Br251  C282    1.924   .     S
Br252  C283    1.923   .     S
C253   C256    1.407   .     S
C253   O303    1.281   .     A
C253   O301    1.282   .     A
C254   C256    1.394   .     A
C254   H286    1.085   .     S
C254   C469    1.374   .     S
C255   C284    1.394   .     A
C255   C264    1.407   .     S
C255   C283    1.400   .     A
C256   C282    1.400   .     A
C257   N300    1.366   .     A
C257   H287    1.082   .     S
C257   C321    1.418   .     S
C258   N299    1.366   .     A
C258   H288    1.082   .     S
C259   H289    1.081   .     S
C259   N299    1.368   .     A
C260   H290    1.081   .     S
C260   N300    1.368   .     A
C260   C320    1.418   .     S
C261   O307    1.294   .     A
C261   C263    1.454   .     S
C261   O305    1.293   .     A
C262   O308    1.295   .     A
C262   C265    1.458   .     S
C262   O306    1.294   .     A
C263   C268    1.396   .     A
C263   C270    1.386   .     A
C264   O302    1.282   .     A
C264   O304    1.281   .     A
C265   C271    1.391   .     A
C265   C269    1.397   .     A
C266   C268    1.393   .     A
C266   H294    1.081   .     S
C266   C274    1.410   .     A
C267   C276    1.410   .     A
C267   C269    1.393   .     A
C267   H295    1.081   .     S
C268   H293    1.083   .     S
C269   H292    1.083   .     S
C270   H291    1.078   .     S
C270   C272    1.396   .     A
C271   H285    1.076   .     S
C271   C273    1.396   .     A
C272   C274    1.422   .     A
C272   C277    1.419   .     A
C273   C276    1.422   .     A
C273   C278    1.420   .     A
C274   C838    1.401   .     S
C275   H296    1.077   .     S
C275   C280    1.390   .     A
C275   C278    1.417   .     A
C276   C839    1.401   1_554 S
C277   C279    1.416   .     A
C277   C836    1.411   .     S
C278   C835    1.411   1_554 S
C279   C281    1.389   .     A
C279   H297    1.077   .     S
C280   C832    1.401   1_554 S
C281   C834    1.401   .     S
C282   C470    1.374   .     S
C284   H298    1.085   .     S
N299   Zn309   2.014   .     S
N300   Zn310   2.014   .     S
O301   Zn309   1.985   .     S
O302   Zn310   1.985   .     S
O303   Zn310   1.986   .     S
O304   Zn309   1.986   .     S
O305   Zn309   1.964   .     S
O306   Zn310   1.964   .     S
O307   Zn310   1.907   .     S
O308   Zn309   1.907   .     S
Br311  C342    1.925   .     S
Br312  C343    1.923   .     S
Br313  C344    1.924   .     S
Br314  C345    1.923   .     S
C315   C318    1.407   .     S
C315   O365    1.281   .     A
C315   O363    1.282   .     A
C316   C318    1.394   .     A
C316   H348    1.085   .     S
C316   C531    1.374   .     S
C317   C346    1.394   .     A
C317   C326    1.407   .     S
C317   C345    1.400   .     A
C318   C344    1.400   .     A
C319   N362    1.366   .     A
C319   H349    1.082   .     S
C319   C197    1.418   1_655 S
C320   N361    1.366   .     A
C320   H350    1.082   .     S
C321   H351    1.081   .     S
C321   N361    1.368   .     A
C322   H352    1.081   .     S
C322   N362    1.368   .     A
C322   C196    1.418   1_655 S
C323   O369    1.294   .     A
C323   C325    1.454   .     S
C323   O367    1.293   .     A
C324   O370    1.295   .     A
C324   C327    1.458   .     S
C324   O368    1.294   .     A
C325   C330    1.396   .     A
C325   C332    1.386   .     A
C326   O364    1.282   .     A
C326   O366    1.281   .     A
C327   C333    1.391   .     A
C327   C331    1.397   .     A
C328   C330    1.393   .     A
C328   H356    1.081   .     S
C328   C336    1.410   .     A
C329   C338    1.410   .     A
C329   C331    1.393   .     A
C329   H357    1.081   .     S
C330   H355    1.083   .     S
C331   H354    1.083   .     S
C332   H353    1.078   .     S
C332   C334    1.396   .     A
C333   H347    1.076   .     S
C333   C335    1.396   .     A
C334   C336    1.422   .     A
C334   C339    1.419   .     A
C335   C338    1.422   .     A
C335   C340    1.420   .     A
C336   C900    1.401   .     S
C337   H358    1.077   .     S
C337   C342    1.390   .     A
C337   C340    1.417   .     A
C338   C901    1.401   1_554 S
C339   C341    1.416   .     A
C339   C898    1.411   .     S
C340   C897    1.411   1_554 S
C341   C343    1.389   .     A
C341   H359    1.077   .     S
C342   C894    1.401   1_554 S
C343   C896    1.401   .     S
C344   C532    1.374   .     S
C346   H360    1.085   .     S
N361   Zn371   2.014   .     S
N362   Zn372   2.014   .     S
O363   Zn371   1.985   .     S
O364   Zn372   1.985   .     S
O365   Zn372   1.986   .     S
O366   Zn371   1.986   .     S
O367   Zn371   1.964   .     S
O368   Zn372   1.964   .     S
O369   Zn372   1.907   .     S
O370   Zn371   1.907   .     S
Br373  C404    1.925   .     S
Br374  C405    1.923   .     S
Br375  C406    1.924   .     S
Br376  C407    1.923   .     S
C377   C380    1.407   .     S
C377   O427    1.281   .     A
C377   O425    1.282   .     A
C378   C380    1.394   .     A
C378   H410    1.085   .     S
C378   C35     1.374   1_565 S
C379   C408    1.394   .     A
C379   C388    1.407   .     S
C379   C407    1.400   .     A
C380   C406    1.400   .     A
C381   N424    1.366   .     A
C381   H411    1.082   .     S
C381   C445    1.418   .     S
C382   N423    1.366   .     A
C382   H412    1.082   .     S
C382   C508    1.418   1_455 S
C383   H413    1.081   .     S
C383   N423    1.368   .     A
C383   C505    1.418   1_455 S
C384   H414    1.081   .     S
C384   N424    1.368   .     A
C384   C444    1.418   .     S
C385   O431    1.294   .     A
C385   C387    1.454   .     S
C385   O429    1.293   .     A
C386   O432    1.295   .     A
C386   C389    1.458   .     S
C386   O430    1.294   .     A
C387   C392    1.396   .     A
C387   C394    1.386   .     A
C388   O426    1.282   .     A
C388   O428    1.281   .     A
C389   C395    1.391   .     A
C389   C393    1.397   .     A
C390   C392    1.393   .     A
C390   H418    1.081   .     S
C390   C398    1.410   .     A
C391   C400    1.410   .     A
C391   C393    1.393   .     A
C391   H419    1.081   .     S
C392   H417    1.083   .     S
C393   H416    1.083   .     S
C394   H415    1.078   .     S
C394   C396    1.396   .     A
C395   H409    1.076   .     S
C395   C397    1.396   .     A
C396   C398    1.422   .     A
C396   C401    1.419   .     A
C397   C400    1.422   .     A
C397   C402    1.420   .     A
C398   C962    1.401   .     S
C399   H420    1.077   .     S
C399   C404    1.390   .     A
C399   C402    1.417   .     A
C400   C963    1.401   1_554 S
C401   C403    1.416   .     A
C401   C960    1.411   .     S
C402   C959    1.411   1_554 S
C403   C405    1.389   .     A
C403   H421    1.077   .     S
C404   C956    1.401   1_554 S
C405   C958    1.401   .     S
C406   C36     1.374   1_565 S
C408   H422    1.085   .     S
N423   Zn433   2.014   .     S
N424   Zn434   2.014   .     S
O425   Zn433   1.985   .     S
O426   Zn434   1.985   .     S
O427   Zn434   1.986   .     S
O428   Zn433   1.986   .     S
O429   Zn433   1.964   .     S
O430   Zn434   1.964   .     S
O431   Zn434   1.907   .     S
O432   Zn433   1.907   .     S
Br435  C466    1.925   .     S
Br436  C467    1.923   .     S
Br437  C468    1.924   .     S
Br438  C469    1.923   .     S
C439   C442    1.407   .     S
C439   O489    1.281   .     A
C439   O487    1.282   .     A
C440   C442    1.394   .     A
C440   H472    1.085   .     S
C440   C97     1.374   1_565 S
C441   C470    1.394   .     A
C441   C450    1.407   .     S
C441   C469    1.400   .     A
C442   C468    1.400   .     A
C443   N486    1.366   .     A
C443   H473    1.082   .     S
C443   C507    1.418   .     S
C444   N485    1.366   .     A
C444   H474    1.082   .     S
C445   H475    1.081   .     S
C445   N485    1.368   .     A
C446   H476    1.081   .     S
C446   N486    1.368   .     A
C446   C506    1.418   .     S
C447   O493    1.294   .     A
C447   C449    1.454   .     S
C447   O491    1.293   .     A
C448   O494    1.295   .     A
C448   C451    1.458   .     S
C448   O492    1.294   .     A
C449   C454    1.396   .     A
C449   C456    1.386   .     A
C450   O488    1.282   .     A
C450   O490    1.281   .     A
C451   C457    1.391   .     A
C451   C455    1.397   .     A
C452   C454    1.393   .     A
C452   H480    1.081   .     S
C452   C460    1.410   .     A
C453   C462    1.410   .     A
C453   C455    1.393   .     A
C453   H481    1.081   .     S
C454   H479    1.083   .     S
C455   H478    1.083   .     S
C456   H477    1.078   .     S
C456   C458    1.396   .     A
C457   H471    1.076   .     S
C457   C459    1.396   .     A
C458   C460    1.422   .     A
C458   C463    1.419   .     A
C459   C462    1.422   .     A
C459   C464    1.420   .     A
C460   C1024   1.401   .     S
C461   H482    1.077   .     S
C461   C466    1.390   .     A
C461   C464    1.417   .     A
C462   C1025   1.401   1_554 S
C463   C465    1.416   .     A
C463   C1022   1.411   .     S
C464   C1021   1.411   1_554 S
C465   C467    1.389   .     A
C465   H483    1.077   .     S
C466   C1018   1.401   1_554 S
C467   C1020   1.401   .     S
C468   C98     1.374   1_565 S
C470   H484    1.085   .     S
N485   Zn495   2.014   .     S
N486   Zn496   2.014   .     S
O487   Zn495   1.985   .     S
O488   Zn496   1.985   .     S
O489   Zn496   1.986   .     S
O490   Zn495   1.986   .     S
O491   Zn495   1.964   .     S
O492   Zn496   1.964   .     S
O493   Zn496   1.907   .     S
O494   Zn495   1.907   .     S
Br497  C528    1.925   .     S
Br498  C529    1.923   .     S
Br499  C530    1.924   .     S
Br500  C531    1.923   .     S
C501   C504    1.407   .     S
C501   O551    1.281   .     A
C501   O549    1.282   .     A
C502   C504    1.394   .     A
C502   H534    1.085   .     S
C502   C159    1.374   1_565 S
C503   C532    1.394   .     A
C503   C512    1.407   .     S
C503   C531    1.400   .     A
C504   C530    1.400   .     A
C505   N548    1.366   .     A
C505   H535    1.082   .     S
C505   C383    1.418   1_655 S
C506   N547    1.366   .     A
C506   H536    1.082   .     S
C507   H537    1.081   .     S
C507   N547    1.368   .     A
C508   H538    1.081   .     S
C508   N548    1.368   .     A
C508   C382    1.418   1_655 S
C509   O555    1.294   .     A
C509   C511    1.454   .     S
C509   O553    1.293   .     A
C510   O556    1.295   .     A
C510   C513    1.458   .     S
C510   O554    1.294   .     A
C511   C516    1.396   .     A
C511   C518    1.386   .     A
C512   O550    1.282   .     A
C512   O552    1.281   .     A
C513   C519    1.391   .     A
C513   C517    1.397   .     A
C514   C516    1.393   .     A
C514   H542    1.081   .     S
C514   C522    1.410   .     A
C515   C524    1.410   .     A
C515   C517    1.393   .     A
C515   H543    1.081   .     S
C516   H541    1.083   .     S
C517   H540    1.083   .     S
C518   H539    1.078   .     S
C518   C520    1.396   .     A
C519   H533    1.076   .     S
C519   C521    1.396   .     A
C520   C522    1.422   .     A
C520   C525    1.419   .     A
C521   C524    1.422   .     A
C521   C526    1.420   .     A
C522   C1086   1.401   .     S
C523   H544    1.077   .     S
C523   C528    1.390   .     A
C523   C526    1.417   .     A
C524   C1087   1.401   1_554 S
C525   C527    1.416   .     A
C525   C1084   1.411   .     S
C526   C1083   1.411   1_554 S
C527   C529    1.389   .     A
C527   H545    1.077   .     S
C528   C1080   1.401   1_554 S
C529   C1082   1.401   .     S
C530   C160    1.374   1_565 S
C532   H546    1.085   .     S
N547   Zn557   2.014   .     S
N548   Zn558   2.014   .     S
O549   Zn557   1.985   .     S
O550   Zn558   1.985   .     S
O551   Zn558   1.986   .     S
O552   Zn557   1.986   .     S
O553   Zn557   1.964   .     S
O554   Zn558   1.964   .     S
O555   Zn558   1.907   .     S
O556   Zn557   1.907   .     S
Br559  C590    1.925   .     S
Br560  C591    1.923   .     S
Br561  C592    1.924   .     S
Br562  C593    1.923   .     S
C563   C566    1.407   .     S
C563   O613    1.281   .     A
C563   O611    1.282   .     A
C564   C566    1.394   .     A
C564   H596    1.085   .     S
C564   C779    1.374   .     S
C565   C594    1.394   .     A
C565   C574    1.407   .     S
C565   C593    1.400   .     A
C566   C592    1.400   .     A
C567   N610    1.366   .     A
C567   H597    1.082   .     S
C567   C631    1.418   .     S
C568   N609    1.366   .     A
C568   H598    1.082   .     S
C568   C694    1.418   1_455 S
C569   H599    1.081   .     S
C569   N609    1.368   .     A
C569   C691    1.418   1_455 S
C570   H600    1.081   .     S
C570   N610    1.368   .     A
C570   C630    1.418   .     S
C571   O617    1.294   .     A
C571   C573    1.454   .     S
C571   O615    1.293   .     A
C572   O618    1.295   .     A
C572   C575    1.458   .     S
C572   O616    1.294   .     A
C573   C578    1.396   .     A
C573   C580    1.386   .     A
C574   O612    1.282   .     A
C574   O614    1.281   .     A
C575   C581    1.391   .     A
C575   C579    1.397   .     A
C576   C578    1.393   .     A
C576   H604    1.081   .     S
C576   C584    1.410   .     A
C577   C586    1.410   .     A
C577   C579    1.393   .     A
C577   H605    1.081   .     S
C578   H603    1.083   .     S
C579   H602    1.083   .     S
C580   H601    1.078   .     S
C580   C582    1.396   .     A
C581   H595    1.076   .     S
C581   C583    1.396   .     A
C582   C584    1.422   .     A
C582   C587    1.419   .     A
C583   C586    1.422   .     A
C583   C588    1.420   .     A
C584   C32     1.401   1_556 S
C585   H606    1.077   .     S
C585   C590    1.390   .     A
C585   C588    1.417   .     A
C587   C589    1.416   .     A
C587   C30     1.411   1_556 S
C589   C591    1.389   .     A
C589   H607    1.077   .     S
C591   C28     1.401   1_556 S
C592   C780    1.374   .     S
C593   C936    1.374   1_545 S
C594   H608    1.085   .     S
C594   C964    1.374   1_545 S
N609   Zn619   2.014   .     S
N610   Zn620   2.014   .     S
O611   Zn619   1.985   .     S
O612   Zn620   1.985   .     S
O613   Zn620   1.986   .     S
O614   Zn619   1.986   .     S
O615   Zn619   1.964   .     S
O616   Zn620   1.964   .     S
O617   Zn620   1.907   .     S
O618   Zn619   1.907   .     S
Br621  C652    1.925   .     S
Br622  C653    1.923   .     S
Br623  C654    1.924   .     S
Br624  C655    1.923   .     S
C625   C628    1.407   .     S
C625   O675    1.281   .     A
C625   O673    1.282   .     A
C626   C628    1.394   .     A
C626   H658    1.085   .     S
C626   C841    1.374   .     S
C627   C656    1.394   .     A
C627   C636    1.407   .     S
C627   C655    1.400   .     A
C628   C654    1.400   .     A
C629   N672    1.366   .     A
C629   H659    1.082   .     S
C629   C693    1.418   .     S
C630   N671    1.366   .     A
C630   H660    1.082   .     S
C631   H661    1.081   .     S
C631   N671    1.368   .     A
C632   H662    1.081   .     S
C632   N672    1.368   .     A
C632   C692    1.418   .     S
C633   O679    1.294   .     A
C633   C635    1.454   .     S
C633   O677    1.293   .     A
C634   O680    1.295   .     A
C634   C637    1.458   .     S
C634   O678    1.294   .     A
C635   C640    1.396   .     A
C635   C642    1.386   .     A
C636   O674    1.282   .     A
C636   O676    1.281   .     A
C637   C643    1.391   .     A
C637   C641    1.397   .     A
C638   C640    1.393   .     A
C638   H666    1.081   .     S
C638   C646    1.410   .     A
C639   C648    1.410   .     A
C639   C641    1.393   .     A
C639   H667    1.081   .     S
C640   H665    1.083   .     S
C641   H664    1.083   .     S
C642   H663    1.078   .     S
C642   C644    1.396   .     A
C643   H657    1.076   .     S
C643   C645    1.396   .     A
C644   C646    1.422   .     A
C644   C649    1.419   .     A
C645   C648    1.422   .     A
C645   C650    1.420   .     A
C646   C94     1.401   1_556 S
C647   H668    1.077   .     S
C647   C652    1.390   .     A
C647   C650    1.417   .     A
C649   C651    1.416   .     A
C649   C92     1.411   1_556 S
C651   C653    1.389   .     A
C651   H669    1.077   .     S
C653   C90     1.401   1_556 S
C654   C842    1.374   .     S
C655   C998    1.374   1_545 S
C656   H670    1.085   .     S
C656   C1026   1.374   1_545 S
N671   Zn681   2.014   .     S
N672   Zn682   2.014   .     S
O673   Zn681   1.985   .     S
O674   Zn682   1.985   .     S
O675   Zn682   1.986   .     S
O676   Zn681   1.986   .     S
O677   Zn681   1.964   .     S
O678   Zn682   1.964   .     S
O679   Zn682   1.907   .     S
O680   Zn681   1.907   .     S
Br683  C714    1.925   .     S
Br684  C715    1.923   .     S
Br685  C716    1.924   .     S
Br686  C717    1.923   .     S
C687   C690    1.407   .     S
C687   O737    1.281   .     A
C687   O735    1.282   .     A
C688   C690    1.394   .     A
C688   H720    1.085   .     S
C688   C903    1.374   .     S
C689   C718    1.394   .     A
C689   C698    1.407   .     S
C689   C717    1.400   .     A
C690   C716    1.400   .     A
C691   N734    1.366   .     A
C691   H721    1.082   .     S
C691   C569    1.418   1_655 S
C692   N733    1.366   .     A
C692   H722    1.082   .     S
C693   H723    1.081   .     S
C693   N733    1.368   .     A
C694   H724    1.081   .     S
C694   N734    1.368   .     A
C694   C568    1.418   1_655 S
C695   O741    1.294   .     A
C695   C697    1.454   .     S
C695   O739    1.293   .     A
C696   O742    1.295   .     A
C696   C699    1.458   .     S
C696   O740    1.294   .     A
C697   C702    1.396   .     A
C697   C704    1.386   .     A
C698   O736    1.282   .     A
C698   O738    1.281   .     A
C699   C705    1.391   .     A
C699   C703    1.397   .     A
C700   C702    1.393   .     A
C700   H728    1.081   .     S
C700   C708    1.410   .     A
C701   C710    1.410   .     A
C701   C703    1.393   .     A
C701   H729    1.081   .     S
C702   H727    1.083   .     S
C703   H726    1.083   .     S
C704   H725    1.078   .     S
C704   C706    1.396   .     A
C705   H719    1.076   .     S
C705   C707    1.396   .     A
C706   C708    1.422   .     A
C706   C711    1.419   .     A
C707   C710    1.422   .     A
C707   C712    1.420   .     A
C708   C156    1.401   1_556 S
C709   H730    1.077   .     S
C709   C714    1.390   .     A
C709   C712    1.417   .     A
C711   C713    1.416   .     A
C711   C154    1.411   1_556 S
C713   C715    1.389   .     A
C713   H731    1.077   .     S
C715   C152    1.401   1_556 S
C716   C904    1.374   .     S
C717   C1060   1.374   1_545 S
C718   H732    1.085   .     S
C718   C1088   1.374   1_545 S
N733   Zn743   2.014   .     S
N734   Zn744   2.014   .     S
O735   Zn743   1.985   .     S
O736   Zn744   1.985   .     S
O737   Zn744   1.986   .     S
O738   Zn743   1.986   .     S
O739   Zn743   1.964   .     S
O740   Zn744   1.964   .     S
O741   Zn744   1.907   .     S
O742   Zn743   1.907   .     S
Br745  C776    1.925   .     S
Br746  C777    1.923   .     S
Br747  C778    1.924   .     S
Br748  C779    1.923   .     S
C749   C752    1.407   .     S
C749   O799    1.281   .     A
C749   O797    1.282   .     A
C750   C752    1.394   .     A
C750   H782    1.085   .     S
C750   C965    1.374   .     S
C751   C780    1.394   .     A
C751   C760    1.407   .     S
C751   C779    1.400   .     A
C752   C778    1.400   .     A
C753   N796    1.366   .     A
C753   H783    1.082   .     S
C753   C817    1.418   .     S
C754   N795    1.366   .     A
C754   H784    1.082   .     S
C754   C880    1.418   1_455 S
C755   H785    1.081   .     S
C755   N795    1.368   .     A
C755   C877    1.418   1_455 S
C756   H786    1.081   .     S
C756   N796    1.368   .     A
C756   C816    1.418   .     S
C757   O803    1.294   .     A
C757   C759    1.454   .     S
C757   O801    1.293   .     A
C758   O804    1.295   .     A
C758   C761    1.458   .     S
C758   O802    1.294   .     A
C759   C764    1.396   .     A
C759   C766    1.386   .     A
C760   O798    1.282   .     A
C760   O800    1.281   .     A
C761   C767    1.391   .     A
C761   C765    1.397   .     A
C762   C764    1.393   .     A
C762   H790    1.081   .     S
C762   C770    1.410   .     A
C763   C772    1.410   .     A
C763   C765    1.393   .     A
C763   H791    1.081   .     S
C764   H789    1.083   .     S
C765   H788    1.083   .     S
C766   H787    1.078   .     S
C766   C768    1.396   .     A
C767   H781    1.076   .     S
C767   C769    1.396   .     A
C768   C770    1.422   .     A
C768   C773    1.419   .     A
C769   C772    1.422   .     A
C769   C774    1.420   .     A
C770   C218    1.401   1_556 S
C771   H792    1.077   .     S
C771   C776    1.390   .     A
C771   C774    1.417   .     A
C773   C775    1.416   .     A
C773   C216    1.411   1_556 S
C775   C777    1.389   .     A
C775   H793    1.077   .     S
C777   C214    1.401   1_556 S
C778   C966    1.374   .     S
C780   H794    1.085   .     S
N795   Zn805   2.014   .     S
N796   Zn806   2.014   .     S
O797   Zn805   1.985   .     S
O798   Zn806   1.985   .     S
O799   Zn806   1.986   .     S
O800   Zn805   1.986   .     S
O801   Zn805   1.964   .     S
O802   Zn806   1.964   .     S
O803   Zn806   1.907   .     S
O804   Zn805   1.907   .     S
Br807  C838    1.925   .     S
Br808  C839    1.923   .     S
Br809  C840    1.924   .     S
Br810  C841    1.923   .     S
C811   C814    1.407   .     S
C811   O861    1.281   .     A
C811   O859    1.282   .     A
C812   C814    1.394   .     A
C812   H844    1.085   .     S
C812   C1027   1.374   .     S
C813   C842    1.394   .     A
C813   C822    1.407   .     S
C813   C841    1.400   .     A
C814   C840    1.400   .     A
C815   N858    1.366   .     A
C815   H845    1.082   .     S
C815   C879    1.418   .     S
C816   N857    1.366   .     A
C816   H846    1.082   .     S
C817   H847    1.081   .     S
C817   N857    1.368   .     A
C818   H848    1.081   .     S
C818   N858    1.368   .     A
C818   C878    1.418   .     S
C819   O865    1.294   .     A
C819   C821    1.454   .     S
C819   O863    1.293   .     A
C820   O866    1.295   .     A
C820   C823    1.458   .     S
C820   O864    1.294   .     A
C821   C826    1.396   .     A
C821   C828    1.386   .     A
C822   O860    1.282   .     A
C822   O862    1.281   .     A
C823   C829    1.391   .     A
C823   C827    1.397   .     A
C824   C826    1.393   .     A
C824   H852    1.081   .     S
C824   C832    1.410   .     A
C825   C834    1.410   .     A
C825   C827    1.393   .     A
C825   H853    1.081   .     S
C826   H851    1.083   .     S
C827   H850    1.083   .     S
C828   H849    1.078   .     S
C828   C830    1.396   .     A
C829   H843    1.076   .     S
C829   C831    1.396   .     A
C830   C832    1.422   .     A
C830   C835    1.419   .     A
C831   C834    1.422   .     A
C831   C836    1.420   .     A
C832   C280    1.401   1_556 S
C833   H854    1.077   .     S
C833   C838    1.390   .     A
C833   C836    1.417   .     A
C835   C837    1.416   .     A
C835   C278    1.411   1_556 S
C837   C839    1.389   .     A
C837   H855    1.077   .     S
C839   C276    1.401   1_556 S
C840   C1028   1.374   .     S
C842   H856    1.085   .     S
N857   Zn867   2.014   .     S
N858   Zn868   2.014   .     S
O859   Zn867   1.985   .     S
O860   Zn868   1.985   .     S
O861   Zn868   1.986   .     S
O862   Zn867   1.986   .     S
O863   Zn867   1.964   .     S
O864   Zn868   1.964   .     S
O865   Zn868   1.907   .     S
O866   Zn867   1.907   .     S
Br869  C900    1.925   .     S
Br870  C901    1.923   .     S
Br871  C902    1.924   .     S
Br872  C903    1.923   .     S
C873   C876    1.407   .     S
C873   O923    1.281   .     A
C873   O921    1.282   .     A
C874   C876    1.394   .     A
C874   H906    1.085   .     S
C874   C1089   1.374   .     S
C875   C904    1.394   .     A
C875   C884    1.407   .     S
C875   C903    1.400   .     A
C876   C902    1.400   .     A
C877   N920    1.366   .     A
C877   H907    1.082   .     S
C877   C755    1.418   1_655 S
C878   N919    1.366   .     A
C878   H908    1.082   .     S
C879   H909    1.081   .     S
C879   N919    1.368   .     A
C880   H910    1.081   .     S
C880   N920    1.368   .     A
C880   C754    1.418   1_655 S
C881   O927    1.294   .     A
C881   C883    1.454   .     S
C881   O925    1.293   .     A
C882   O928    1.295   .     A
C882   C885    1.458   .     S
C882   O926    1.294   .     A
C883   C888    1.396   .     A
C883   C890    1.386   .     A
C884   O922    1.282   .     A
C884   O924    1.281   .     A
C885   C891    1.391   .     A
C885   C889    1.397   .     A
C886   C888    1.393   .     A
C886   H914    1.081   .     S
C886   C894    1.410   .     A
C887   C896    1.410   .     A
C887   C889    1.393   .     A
C887   H915    1.081   .     S
C888   H913    1.083   .     S
C889   H912    1.083   .     S
C890   H911    1.078   .     S
C890   C892    1.396   .     A
C891   H905    1.076   .     S
C891   C893    1.396   .     A
C892   C894    1.422   .     A
C892   C897    1.419   .     A
C893   C896    1.422   .     A
C893   C898    1.420   .     A
C894   C342    1.401   1_556 S
C895   H916    1.077   .     S
C895   C900    1.390   .     A
C895   C898    1.417   .     A
C897   C899    1.416   .     A
C897   C340    1.411   1_556 S
C899   C901    1.389   .     A
C899   H917    1.077   .     S
C901   C338    1.401   1_556 S
C902   C1090   1.374   .     S
C904   H918    1.085   .     S
N919   Zn929   2.014   .     S
N920   Zn930   2.014   .     S
O921   Zn929   1.985   .     S
O922   Zn930   1.985   .     S
O923   Zn930   1.986   .     S
O924   Zn929   1.986   .     S
O925   Zn929   1.964   .     S
O926   Zn930   1.964   .     S
O927   Zn930   1.907   .     S
O928   Zn929   1.907   .     S
Br931  C962    1.925   .     S
Br932  C963    1.923   .     S
Br933  C964    1.924   .     S
Br934  C965    1.923   .     S
C935   C938    1.407   .     S
C935   O985    1.281   .     A
C935   O983    1.282   .     A
C936   C938    1.394   .     A
C936   H968    1.085   .     S
C936   C593    1.374   1_565 S
C937   C966    1.394   .     A
C937   C946    1.407   .     S
C937   C965    1.400   .     A
C938   C964    1.400   .     A
C939   N982    1.366   .     A
C939   H969    1.082   .     S
C939   C1003   1.418   .     S
C940   N981    1.366   .     A
C940   H970    1.082   .     S
C940   C1066   1.418   1_455 S
C941   H971    1.081   .     S
C941   N981    1.368   .     A
C941   C1063   1.418   1_455 S
C942   H972    1.081   .     S
C942   N982    1.368   .     A
C942   C1002   1.418   .     S
C943   O989    1.294   .     A
C943   C945    1.454   .     S
C943   O987    1.293   .     A
C944   O990    1.295   .     A
C944   C947    1.458   .     S
C944   O988    1.294   .     A
C945   C950    1.396   .     A
C945   C952    1.386   .     A
C946   O984    1.282   .     A
C946   O986    1.281   .     A
C947   C953    1.391   .     A
C947   C951    1.397   .     A
C948   C950    1.393   .     A
C948   H976    1.081   .     S
C948   C956    1.410   .     A
C949   C958    1.410   .     A
C949   C951    1.393   .     A
C949   H977    1.081   .     S
C950   H975    1.083   .     S
C951   H974    1.083   .     S
C952   H973    1.078   .     S
C952   C954    1.396   .     A
C953   H967    1.076   .     S
C953   C955    1.396   .     A
C954   C956    1.422   .     A
C954   C959    1.419   .     A
C955   C958    1.422   .     A
C955   C960    1.420   .     A
C956   C404    1.401   1_556 S
C957   H978    1.077   .     S
C957   C962    1.390   .     A
C957   C960    1.417   .     A
C959   C961    1.416   .     A
C959   C402    1.411   1_556 S
C961   C963    1.389   .     A
C961   H979    1.077   .     S
C963   C400    1.401   1_556 S
C964   C594    1.374   1_565 S
C966   H980    1.085   .     S
N981   Zn991   2.014   .     S
N982   Zn992   2.014   .     S
O983   Zn991   1.985   .     S
O984   Zn992   1.985   .     S
O985   Zn992   1.986   .     S
O986   Zn991   1.986   .     S
O987   Zn991   1.964   .     S
O988   Zn992   1.964   .     S
O989   Zn992   1.907   .     S
O990   Zn991   1.907   .     S
Br993  C1024   1.925   .     S
Br994  C1025   1.923   .     S
Br995  C1026   1.924   .     S
Br996  C1027   1.923   .     S
C997   C1000   1.407   .     S
C997   O1047   1.281   .     A
C997   O1045   1.282   .     A
C998   C1000   1.394   .     A
C998   H1030   1.085   .     S
C998   C655    1.374   1_565 S
C999   C1028   1.394   .     A
C999   C1008   1.407   .     S
C999   C1027   1.400   .     A
C1000  C1026   1.400   .     A
C1001  N1044   1.366   .     A
C1001  H1031   1.082   .     S
C1001  C1065   1.418   .     S
C1002  N1043   1.366   .     A
C1002  H1032   1.082   .     S
C1003  H1033   1.081   .     S
C1003  N1043   1.368   .     A
C1004  H1034   1.081   .     S
C1004  N1044   1.368   .     A
C1004  C1064   1.418   .     S
C1005  O1051   1.294   .     A
C1005  C1007   1.454   .     S
C1005  O1049   1.293   .     A
C1006  O1052   1.295   .     A
C1006  C1009   1.458   .     S
C1006  O1050   1.294   .     A
C1007  C1012   1.396   .     A
C1007  C1014   1.386   .     A
C1008  O1046   1.282   .     A
C1008  O1048   1.281   .     A
C1009  C1015   1.391   .     A
C1009  C1013   1.397   .     A
C1010  C1012   1.393   .     A
C1010  H1038   1.081   .     S
C1010  C1018   1.410   .     A
C1011  C1020   1.410   .     A
C1011  C1013   1.393   .     A
C1011  H1039   1.081   .     S
C1012  H1037   1.083   .     S
C1013  H1036   1.083   .     S
C1014  H1035   1.078   .     S
C1014  C1016   1.396   .     A
C1015  H1029   1.076   .     S
C1015  C1017   1.396   .     A
C1016  C1018   1.422   .     A
C1016  C1021   1.419   .     A
C1017  C1020   1.422   .     A
C1017  C1022   1.420   .     A
C1018  C466    1.401   1_556 S
C1019  H1040   1.077   .     S
C1019  C1024   1.390   .     A
C1019  C1022   1.417   .     A
C1021  C1023   1.416   .     A
C1021  C464    1.411   1_556 S
C1023  C1025   1.389   .     A
C1023  H1041   1.077   .     S
C1025  C462    1.401   1_556 S
C1026  C656    1.374   1_565 S
C1028  H1042   1.085   .     S
N1043  Zn1053  2.014   .     S
N1044  Zn1054  2.014   .     S
O1045  Zn1053  1.985   .     S
O1046  Zn1054  1.985   .     S
O1047  Zn1054  1.986   .     S
O1048  Zn1053  1.986   .     S
O1049  Zn1053  1.964   .     S
O1050  Zn1054  1.964   .     S
O1051  Zn1054  1.907   .     S
O1052  Zn1053  1.907   .     S
Br1055 C1086   1.925   .     S
Br1056 C1087   1.923   .     S
Br1057 C1088   1.924   .     S
Br1058 C1089   1.923   .     S
C1059  C1062   1.407   .     S
C1059  O1109   1.281   .     A
C1059  O1107   1.282   .     A
C1060  C1062   1.394   .     A
C1060  H1092   1.085   .     S
C1060  C717    1.374   1_565 S
C1061  C1090   1.394   .     A
C1061  C1070   1.407   .     S
C1061  C1089   1.400   .     A
C1062  C1088   1.400   .     A
C1063  N1106   1.366   .     A
C1063  H1093   1.082   .     S
C1063  C941    1.418   1_655 S
C1064  N1105   1.366   .     A
C1064  H1094   1.082   .     S
C1065  H1095   1.081   .     S
C1065  N1105   1.368   .     A
C1066  H1096   1.081   .     S
C1066  N1106   1.368   .     A
C1066  C940    1.418   1_655 S
C1067  O1113   1.294   .     A
C1067  C1069   1.454   .     S
C1067  O1111   1.293   .     A
C1068  O1114   1.295   .     A
C1068  C1071   1.458   .     S
C1068  O1112   1.294   .     A
C1069  C1074   1.396   .     A
C1069  C1076   1.386   .     A
C1070  O1108   1.282   .     A
C1070  O1110   1.281   .     A
C1071  C1077   1.391   .     A
C1071  C1075   1.397   .     A
C1072  C1074   1.393   .     A
C1072  H1100   1.081   .     S
C1072  C1080   1.410   .     A
C1073  C1082   1.410   .     A
C1073  C1075   1.393   .     A
C1073  H1101   1.081   .     S
C1074  H1099   1.083   .     S
C1075  H1098   1.083   .     S
C1076  H1097   1.078   .     S
C1076  C1078   1.396   .     A
C1077  H1091   1.076   .     S
C1077  C1079   1.396   .     A
C1078  C1080   1.422   .     A
C1078  C1083   1.419   .     A
C1079  C1082   1.422   .     A
C1079  C1084   1.420   .     A
C1080  C528    1.401   1_556 S
C1081  H1102   1.077   .     S
C1081  C1086   1.390   .     A
C1081  C1084   1.417   .     A
C1083  C1085   1.416   .     A
C1083  C526    1.411   1_556 S
C1085  C1087   1.389   .     A
C1085  H1103   1.077   .     S
C1087  C524    1.401   1_556 S
C1088  C718    1.374   1_565 S
C1090  H1104   1.085   .     S
N1105  Zn1115  2.014   .     S
N1106  Zn1116  2.014   .     S
O1107  Zn1115  1.985   .     S
O1108  Zn1116  1.985   .     S
O1109  Zn1116  1.986   .     S
O1110  Zn1115  1.986   .     S
O1111  Zn1115  1.964   .     S
O1112  Zn1116  1.964   .     S
O1113  Zn1116  1.907   .     S
O1114  Zn1115  1.907   .     S
