data_str_m3_o2_o10_pcu_sym.7
_audit_creation_date              2020-01-03
_audit_creation_method            'Materials Studio'
_symmetry_space_group_name_H-M    'P1'
_symmetry_Int_Tables_number       1
_symmetry_cell_setting            triclinic
loop_
_symmetry_equiv_pos_as_xyz
  x,y,z
_cell_length_a                    25.7655
_cell_length_b                    29.9316
_cell_length_c                    28.4376
_cell_angle_alpha                 89.2161
_cell_angle_beta                  98.1831
_cell_angle_gamma                 90.6956
loop_
_atom_site_label
_atom_site_type_symbol
_atom_site_fract_x
_atom_site_fract_y
_atom_site_fract_z
_atom_site_U_iso_or_equiv
_atom_site_adp_type
_atom_site_occupancy
C1     C     0.16580   0.16391   0.25018   0.00000  Uiso   1.00
C2     C     0.14911   0.21318   0.44625   0.00000  Uiso   1.00
C3     C     0.16570   0.25063   0.02660   0.00000  Uiso   1.00
C4     C     0.16596   0.25079   0.47337   0.00000  Uiso   1.00
C5     C     0.06710   0.24948   0.23770   0.00000  Uiso   1.00
C6     C     0.26624   0.25033   0.26232   0.00000  Uiso   1.00
C7     C     0.01221   0.24723   0.23125   0.00000  Uiso   1.00
C8     C     0.32116   0.25222   0.26888   0.00000  Uiso   1.00
C9     C     0.17444   0.04551   0.29064   0.00000  Uiso   1.00
C10    C     0.16179   0.45481   0.20828   0.00000  Uiso   1.00
C11    C     0.17987   0.09147   0.29080   0.00000  Uiso   1.00
C12    C     0.16535   0.33619   0.24964   0.00000  Uiso   1.00
C13    C     0.16683   0.40893   0.20845   0.00000  Uiso   1.00
C14    C     0.16040   0.11611   0.25018   0.00000  Uiso   1.00
C15    C     0.15920   0.38409   0.24889   0.00000  Uiso   1.00
C16    C     0.13400   0.09506   0.20992   0.00000  Uiso   1.00
C17    C     0.14407   0.40514   0.28847   0.00000  Uiso   1.00
C18    C     0.12783   0.04916   0.21002   0.00000  Uiso   1.00
C19    C     0.13819   0.45095   0.28803   0.00000  Uiso   1.00
C20    C     0.14882   0.02425   0.25008   0.00000  Uiso   1.00
C21    C     0.14813   0.47595   0.24833   0.00000  Uiso   1.00
C22    C     0.24423   0.34823   0.12217   0.00000  Uiso   1.00
C23    C     0.12873   0.22546   0.04828   0.00000  Uiso   1.00
C24    C     0.07422   0.16944   0.36294   0.00000  Uiso   1.00
C25    C     0.18345   0.28810   0.44886   0.00000  Uiso   1.00
C26    C     0.13018   0.22532   0.09799   0.00000  Uiso   1.00
C27    C     0.18382   0.28690   0.39936   0.00000  Uiso   1.00
C28    C     0.20233   0.27569   0.10627   0.00000  Uiso   1.00
C29    C     0.14876   0.21345   0.39661   0.00000  Uiso   1.00
C30    C     0.20305   0.27537   0.05666   0.00000  Uiso   1.00
H31    H     0.32540   0.24058   0.19581   0.00000  Uiso   1.00
H32    H     0.12682   0.46694   0.31891   0.00000  Uiso   1.00
H33    H     0.09836   0.20623   0.02710   0.00000  Uiso   1.00
H34    H     0.19628   0.31841   0.46754   0.00000  Uiso   1.00
H35    H     0.10167   0.20567   0.11400   0.00000  Uiso   1.00
H36    H     0.19767   0.31583   0.38144   0.00000  Uiso   1.00
H37    H     0.23325   0.29402   0.04190   0.00000  Uiso   1.00
H38    H     0.13642   0.18321   0.46326   0.00000  Uiso   1.00
H39    H     0.27571   0.28664   0.14246   0.00000  Uiso   1.00
H40    H     0.26837   0.35164   0.09289   0.00000  Uiso   1.00
H41    H     0.26381   0.36733   0.15303   0.00000  Uiso   1.00
H42    H     0.00802   0.25865   0.30441   0.00000  Uiso   1.00
H43    H     0.20492   0.36267   0.11044   0.00000  Uiso   1.00
H44    H     0.14901   0.14618   0.38424   0.00000  Uiso   1.00
H45    H     0.05950   0.16176   0.39707   0.00000  Uiso   1.00
H46    H     0.06335   0.14142   0.33815   0.00000  Uiso   1.00
H47    H     0.05528   0.20019   0.34705   0.00000  Uiso   1.00
H48    H     0.19172   0.02653   0.32153   0.00000  Uiso   1.00
H49    H     0.17029   0.47383   0.17755   0.00000  Uiso   1.00
H50    H     0.20033   0.10763   0.32206   0.00000  Uiso   1.00
H51    H     0.17761   0.39309   0.17746   0.00000  Uiso   1.00
H52    H     0.11784   0.11410   0.17867   0.00000  Uiso   1.00
H53    H     0.13680   0.38632   0.31972   0.00000  Uiso   1.00
H54    H     0.10738   0.03306   0.17873   0.00000  Uiso   1.00
N55    N     0.16667   0.24999   0.12624   0.00000  Uiso   1.00
N56    N     0.16667   0.25001   0.37377   0.00000  Uiso   1.00
N57    N     0.23969   0.30176   0.13593   0.00000  Uiso   1.00
N58    N     0.13060   0.17493   0.37061   0.00000  Uiso   1.00
O59    O     0.16667   0.18454   0.28974   0.00000  Uiso   1.00
O60    O     0.16666   0.31547   0.21026   0.00000  Uiso   1.00
O61    O     0.16667   0.18453   0.21026   0.00000  Uiso   1.00
O62    O     0.16666   0.31547   0.28974   0.00000  Uiso   1.00
O63    O     0.09058   0.25000   0.28045   0.00000  Uiso   1.00
O64    O     0.24275   0.25000   0.21956   0.00000  Uiso   1.00
O65    O     0.09058   0.25000   0.20097   0.00000  Uiso   1.00
O66    O     0.24275   0.25001   0.29904   0.00000  Uiso   1.00
Zn67   Zn    0.16667   0.25001   0.30307   0.00000  Uiso   1.00
Zn68   Zn    0.16667   0.25000   0.19693   0.00000  Uiso   1.00
C69    C     0.49913   0.16391   0.25018   0.00000  Uiso   1.00
C70    C     0.48245   0.21318   0.44625   0.00000  Uiso   1.00
C71    C     0.49903   0.25063   0.02660   0.00000  Uiso   1.00
C72    C     0.49929   0.25079   0.47337   0.00000  Uiso   1.00
C73    C     0.40044   0.24948   0.23770   0.00000  Uiso   1.00
C74    C     0.59957   0.25033   0.26232   0.00000  Uiso   1.00
C75    C     0.34555   0.24723   0.23125   0.00000  Uiso   1.00
C76    C     0.65450   0.25222   0.26888   0.00000  Uiso   1.00
C77    C     0.50778   0.04551   0.29064   0.00000  Uiso   1.00
C78    C     0.49513   0.45481   0.20828   0.00000  Uiso   1.00
C79    C     0.51320   0.09147   0.29080   0.00000  Uiso   1.00
C80    C     0.49868   0.33619   0.24964   0.00000  Uiso   1.00
C81    C     0.50016   0.40893   0.20845   0.00000  Uiso   1.00
C82    C     0.49373   0.11611   0.25018   0.00000  Uiso   1.00
C83    C     0.49253   0.38409   0.24889   0.00000  Uiso   1.00
C84    C     0.46734   0.09506   0.20992   0.00000  Uiso   1.00
C85    C     0.47741   0.40514   0.28847   0.00000  Uiso   1.00
C86    C     0.46116   0.04916   0.21002   0.00000  Uiso   1.00
C87    C     0.47152   0.45095   0.28803   0.00000  Uiso   1.00
C88    C     0.48215   0.02425   0.25008   0.00000  Uiso   1.00
C89    C     0.48146   0.47595   0.24833   0.00000  Uiso   1.00
C90    C     0.57757   0.34823   0.12217   0.00000  Uiso   1.00
C91    C     0.46206   0.22546   0.04828   0.00000  Uiso   1.00
C92    C     0.40756   0.16944   0.36294   0.00000  Uiso   1.00
C93    C     0.51678   0.28810   0.44886   0.00000  Uiso   1.00
C94    C     0.46351   0.22532   0.09799   0.00000  Uiso   1.00
C95    C     0.51715   0.28690   0.39936   0.00000  Uiso   1.00
C96    C     0.53567   0.27569   0.10627   0.00000  Uiso   1.00
C97    C     0.48209   0.21345   0.39661   0.00000  Uiso   1.00
C98    C     0.53638   0.27537   0.05666   0.00000  Uiso   1.00
H99    H     0.65873   0.24058   0.19581   0.00000  Uiso   1.00
H100   H     0.46016   0.46694   0.31891   0.00000  Uiso   1.00
H101   H     0.43170   0.20623   0.02710   0.00000  Uiso   1.00
H102   H     0.52961   0.31841   0.46754   0.00000  Uiso   1.00
H103   H     0.43500   0.20567   0.11400   0.00000  Uiso   1.00
H104   H     0.53100   0.31583   0.38144   0.00000  Uiso   1.00
H105   H     0.56658   0.29402   0.04190   0.00000  Uiso   1.00
H106   H     0.46975   0.18321   0.46326   0.00000  Uiso   1.00
H107   H     0.60904   0.28664   0.14246   0.00000  Uiso   1.00
H108   H     0.60170   0.35164   0.09289   0.00000  Uiso   1.00
H109   H     0.59715   0.36733   0.15303   0.00000  Uiso   1.00
H110   H     0.34136   0.25865   0.30441   0.00000  Uiso   1.00
H111   H     0.53826   0.36267   0.11044   0.00000  Uiso   1.00
H112   H     0.48234   0.14618   0.38424   0.00000  Uiso   1.00
H113   H     0.39283   0.16176   0.39707   0.00000  Uiso   1.00
H114   H     0.39668   0.14142   0.33815   0.00000  Uiso   1.00
H115   H     0.38861   0.20019   0.34705   0.00000  Uiso   1.00
H116   H     0.52505   0.02653   0.32153   0.00000  Uiso   1.00
H117   H     0.50362   0.47383   0.17755   0.00000  Uiso   1.00
H118   H     0.53367   0.10763   0.32206   0.00000  Uiso   1.00
H119   H     0.51094   0.39309   0.17746   0.00000  Uiso   1.00
H120   H     0.45117   0.11410   0.17867   0.00000  Uiso   1.00
H121   H     0.47013   0.38632   0.31972   0.00000  Uiso   1.00
H122   H     0.44072   0.03306   0.17873   0.00000  Uiso   1.00
N123   N     0.50000   0.24999   0.12624   0.00000  Uiso   1.00
N124   N     0.50000   0.25001   0.37377   0.00000  Uiso   1.00
N125   N     0.57302   0.30176   0.13593   0.00000  Uiso   1.00
N126   N     0.46393   0.17493   0.37061   0.00000  Uiso   1.00
O127   O     0.50000   0.18454   0.28974   0.00000  Uiso   1.00
O128   O     0.50000   0.31547   0.21026   0.00000  Uiso   1.00
O129   O     0.50000   0.18453   0.21026   0.00000  Uiso   1.00
O130   O     0.50000   0.31547   0.28974   0.00000  Uiso   1.00
O131   O     0.42392   0.25000   0.28045   0.00000  Uiso   1.00
O132   O     0.57608   0.25000   0.21956   0.00000  Uiso   1.00
O133   O     0.42392   0.25000   0.20097   0.00000  Uiso   1.00
O134   O     0.57608   0.25001   0.29904   0.00000  Uiso   1.00
Zn135  Zn    0.50000   0.25001   0.30307   0.00000  Uiso   1.00
Zn136  Zn    0.50000   0.25000   0.19693   0.00000  Uiso   1.00
C137   C     0.83247   0.16391   0.25018   0.00000  Uiso   1.00
C138   C     0.81578   0.21318   0.44625   0.00000  Uiso   1.00
C139   C     0.83237   0.25063   0.02660   0.00000  Uiso   1.00
C140   C     0.83262   0.25079   0.47337   0.00000  Uiso   1.00
C141   C     0.73377   0.24948   0.23770   0.00000  Uiso   1.00
C142   C     0.93291   0.25033   0.26232   0.00000  Uiso   1.00
C143   C     0.67888   0.24723   0.23125   0.00000  Uiso   1.00
C144   C     0.98783   0.25222   0.26888   0.00000  Uiso   1.00
C145   C     0.84111   0.04551   0.29064   0.00000  Uiso   1.00
C146   C     0.82846   0.45481   0.20828   0.00000  Uiso   1.00
C147   C     0.84654   0.09147   0.29080   0.00000  Uiso   1.00
C148   C     0.83202   0.33619   0.24964   0.00000  Uiso   1.00
C149   C     0.83349   0.40893   0.20845   0.00000  Uiso   1.00
C150   C     0.82706   0.11611   0.25018   0.00000  Uiso   1.00
C151   C     0.82587   0.38409   0.24889   0.00000  Uiso   1.00
C152   C     0.80067   0.09506   0.20992   0.00000  Uiso   1.00
C153   C     0.81074   0.40514   0.28847   0.00000  Uiso   1.00
C154   C     0.79450   0.04916   0.21002   0.00000  Uiso   1.00
C155   C     0.80485   0.45095   0.28803   0.00000  Uiso   1.00
C156   C     0.81549   0.02425   0.25008   0.00000  Uiso   1.00
C157   C     0.81480   0.47595   0.24833   0.00000  Uiso   1.00
C158   C     0.91090   0.34823   0.12217   0.00000  Uiso   1.00
C159   C     0.79539   0.22546   0.04828   0.00000  Uiso   1.00
C160   C     0.74089   0.16944   0.36294   0.00000  Uiso   1.00
C161   C     0.85011   0.28810   0.44886   0.00000  Uiso   1.00
C162   C     0.79685   0.22532   0.09799   0.00000  Uiso   1.00
C163   C     0.85049   0.28690   0.39936   0.00000  Uiso   1.00
C164   C     0.86900   0.27569   0.10627   0.00000  Uiso   1.00
C165   C     0.81543   0.21345   0.39661   0.00000  Uiso   1.00
C166   C     0.86971   0.27537   0.05666   0.00000  Uiso   1.00
H167   H     0.99206   0.24058   0.19581   0.00000  Uiso   1.00
H168   H     0.79349   0.46694   0.31891   0.00000  Uiso   1.00
H169   H     0.76503   0.20623   0.02710   0.00000  Uiso   1.00
H170   H     0.86295   0.31841   0.46754   0.00000  Uiso   1.00
H171   H     0.76833   0.20567   0.11400   0.00000  Uiso   1.00
H172   H     0.86433   0.31583   0.38144   0.00000  Uiso   1.00
H173   H     0.89991   0.29402   0.04190   0.00000  Uiso   1.00
H174   H     0.80309   0.18321   0.46326   0.00000  Uiso   1.00
H175   H     0.94237   0.28664   0.14246   0.00000  Uiso   1.00
H176   H     0.93504   0.35164   0.09289   0.00000  Uiso   1.00
H177   H     0.93048   0.36733   0.15303   0.00000  Uiso   1.00
H178   H     0.67469   0.25865   0.30441   0.00000  Uiso   1.00
H179   H     0.87159   0.36267   0.11044   0.00000  Uiso   1.00
H180   H     0.81567   0.14618   0.38424   0.00000  Uiso   1.00
H181   H     0.72617   0.16176   0.39707   0.00000  Uiso   1.00
H182   H     0.73002   0.14142   0.33815   0.00000  Uiso   1.00
H183   H     0.72194   0.20019   0.34705   0.00000  Uiso   1.00
H184   H     0.85838   0.02653   0.32153   0.00000  Uiso   1.00
H185   H     0.83695   0.47383   0.17755   0.00000  Uiso   1.00
H186   H     0.86700   0.10763   0.32206   0.00000  Uiso   1.00
H187   H     0.84428   0.39309   0.17746   0.00000  Uiso   1.00
H188   H     0.78451   0.11410   0.17867   0.00000  Uiso   1.00
H189   H     0.80346   0.38632   0.31972   0.00000  Uiso   1.00
H190   H     0.77405   0.03306   0.17873   0.00000  Uiso   1.00
N191   N     0.83333   0.24999   0.12624   0.00000  Uiso   1.00
N192   N     0.83333   0.25001   0.37377   0.00000  Uiso   1.00
N193   N     0.90636   0.30176   0.13593   0.00000  Uiso   1.00
N194   N     0.79726   0.17493   0.37061   0.00000  Uiso   1.00
O195   O     0.83334   0.18454   0.28974   0.00000  Uiso   1.00
O196   O     0.83333   0.31547   0.21026   0.00000  Uiso   1.00
O197   O     0.83334   0.18453   0.21026   0.00000  Uiso   1.00
O198   O     0.83333   0.31547   0.28974   0.00000  Uiso   1.00
O199   O     0.75725   0.25000   0.28045   0.00000  Uiso   1.00
O200   O     0.90942   0.25000   0.21956   0.00000  Uiso   1.00
O201   O     0.75725   0.25000   0.20097   0.00000  Uiso   1.00
O202   O     0.90942   0.25001   0.29904   0.00000  Uiso   1.00
Zn203  Zn    0.83333   0.25001   0.30307   0.00000  Uiso   1.00
Zn204  Zn    0.83333   0.25000   0.19693   0.00000  Uiso   1.00
C205   C     0.16580   0.66391   0.25018   0.00000  Uiso   1.00
C206   C     0.14911   0.71318   0.44625   0.00000  Uiso   1.00
C207   C     0.16570   0.75063   0.02660   0.00000  Uiso   1.00
C208   C     0.16596   0.75079   0.47337   0.00000  Uiso   1.00
C209   C     0.06710   0.74948   0.23770   0.00000  Uiso   1.00
C210   C     0.26624   0.75033   0.26232   0.00000  Uiso   1.00
C211   C     0.01221   0.74723   0.23125   0.00000  Uiso   1.00
C212   C     0.32116   0.75222   0.26888   0.00000  Uiso   1.00
C213   C     0.17444   0.54551   0.29064   0.00000  Uiso   1.00
C214   C     0.16179   0.95481   0.20828   0.00000  Uiso   1.00
C215   C     0.17987   0.59147   0.29080   0.00000  Uiso   1.00
C216   C     0.16535   0.83619   0.24964   0.00000  Uiso   1.00
C217   C     0.16683   0.90893   0.20845   0.00000  Uiso   1.00
C218   C     0.16040   0.61611   0.25018   0.00000  Uiso   1.00
C219   C     0.15920   0.88409   0.24889   0.00000  Uiso   1.00
C220   C     0.13400   0.59506   0.20992   0.00000  Uiso   1.00
C221   C     0.14407   0.90514   0.28847   0.00000  Uiso   1.00
C222   C     0.12783   0.54916   0.21002   0.00000  Uiso   1.00
C223   C     0.13819   0.95095   0.28803   0.00000  Uiso   1.00
C224   C     0.14882   0.52425   0.25008   0.00000  Uiso   1.00
C225   C     0.14813   0.97595   0.24833   0.00000  Uiso   1.00
C226   C     0.24423   0.84823   0.12217   0.00000  Uiso   1.00
C227   C     0.12873   0.72546   0.04828   0.00000  Uiso   1.00
C228   C     0.07422   0.66944   0.36294   0.00000  Uiso   1.00
C229   C     0.18345   0.78810   0.44886   0.00000  Uiso   1.00
C230   C     0.13018   0.72532   0.09799   0.00000  Uiso   1.00
C231   C     0.18382   0.78690   0.39936   0.00000  Uiso   1.00
C232   C     0.20233   0.77569   0.10627   0.00000  Uiso   1.00
C233   C     0.14876   0.71345   0.39661   0.00000  Uiso   1.00
C234   C     0.20305   0.77537   0.05666   0.00000  Uiso   1.00
H235   H     0.32540   0.74058   0.19581   0.00000  Uiso   1.00
H236   H     0.12682   0.96694   0.31891   0.00000  Uiso   1.00
H237   H     0.09836   0.70623   0.02710   0.00000  Uiso   1.00
H238   H     0.19628   0.81841   0.46754   0.00000  Uiso   1.00
H239   H     0.10167   0.70567   0.11400   0.00000  Uiso   1.00
H240   H     0.19767   0.81583   0.38144   0.00000  Uiso   1.00
H241   H     0.23325   0.79402   0.04190   0.00000  Uiso   1.00
H242   H     0.13642   0.68321   0.46326   0.00000  Uiso   1.00
H243   H     0.27571   0.78664   0.14246   0.00000  Uiso   1.00
H244   H     0.26837   0.85164   0.09289   0.00000  Uiso   1.00
H245   H     0.26381   0.86733   0.15303   0.00000  Uiso   1.00
H246   H     0.00802   0.75865   0.30441   0.00000  Uiso   1.00
H247   H     0.20492   0.86267   0.11044   0.00000  Uiso   1.00
H248   H     0.14901   0.64618   0.38424   0.00000  Uiso   1.00
H249   H     0.05950   0.66176   0.39707   0.00000  Uiso   1.00
H250   H     0.06335   0.64142   0.33815   0.00000  Uiso   1.00
H251   H     0.05528   0.70019   0.34705   0.00000  Uiso   1.00
H252   H     0.19172   0.52653   0.32153   0.00000  Uiso   1.00
H253   H     0.17029   0.97383   0.17755   0.00000  Uiso   1.00
H254   H     0.20033   0.60763   0.32206   0.00000  Uiso   1.00
H255   H     0.17761   0.89309   0.17746   0.00000  Uiso   1.00
H256   H     0.11784   0.61410   0.17867   0.00000  Uiso   1.00
H257   H     0.13680   0.88632   0.31972   0.00000  Uiso   1.00
H258   H     0.10738   0.53306   0.17873   0.00000  Uiso   1.00
N259   N     0.16667   0.74999   0.12624   0.00000  Uiso   1.00
N260   N     0.16667   0.75001   0.37377   0.00000  Uiso   1.00
N261   N     0.23969   0.80176   0.13593   0.00000  Uiso   1.00
N262   N     0.13060   0.67493   0.37061   0.00000  Uiso   1.00
O263   O     0.16667   0.68454   0.28974   0.00000  Uiso   1.00
O264   O     0.16666   0.81547   0.21026   0.00000  Uiso   1.00
O265   O     0.16667   0.68453   0.21026   0.00000  Uiso   1.00
O266   O     0.16666   0.81547   0.28974   0.00000  Uiso   1.00
O267   O     0.09058   0.75000   0.28045   0.00000  Uiso   1.00
O268   O     0.24275   0.75000   0.21956   0.00000  Uiso   1.00
O269   O     0.09058   0.75000   0.20097   0.00000  Uiso   1.00
O270   O     0.24275   0.75001   0.29904   0.00000  Uiso   1.00
Zn271  Zn    0.16667   0.75001   0.30307   0.00000  Uiso   1.00
Zn272  Zn    0.16667   0.75000   0.19693   0.00000  Uiso   1.00
C273   C     0.49913   0.66391   0.25018   0.00000  Uiso   1.00
C274   C     0.48245   0.71318   0.44625   0.00000  Uiso   1.00
C275   C     0.49903   0.75063   0.02660   0.00000  Uiso   1.00
C276   C     0.49929   0.75079   0.47337   0.00000  Uiso   1.00
C277   C     0.40044   0.74948   0.23770   0.00000  Uiso   1.00
C278   C     0.59957   0.75033   0.26232   0.00000  Uiso   1.00
C279   C     0.34555   0.74723   0.23125   0.00000  Uiso   1.00
C280   C     0.65450   0.75222   0.26888   0.00000  Uiso   1.00
C281   C     0.50778   0.54551   0.29064   0.00000  Uiso   1.00
C282   C     0.49513   0.95481   0.20828   0.00000  Uiso   1.00
C283   C     0.51320   0.59147   0.29080   0.00000  Uiso   1.00
C284   C     0.49868   0.83619   0.24964   0.00000  Uiso   1.00
C285   C     0.50016   0.90893   0.20845   0.00000  Uiso   1.00
C286   C     0.49373   0.61611   0.25018   0.00000  Uiso   1.00
C287   C     0.49253   0.88409   0.24889   0.00000  Uiso   1.00
C288   C     0.46734   0.59506   0.20992   0.00000  Uiso   1.00
C289   C     0.47741   0.90514   0.28847   0.00000  Uiso   1.00
C290   C     0.46116   0.54916   0.21002   0.00000  Uiso   1.00
C291   C     0.47152   0.95095   0.28803   0.00000  Uiso   1.00
C292   C     0.48215   0.52425   0.25008   0.00000  Uiso   1.00
C293   C     0.48146   0.97595   0.24833   0.00000  Uiso   1.00
C294   C     0.57757   0.84823   0.12217   0.00000  Uiso   1.00
C295   C     0.46206   0.72546   0.04828   0.00000  Uiso   1.00
C296   C     0.40756   0.66944   0.36294   0.00000  Uiso   1.00
C297   C     0.51678   0.78810   0.44886   0.00000  Uiso   1.00
C298   C     0.46351   0.72532   0.09799   0.00000  Uiso   1.00
C299   C     0.51715   0.78690   0.39936   0.00000  Uiso   1.00
C300   C     0.53567   0.77569   0.10627   0.00000  Uiso   1.00
C301   C     0.48209   0.71345   0.39661   0.00000  Uiso   1.00
C302   C     0.53638   0.77537   0.05666   0.00000  Uiso   1.00
H303   H     0.65873   0.74058   0.19581   0.00000  Uiso   1.00
H304   H     0.46016   0.96694   0.31891   0.00000  Uiso   1.00
H305   H     0.43170   0.70623   0.02710   0.00000  Uiso   1.00
H306   H     0.52961   0.81841   0.46754   0.00000  Uiso   1.00
H307   H     0.43500   0.70567   0.11400   0.00000  Uiso   1.00
H308   H     0.53100   0.81583   0.38144   0.00000  Uiso   1.00
H309   H     0.56658   0.79402   0.04190   0.00000  Uiso   1.00
H310   H     0.46975   0.68321   0.46326   0.00000  Uiso   1.00
H311   H     0.60904   0.78664   0.14246   0.00000  Uiso   1.00
H312   H     0.60170   0.85164   0.09289   0.00000  Uiso   1.00
H313   H     0.59715   0.86733   0.15303   0.00000  Uiso   1.00
H314   H     0.34136   0.75865   0.30441   0.00000  Uiso   1.00
H315   H     0.53826   0.86267   0.11044   0.00000  Uiso   1.00
H316   H     0.48234   0.64618   0.38424   0.00000  Uiso   1.00
H317   H     0.39283   0.66176   0.39707   0.00000  Uiso   1.00
H318   H     0.39668   0.64142   0.33815   0.00000  Uiso   1.00
H319   H     0.38861   0.70019   0.34705   0.00000  Uiso   1.00
H320   H     0.52505   0.52653   0.32153   0.00000  Uiso   1.00
H321   H     0.50362   0.97383   0.17755   0.00000  Uiso   1.00
H322   H     0.53367   0.60763   0.32206   0.00000  Uiso   1.00
H323   H     0.51094   0.89309   0.17746   0.00000  Uiso   1.00
H324   H     0.45117   0.61410   0.17867   0.00000  Uiso   1.00
H325   H     0.47013   0.88632   0.31972   0.00000  Uiso   1.00
H326   H     0.44072   0.53306   0.17873   0.00000  Uiso   1.00
N327   N     0.50000   0.74999   0.12624   0.00000  Uiso   1.00
N328   N     0.50000   0.75001   0.37377   0.00000  Uiso   1.00
N329   N     0.57302   0.80176   0.13593   0.00000  Uiso   1.00
N330   N     0.46393   0.67493   0.37061   0.00000  Uiso   1.00
O331   O     0.50000   0.68454   0.28974   0.00000  Uiso   1.00
O332   O     0.50000   0.81547   0.21026   0.00000  Uiso   1.00
O333   O     0.50000   0.68453   0.21026   0.00000  Uiso   1.00
O334   O     0.50000   0.81547   0.28974   0.00000  Uiso   1.00
O335   O     0.42392   0.75000   0.28045   0.00000  Uiso   1.00
O336   O     0.57608   0.75000   0.21956   0.00000  Uiso   1.00
O337   O     0.42392   0.75000   0.20097   0.00000  Uiso   1.00
O338   O     0.57608   0.75001   0.29904   0.00000  Uiso   1.00
Zn339  Zn    0.50000   0.75001   0.30307   0.00000  Uiso   1.00
Zn340  Zn    0.50000   0.75000   0.19693   0.00000  Uiso   1.00
C341   C     0.83247   0.66391   0.25018   0.00000  Uiso   1.00
C342   C     0.81578   0.71318   0.44625   0.00000  Uiso   1.00
C343   C     0.83237   0.75063   0.02660   0.00000  Uiso   1.00
C344   C     0.83262   0.75079   0.47337   0.00000  Uiso   1.00
C345   C     0.73377   0.74948   0.23770   0.00000  Uiso   1.00
C346   C     0.93291   0.75033   0.26232   0.00000  Uiso   1.00
C347   C     0.67888   0.74723   0.23125   0.00000  Uiso   1.00
C348   C     0.98783   0.75222   0.26888   0.00000  Uiso   1.00
C349   C     0.84111   0.54551   0.29064   0.00000  Uiso   1.00
C350   C     0.82846   0.95481   0.20828   0.00000  Uiso   1.00
C351   C     0.84654   0.59147   0.29080   0.00000  Uiso   1.00
C352   C     0.83202   0.83619   0.24964   0.00000  Uiso   1.00
C353   C     0.83349   0.90893   0.20845   0.00000  Uiso   1.00
C354   C     0.82706   0.61611   0.25018   0.00000  Uiso   1.00
C355   C     0.82587   0.88409   0.24889   0.00000  Uiso   1.00
C356   C     0.80067   0.59506   0.20992   0.00000  Uiso   1.00
C357   C     0.81074   0.90514   0.28847   0.00000  Uiso   1.00
C358   C     0.79450   0.54916   0.21002   0.00000  Uiso   1.00
C359   C     0.80485   0.95095   0.28803   0.00000  Uiso   1.00
C360   C     0.81549   0.52425   0.25008   0.00000  Uiso   1.00
C361   C     0.81480   0.97595   0.24833   0.00000  Uiso   1.00
C362   C     0.91090   0.84823   0.12217   0.00000  Uiso   1.00
C363   C     0.79539   0.72546   0.04828   0.00000  Uiso   1.00
C364   C     0.74089   0.66944   0.36294   0.00000  Uiso   1.00
C365   C     0.85011   0.78810   0.44886   0.00000  Uiso   1.00
C366   C     0.79685   0.72532   0.09799   0.00000  Uiso   1.00
C367   C     0.85049   0.78690   0.39936   0.00000  Uiso   1.00
C368   C     0.86900   0.77569   0.10627   0.00000  Uiso   1.00
C369   C     0.81543   0.71345   0.39661   0.00000  Uiso   1.00
C370   C     0.86971   0.77537   0.05666   0.00000  Uiso   1.00
H371   H     0.99206   0.74058   0.19581   0.00000  Uiso   1.00
H372   H     0.79349   0.96694   0.31891   0.00000  Uiso   1.00
H373   H     0.76503   0.70623   0.02710   0.00000  Uiso   1.00
H374   H     0.86295   0.81841   0.46754   0.00000  Uiso   1.00
H375   H     0.76833   0.70567   0.11400   0.00000  Uiso   1.00
H376   H     0.86433   0.81583   0.38144   0.00000  Uiso   1.00
H377   H     0.89991   0.79402   0.04190   0.00000  Uiso   1.00
H378   H     0.80309   0.68321   0.46326   0.00000  Uiso   1.00
H379   H     0.94237   0.78664   0.14246   0.00000  Uiso   1.00
H380   H     0.93504   0.85164   0.09289   0.00000  Uiso   1.00
H381   H     0.93048   0.86733   0.15303   0.00000  Uiso   1.00
H382   H     0.67469   0.75865   0.30441   0.00000  Uiso   1.00
H383   H     0.87159   0.86267   0.11044   0.00000  Uiso   1.00
H384   H     0.81567   0.64618   0.38424   0.00000  Uiso   1.00
H385   H     0.72617   0.66176   0.39707   0.00000  Uiso   1.00
H386   H     0.73002   0.64142   0.33815   0.00000  Uiso   1.00
H387   H     0.72194   0.70019   0.34705   0.00000  Uiso   1.00
H388   H     0.85838   0.52653   0.32153   0.00000  Uiso   1.00
H389   H     0.83695   0.97383   0.17755   0.00000  Uiso   1.00
H390   H     0.86700   0.60763   0.32206   0.00000  Uiso   1.00
H391   H     0.84428   0.89309   0.17746   0.00000  Uiso   1.00
H392   H     0.78451   0.61410   0.17867   0.00000  Uiso   1.00
H393   H     0.80346   0.88632   0.31972   0.00000  Uiso   1.00
H394   H     0.77405   0.53306   0.17873   0.00000  Uiso   1.00
N395   N     0.83333   0.74999   0.12624   0.00000  Uiso   1.00
N396   N     0.83333   0.75001   0.37377   0.00000  Uiso   1.00
N397   N     0.90636   0.80176   0.13593   0.00000  Uiso   1.00
N398   N     0.79726   0.67493   0.37061   0.00000  Uiso   1.00
O399   O     0.83334   0.68454   0.28974   0.00000  Uiso   1.00
O400   O     0.83333   0.81547   0.21026   0.00000  Uiso   1.00
O401   O     0.83334   0.68453   0.21026   0.00000  Uiso   1.00
O402   O     0.83333   0.81547   0.28974   0.00000  Uiso   1.00
O403   O     0.75725   0.75000   0.28045   0.00000  Uiso   1.00
O404   O     0.90942   0.75000   0.21956   0.00000  Uiso   1.00
O405   O     0.75725   0.75000   0.20097   0.00000  Uiso   1.00
O406   O     0.90942   0.75001   0.29904   0.00000  Uiso   1.00
Zn407  Zn    0.83333   0.75001   0.30307   0.00000  Uiso   1.00
Zn408  Zn    0.83333   0.75000   0.19693   0.00000  Uiso   1.00
C409   C     0.16580   0.16391   0.75018   0.00000  Uiso   1.00
C410   C     0.14911   0.21318   0.94625   0.00000  Uiso   1.00
C411   C     0.16570   0.25063   0.52660   0.00000  Uiso   1.00
C412   C     0.16596   0.25079   0.97337   0.00000  Uiso   1.00
C413   C     0.06710   0.24948   0.73770   0.00000  Uiso   1.00
C414   C     0.26624   0.25033   0.76232   0.00000  Uiso   1.00
C415   C     0.01221   0.24723   0.73125   0.00000  Uiso   1.00
C416   C     0.32116   0.25222   0.76888   0.00000  Uiso   1.00
C417   C     0.17444   0.04551   0.79064   0.00000  Uiso   1.00
C418   C     0.16179   0.45481   0.70828   0.00000  Uiso   1.00
C419   C     0.17987   0.09147   0.79080   0.00000  Uiso   1.00
C420   C     0.16535   0.33619   0.74964   0.00000  Uiso   1.00
C421   C     0.16683   0.40893   0.70845   0.00000  Uiso   1.00
C422   C     0.16040   0.11611   0.75018   0.00000  Uiso   1.00
C423   C     0.15920   0.38409   0.74889   0.00000  Uiso   1.00
C424   C     0.13400   0.09506   0.70992   0.00000  Uiso   1.00
C425   C     0.14407   0.40514   0.78847   0.00000  Uiso   1.00
C426   C     0.12783   0.04916   0.71002   0.00000  Uiso   1.00
C427   C     0.13819   0.45095   0.78803   0.00000  Uiso   1.00
C428   C     0.14882   0.02425   0.75008   0.00000  Uiso   1.00
C429   C     0.14813   0.47595   0.74833   0.00000  Uiso   1.00
C430   C     0.24423   0.34823   0.62217   0.00000  Uiso   1.00
C431   C     0.12873   0.22546   0.54828   0.00000  Uiso   1.00
C432   C     0.07422   0.16944   0.86294   0.00000  Uiso   1.00
C433   C     0.18345   0.28810   0.94886   0.00000  Uiso   1.00
C434   C     0.13018   0.22532   0.59799   0.00000  Uiso   1.00
C435   C     0.18382   0.28690   0.89936   0.00000  Uiso   1.00
C436   C     0.20233   0.27569   0.60627   0.00000  Uiso   1.00
C437   C     0.14876   0.21345   0.89661   0.00000  Uiso   1.00
C438   C     0.20305   0.27537   0.55666   0.00000  Uiso   1.00
H439   H     0.32540   0.24058   0.69581   0.00000  Uiso   1.00
H440   H     0.12682   0.46694   0.81891   0.00000  Uiso   1.00
H441   H     0.09836   0.20623   0.52710   0.00000  Uiso   1.00
H442   H     0.19628   0.31841   0.96754   0.00000  Uiso   1.00
H443   H     0.10167   0.20567   0.61400   0.00000  Uiso   1.00
H444   H     0.19767   0.31583   0.88144   0.00000  Uiso   1.00
H445   H     0.23325   0.29402   0.54190   0.00000  Uiso   1.00
H446   H     0.13642   0.18321   0.96326   0.00000  Uiso   1.00
H447   H     0.27571   0.28664   0.64246   0.00000  Uiso   1.00
H448   H     0.26837   0.35164   0.59289   0.00000  Uiso   1.00
H449   H     0.26381   0.36733   0.65303   0.00000  Uiso   1.00
H450   H     0.00802   0.25865   0.80441   0.00000  Uiso   1.00
H451   H     0.20492   0.36267   0.61044   0.00000  Uiso   1.00
H452   H     0.14901   0.14618   0.88424   0.00000  Uiso   1.00
H453   H     0.05950   0.16176   0.89707   0.00000  Uiso   1.00
H454   H     0.06335   0.14142   0.83815   0.00000  Uiso   1.00
H455   H     0.05528   0.20019   0.84705   0.00000  Uiso   1.00
H456   H     0.19172   0.02653   0.82153   0.00000  Uiso   1.00
H457   H     0.17029   0.47383   0.67755   0.00000  Uiso   1.00
H458   H     0.20033   0.10763   0.82206   0.00000  Uiso   1.00
H459   H     0.17761   0.39309   0.67746   0.00000  Uiso   1.00
H460   H     0.11784   0.11410   0.67867   0.00000  Uiso   1.00
H461   H     0.13680   0.38632   0.81972   0.00000  Uiso   1.00
H462   H     0.10738   0.03306   0.67873   0.00000  Uiso   1.00
N463   N     0.16667   0.24999   0.62624   0.00000  Uiso   1.00
N464   N     0.16667   0.25001   0.87377   0.00000  Uiso   1.00
N465   N     0.23969   0.30176   0.63593   0.00000  Uiso   1.00
N466   N     0.13060   0.17493   0.87061   0.00000  Uiso   1.00
O467   O     0.16667   0.18454   0.78974   0.00000  Uiso   1.00
O468   O     0.16666   0.31547   0.71026   0.00000  Uiso   1.00
O469   O     0.16667   0.18453   0.71026   0.00000  Uiso   1.00
O470   O     0.16666   0.31547   0.78974   0.00000  Uiso   1.00
O471   O     0.09058   0.25000   0.78045   0.00000  Uiso   1.00
O472   O     0.24275   0.25000   0.71956   0.00000  Uiso   1.00
O473   O     0.09058   0.25000   0.70097   0.00000  Uiso   1.00
O474   O     0.24275   0.25001   0.79904   0.00000  Uiso   1.00
Zn475  Zn    0.16667   0.25001   0.80307   0.00000  Uiso   1.00
Zn476  Zn    0.16667   0.25000   0.69693   0.00000  Uiso   1.00
C477   C     0.49913   0.16391   0.75018   0.00000  Uiso   1.00
C478   C     0.48245   0.21318   0.94625   0.00000  Uiso   1.00
C479   C     0.49903   0.25063   0.52660   0.00000  Uiso   1.00
C480   C     0.49929   0.25079   0.97337   0.00000  Uiso   1.00
C481   C     0.40044   0.24948   0.73770   0.00000  Uiso   1.00
C482   C     0.59957   0.25033   0.76232   0.00000  Uiso   1.00
C483   C     0.34555   0.24723   0.73125   0.00000  Uiso   1.00
C484   C     0.65450   0.25222   0.76888   0.00000  Uiso   1.00
C485   C     0.50778   0.04551   0.79064   0.00000  Uiso   1.00
C486   C     0.49513   0.45481   0.70828   0.00000  Uiso   1.00
C487   C     0.51320   0.09147   0.79080   0.00000  Uiso   1.00
C488   C     0.49868   0.33619   0.74964   0.00000  Uiso   1.00
C489   C     0.50016   0.40893   0.70845   0.00000  Uiso   1.00
C490   C     0.49373   0.11611   0.75018   0.00000  Uiso   1.00
C491   C     0.49253   0.38409   0.74889   0.00000  Uiso   1.00
C492   C     0.46734   0.09506   0.70992   0.00000  Uiso   1.00
C493   C     0.47741   0.40514   0.78847   0.00000  Uiso   1.00
C494   C     0.46116   0.04916   0.71002   0.00000  Uiso   1.00
C495   C     0.47152   0.45095   0.78803   0.00000  Uiso   1.00
C496   C     0.48215   0.02425   0.75008   0.00000  Uiso   1.00
C497   C     0.48146   0.47595   0.74833   0.00000  Uiso   1.00
C498   C     0.57757   0.34823   0.62217   0.00000  Uiso   1.00
C499   C     0.46206   0.22546   0.54828   0.00000  Uiso   1.00
C500   C     0.40756   0.16944   0.86294   0.00000  Uiso   1.00
C501   C     0.51678   0.28810   0.94886   0.00000  Uiso   1.00
C502   C     0.46351   0.22532   0.59799   0.00000  Uiso   1.00
C503   C     0.51715   0.28690   0.89936   0.00000  Uiso   1.00
C504   C     0.53567   0.27569   0.60627   0.00000  Uiso   1.00
C505   C     0.48209   0.21345   0.89661   0.00000  Uiso   1.00
C506   C     0.53638   0.27537   0.55666   0.00000  Uiso   1.00
H507   H     0.65873   0.24058   0.69581   0.00000  Uiso   1.00
H508   H     0.46016   0.46694   0.81891   0.00000  Uiso   1.00
H509   H     0.43170   0.20623   0.52710   0.00000  Uiso   1.00
H510   H     0.52961   0.31841   0.96754   0.00000  Uiso   1.00
H511   H     0.43500   0.20567   0.61400   0.00000  Uiso   1.00
H512   H     0.53100   0.31583   0.88144   0.00000  Uiso   1.00
H513   H     0.56658   0.29402   0.54190   0.00000  Uiso   1.00
H514   H     0.46975   0.18321   0.96326   0.00000  Uiso   1.00
H515   H     0.60904   0.28664   0.64246   0.00000  Uiso   1.00
H516   H     0.60170   0.35164   0.59289   0.00000  Uiso   1.00
H517   H     0.59715   0.36733   0.65303   0.00000  Uiso   1.00
H518   H     0.34136   0.25865   0.80441   0.00000  Uiso   1.00
H519   H     0.53826   0.36267   0.61044   0.00000  Uiso   1.00
H520   H     0.48234   0.14618   0.88424   0.00000  Uiso   1.00
H521   H     0.39283   0.16176   0.89707   0.00000  Uiso   1.00
H522   H     0.39668   0.14142   0.83815   0.00000  Uiso   1.00
H523   H     0.38861   0.20019   0.84705   0.00000  Uiso   1.00
H524   H     0.52505   0.02653   0.82153   0.00000  Uiso   1.00
H525   H     0.50362   0.47383   0.67755   0.00000  Uiso   1.00
H526   H     0.53367   0.10763   0.82206   0.00000  Uiso   1.00
H527   H     0.51094   0.39309   0.67746   0.00000  Uiso   1.00
H528   H     0.45117   0.11410   0.67867   0.00000  Uiso   1.00
H529   H     0.47013   0.38632   0.81972   0.00000  Uiso   1.00
H530   H     0.44072   0.03306   0.67873   0.00000  Uiso   1.00
N531   N     0.50000   0.24999   0.62624   0.00000  Uiso   1.00
N532   N     0.50000   0.25001   0.87377   0.00000  Uiso   1.00
N533   N     0.57302   0.30176   0.63593   0.00000  Uiso   1.00
N534   N     0.46393   0.17493   0.87061   0.00000  Uiso   1.00
O535   O     0.50000   0.18454   0.78974   0.00000  Uiso   1.00
O536   O     0.50000   0.31547   0.71026   0.00000  Uiso   1.00
O537   O     0.50000   0.18453   0.71026   0.00000  Uiso   1.00
O538   O     0.50000   0.31547   0.78974   0.00000  Uiso   1.00
O539   O     0.42392   0.25000   0.78045   0.00000  Uiso   1.00
O540   O     0.57608   0.25000   0.71956   0.00000  Uiso   1.00
O541   O     0.42392   0.25000   0.70097   0.00000  Uiso   1.00
O542   O     0.57608   0.25001   0.79904   0.00000  Uiso   1.00
Zn543  Zn    0.50000   0.25001   0.80307   0.00000  Uiso   1.00
Zn544  Zn    0.50000   0.25000   0.69693   0.00000  Uiso   1.00
C545   C     0.83247   0.16391   0.75018   0.00000  Uiso   1.00
C546   C     0.81578   0.21318   0.94625   0.00000  Uiso   1.00
C547   C     0.83237   0.25063   0.52660   0.00000  Uiso   1.00
C548   C     0.83262   0.25079   0.97337   0.00000  Uiso   1.00
C549   C     0.73377   0.24948   0.73770   0.00000  Uiso   1.00
C550   C     0.93291   0.25033   0.76232   0.00000  Uiso   1.00
C551   C     0.67888   0.24723   0.73125   0.00000  Uiso   1.00
C552   C     0.98783   0.25222   0.76888   0.00000  Uiso   1.00
C553   C     0.84111   0.04551   0.79064   0.00000  Uiso   1.00
C554   C     0.82846   0.45481   0.70828   0.00000  Uiso   1.00
C555   C     0.84654   0.09147   0.79080   0.00000  Uiso   1.00
C556   C     0.83202   0.33619   0.74964   0.00000  Uiso   1.00
C557   C     0.83349   0.40893   0.70845   0.00000  Uiso   1.00
C558   C     0.82706   0.11611   0.75018   0.00000  Uiso   1.00
C559   C     0.82587   0.38409   0.74889   0.00000  Uiso   1.00
C560   C     0.80067   0.09506   0.70992   0.00000  Uiso   1.00
C561   C     0.81074   0.40514   0.78847   0.00000  Uiso   1.00
C562   C     0.79450   0.04916   0.71002   0.00000  Uiso   1.00
C563   C     0.80485   0.45095   0.78803   0.00000  Uiso   1.00
C564   C     0.81549   0.02425   0.75008   0.00000  Uiso   1.00
C565   C     0.81480   0.47595   0.74833   0.00000  Uiso   1.00
C566   C     0.91090   0.34823   0.62217   0.00000  Uiso   1.00
C567   C     0.79539   0.22546   0.54828   0.00000  Uiso   1.00
C568   C     0.74089   0.16944   0.86294   0.00000  Uiso   1.00
C569   C     0.85011   0.28810   0.94886   0.00000  Uiso   1.00
C570   C     0.79685   0.22532   0.59799   0.00000  Uiso   1.00
C571   C     0.85049   0.28690   0.89936   0.00000  Uiso   1.00
C572   C     0.86900   0.27569   0.60627   0.00000  Uiso   1.00
C573   C     0.81543   0.21345   0.89661   0.00000  Uiso   1.00
C574   C     0.86971   0.27537   0.55666   0.00000  Uiso   1.00
H575   H     0.99206   0.24058   0.69581   0.00000  Uiso   1.00
H576   H     0.79349   0.46694   0.81891   0.00000  Uiso   1.00
H577   H     0.76503   0.20623   0.52710   0.00000  Uiso   1.00
H578   H     0.86295   0.31841   0.96754   0.00000  Uiso   1.00
H579   H     0.76833   0.20567   0.61400   0.00000  Uiso   1.00
H580   H     0.86433   0.31583   0.88144   0.00000  Uiso   1.00
H581   H     0.89991   0.29402   0.54190   0.00000  Uiso   1.00
H582   H     0.80309   0.18321   0.96326   0.00000  Uiso   1.00
H583   H     0.94237   0.28664   0.64246   0.00000  Uiso   1.00
H584   H     0.93504   0.35164   0.59289   0.00000  Uiso   1.00
H585   H     0.93048   0.36733   0.65303   0.00000  Uiso   1.00
H586   H     0.67469   0.25865   0.80441   0.00000  Uiso   1.00
H587   H     0.87159   0.36267   0.61044   0.00000  Uiso   1.00
H588   H     0.81567   0.14618   0.88424   0.00000  Uiso   1.00
H589   H     0.72617   0.16176   0.89707   0.00000  Uiso   1.00
H590   H     0.73002   0.14142   0.83815   0.00000  Uiso   1.00
H591   H     0.72194   0.20019   0.84705   0.00000  Uiso   1.00
H592   H     0.85838   0.02653   0.82153   0.00000  Uiso   1.00
H593   H     0.83695   0.47383   0.67755   0.00000  Uiso   1.00
H594   H     0.86700   0.10763   0.82206   0.00000  Uiso   1.00
H595   H     0.84428   0.39309   0.67746   0.00000  Uiso   1.00
H596   H     0.78451   0.11410   0.67867   0.00000  Uiso   1.00
H597   H     0.80346   0.38632   0.81972   0.00000  Uiso   1.00
H598   H     0.77405   0.03306   0.67873   0.00000  Uiso   1.00
N599   N     0.83333   0.24999   0.62624   0.00000  Uiso   1.00
N600   N     0.83333   0.25001   0.87377   0.00000  Uiso   1.00
N601   N     0.90636   0.30176   0.63593   0.00000  Uiso   1.00
N602   N     0.79726   0.17493   0.87061   0.00000  Uiso   1.00
O603   O     0.83334   0.18454   0.78974   0.00000  Uiso   1.00
O604   O     0.83333   0.31547   0.71026   0.00000  Uiso   1.00
O605   O     0.83334   0.18453   0.71026   0.00000  Uiso   1.00
O606   O     0.83333   0.31547   0.78974   0.00000  Uiso   1.00
O607   O     0.75725   0.25000   0.78045   0.00000  Uiso   1.00
O608   O     0.90942   0.25000   0.71956   0.00000  Uiso   1.00
O609   O     0.75725   0.25000   0.70097   0.00000  Uiso   1.00
O610   O     0.90942   0.25001   0.79904   0.00000  Uiso   1.00
Zn611  Zn    0.83333   0.25001   0.80307   0.00000  Uiso   1.00
Zn612  Zn    0.83333   0.25000   0.69693   0.00000  Uiso   1.00
C613   C     0.16580   0.66391   0.75018   0.00000  Uiso   1.00
C614   C     0.14911   0.71318   0.94625   0.00000  Uiso   1.00
C615   C     0.16570   0.75063   0.52660   0.00000  Uiso   1.00
C616   C     0.16596   0.75079   0.97337   0.00000  Uiso   1.00
C617   C     0.06710   0.74948   0.73770   0.00000  Uiso   1.00
C618   C     0.26624   0.75033   0.76232   0.00000  Uiso   1.00
C619   C     0.01221   0.74723   0.73125   0.00000  Uiso   1.00
C620   C     0.32116   0.75222   0.76888   0.00000  Uiso   1.00
C621   C     0.17444   0.54551   0.79064   0.00000  Uiso   1.00
C622   C     0.16179   0.95481   0.70828   0.00000  Uiso   1.00
C623   C     0.17987   0.59147   0.79080   0.00000  Uiso   1.00
C624   C     0.16535   0.83619   0.74964   0.00000  Uiso   1.00
C625   C     0.16683   0.90893   0.70845   0.00000  Uiso   1.00
C626   C     0.16040   0.61611   0.75018   0.00000  Uiso   1.00
C627   C     0.15920   0.88409   0.74889   0.00000  Uiso   1.00
C628   C     0.13400   0.59506   0.70992   0.00000  Uiso   1.00
C629   C     0.14407   0.90514   0.78847   0.00000  Uiso   1.00
C630   C     0.12783   0.54916   0.71002   0.00000  Uiso   1.00
C631   C     0.13819   0.95095   0.78803   0.00000  Uiso   1.00
C632   C     0.14882   0.52425   0.75008   0.00000  Uiso   1.00
C633   C     0.14813   0.97595   0.74833   0.00000  Uiso   1.00
C634   C     0.24423   0.84823   0.62217   0.00000  Uiso   1.00
C635   C     0.12873   0.72546   0.54828   0.00000  Uiso   1.00
C636   C     0.07422   0.66944   0.86294   0.00000  Uiso   1.00
C637   C     0.18345   0.78810   0.94886   0.00000  Uiso   1.00
C638   C     0.13018   0.72532   0.59799   0.00000  Uiso   1.00
C639   C     0.18382   0.78690   0.89936   0.00000  Uiso   1.00
C640   C     0.20233   0.77569   0.60627   0.00000  Uiso   1.00
C641   C     0.14876   0.71345   0.89661   0.00000  Uiso   1.00
C642   C     0.20305   0.77537   0.55666   0.00000  Uiso   1.00
H643   H     0.32540   0.74058   0.69581   0.00000  Uiso   1.00
H644   H     0.12682   0.96694   0.81891   0.00000  Uiso   1.00
H645   H     0.09836   0.70623   0.52710   0.00000  Uiso   1.00
H646   H     0.19628   0.81841   0.96754   0.00000  Uiso   1.00
H647   H     0.10167   0.70567   0.61400   0.00000  Uiso   1.00
H648   H     0.19767   0.81583   0.88144   0.00000  Uiso   1.00
H649   H     0.23325   0.79402   0.54190   0.00000  Uiso   1.00
H650   H     0.13642   0.68321   0.96326   0.00000  Uiso   1.00
H651   H     0.27571   0.78664   0.64246   0.00000  Uiso   1.00
H652   H     0.26837   0.85164   0.59289   0.00000  Uiso   1.00
H653   H     0.26381   0.86733   0.65303   0.00000  Uiso   1.00
H654   H     0.00802   0.75865   0.80441   0.00000  Uiso   1.00
H655   H     0.20492   0.86267   0.61044   0.00000  Uiso   1.00
H656   H     0.14901   0.64618   0.88424   0.00000  Uiso   1.00
H657   H     0.05950   0.66176   0.89707   0.00000  Uiso   1.00
H658   H     0.06335   0.64142   0.83815   0.00000  Uiso   1.00
H659   H     0.05528   0.70019   0.84705   0.00000  Uiso   1.00
H660   H     0.19172   0.52653   0.82153   0.00000  Uiso   1.00
H661   H     0.17029   0.97383   0.67755   0.00000  Uiso   1.00
H662   H     0.20033   0.60763   0.82206   0.00000  Uiso   1.00
H663   H     0.17761   0.89309   0.67746   0.00000  Uiso   1.00
H664   H     0.11784   0.61410   0.67867   0.00000  Uiso   1.00
H665   H     0.13680   0.88632   0.81972   0.00000  Uiso   1.00
H666   H     0.10738   0.53306   0.67873   0.00000  Uiso   1.00
N667   N     0.16667   0.74999   0.62624   0.00000  Uiso   1.00
N668   N     0.16667   0.75001   0.87377   0.00000  Uiso   1.00
N669   N     0.23969   0.80176   0.63593   0.00000  Uiso   1.00
N670   N     0.13060   0.67493   0.87061   0.00000  Uiso   1.00
O671   O     0.16667   0.68454   0.78974   0.00000  Uiso   1.00
O672   O     0.16666   0.81547   0.71026   0.00000  Uiso   1.00
O673   O     0.16667   0.68453   0.71026   0.00000  Uiso   1.00
O674   O     0.16666   0.81547   0.78974   0.00000  Uiso   1.00
O675   O     0.09058   0.75000   0.78045   0.00000  Uiso   1.00
O676   O     0.24275   0.75000   0.71956   0.00000  Uiso   1.00
O677   O     0.09058   0.75000   0.70097   0.00000  Uiso   1.00
O678   O     0.24275   0.75001   0.79904   0.00000  Uiso   1.00
Zn679  Zn    0.16667   0.75001   0.80307   0.00000  Uiso   1.00
Zn680  Zn    0.16667   0.75000   0.69693   0.00000  Uiso   1.00
C681   C     0.49913   0.66391   0.75018   0.00000  Uiso   1.00
C682   C     0.48245   0.71318   0.94625   0.00000  Uiso   1.00
C683   C     0.49903   0.75063   0.52660   0.00000  Uiso   1.00
C684   C     0.49929   0.75079   0.97337   0.00000  Uiso   1.00
C685   C     0.40044   0.74948   0.73770   0.00000  Uiso   1.00
C686   C     0.59957   0.75033   0.76232   0.00000  Uiso   1.00
C687   C     0.34555   0.74723   0.73125   0.00000  Uiso   1.00
C688   C     0.65450   0.75222   0.76888   0.00000  Uiso   1.00
C689   C     0.50778   0.54551   0.79064   0.00000  Uiso   1.00
C690   C     0.49513   0.95481   0.70828   0.00000  Uiso   1.00
C691   C     0.51320   0.59147   0.79080   0.00000  Uiso   1.00
C692   C     0.49868   0.83619   0.74964   0.00000  Uiso   1.00
C693   C     0.50016   0.90893   0.70845   0.00000  Uiso   1.00
C694   C     0.49373   0.61611   0.75018   0.00000  Uiso   1.00
C695   C     0.49253   0.88409   0.74889   0.00000  Uiso   1.00
C696   C     0.46734   0.59506   0.70992   0.00000  Uiso   1.00
C697   C     0.47741   0.90514   0.78847   0.00000  Uiso   1.00
C698   C     0.46116   0.54916   0.71002   0.00000  Uiso   1.00
C699   C     0.47152   0.95095   0.78803   0.00000  Uiso   1.00
C700   C     0.48215   0.52425   0.75008   0.00000  Uiso   1.00
C701   C     0.48146   0.97595   0.74833   0.00000  Uiso   1.00
C702   C     0.57757   0.84823   0.62217   0.00000  Uiso   1.00
C703   C     0.46206   0.72546   0.54828   0.00000  Uiso   1.00
C704   C     0.40756   0.66944   0.86294   0.00000  Uiso   1.00
C705   C     0.51678   0.78810   0.94886   0.00000  Uiso   1.00
C706   C     0.46351   0.72532   0.59799   0.00000  Uiso   1.00
C707   C     0.51715   0.78690   0.89936   0.00000  Uiso   1.00
C708   C     0.53567   0.77569   0.60627   0.00000  Uiso   1.00
C709   C     0.48209   0.71345   0.89661   0.00000  Uiso   1.00
C710   C     0.53638   0.77537   0.55666   0.00000  Uiso   1.00
H711   H     0.65873   0.74058   0.69581   0.00000  Uiso   1.00
H712   H     0.46016   0.96694   0.81891   0.00000  Uiso   1.00
H713   H     0.43170   0.70623   0.52710   0.00000  Uiso   1.00
H714   H     0.52961   0.81841   0.96754   0.00000  Uiso   1.00
H715   H     0.43500   0.70567   0.61400   0.00000  Uiso   1.00
H716   H     0.53100   0.81583   0.88144   0.00000  Uiso   1.00
H717   H     0.56658   0.79402   0.54190   0.00000  Uiso   1.00
H718   H     0.46975   0.68321   0.96326   0.00000  Uiso   1.00
H719   H     0.60904   0.78664   0.64246   0.00000  Uiso   1.00
H720   H     0.60170   0.85164   0.59289   0.00000  Uiso   1.00
H721   H     0.59715   0.86733   0.65303   0.00000  Uiso   1.00
H722   H     0.34136   0.75865   0.80441   0.00000  Uiso   1.00
H723   H     0.53826   0.86267   0.61044   0.00000  Uiso   1.00
H724   H     0.48234   0.64618   0.88424   0.00000  Uiso   1.00
H725   H     0.39283   0.66176   0.89707   0.00000  Uiso   1.00
H726   H     0.39668   0.64142   0.83815   0.00000  Uiso   1.00
H727   H     0.38861   0.70019   0.84705   0.00000  Uiso   1.00
H728   H     0.52505   0.52653   0.82153   0.00000  Uiso   1.00
H729   H     0.50362   0.97383   0.67755   0.00000  Uiso   1.00
H730   H     0.53367   0.60763   0.82206   0.00000  Uiso   1.00
H731   H     0.51094   0.89309   0.67746   0.00000  Uiso   1.00
H732   H     0.45117   0.61410   0.67867   0.00000  Uiso   1.00
H733   H     0.47013   0.88632   0.81972   0.00000  Uiso   1.00
H734   H     0.44072   0.53306   0.67873   0.00000  Uiso   1.00
N735   N     0.50000   0.74999   0.62624   0.00000  Uiso   1.00
N736   N     0.50000   0.75001   0.87377   0.00000  Uiso   1.00
N737   N     0.57302   0.80176   0.63593   0.00000  Uiso   1.00
N738   N     0.46393   0.67493   0.87061   0.00000  Uiso   1.00
O739   O     0.50000   0.68454   0.78974   0.00000  Uiso   1.00
O740   O     0.50000   0.81547   0.71026   0.00000  Uiso   1.00
O741   O     0.50000   0.68453   0.71026   0.00000  Uiso   1.00
O742   O     0.50000   0.81547   0.78974   0.00000  Uiso   1.00
O743   O     0.42392   0.75000   0.78045   0.00000  Uiso   1.00
O744   O     0.57608   0.75000   0.71956   0.00000  Uiso   1.00
O745   O     0.42392   0.75000   0.70097   0.00000  Uiso   1.00
O746   O     0.57608   0.75001   0.79904   0.00000  Uiso   1.00
Zn747  Zn    0.50000   0.75001   0.80307   0.00000  Uiso   1.00
Zn748  Zn    0.50000   0.75000   0.69693   0.00000  Uiso   1.00
C749   C     0.83247   0.66391   0.75018   0.00000  Uiso   1.00
C750   C     0.81578   0.71318   0.94625   0.00000  Uiso   1.00
C751   C     0.83237   0.75063   0.52660   0.00000  Uiso   1.00
C752   C     0.83262   0.75079   0.97337   0.00000  Uiso   1.00
C753   C     0.73377   0.74948   0.73770   0.00000  Uiso   1.00
C754   C     0.93291   0.75033   0.76232   0.00000  Uiso   1.00
C755   C     0.67888   0.74723   0.73125   0.00000  Uiso   1.00
C756   C     0.98783   0.75222   0.76888   0.00000  Uiso   1.00
C757   C     0.84111   0.54551   0.79064   0.00000  Uiso   1.00
C758   C     0.82846   0.95481   0.70828   0.00000  Uiso   1.00
C759   C     0.84654   0.59147   0.79080   0.00000  Uiso   1.00
C760   C     0.83202   0.83619   0.74964   0.00000  Uiso   1.00
C761   C     0.83349   0.90893   0.70845   0.00000  Uiso   1.00
C762   C     0.82706   0.61611   0.75018   0.00000  Uiso   1.00
C763   C     0.82587   0.88409   0.74889   0.00000  Uiso   1.00
C764   C     0.80067   0.59506   0.70992   0.00000  Uiso   1.00
C765   C     0.81074   0.90514   0.78847   0.00000  Uiso   1.00
C766   C     0.79450   0.54916   0.71002   0.00000  Uiso   1.00
C767   C     0.80485   0.95095   0.78803   0.00000  Uiso   1.00
C768   C     0.81549   0.52425   0.75008   0.00000  Uiso   1.00
C769   C     0.81480   0.97595   0.74833   0.00000  Uiso   1.00
C770   C     0.91090   0.84823   0.62217   0.00000  Uiso   1.00
C771   C     0.79539   0.72546   0.54828   0.00000  Uiso   1.00
C772   C     0.74089   0.66944   0.86294   0.00000  Uiso   1.00
C773   C     0.85011   0.78810   0.94886   0.00000  Uiso   1.00
C774   C     0.79685   0.72532   0.59799   0.00000  Uiso   1.00
C775   C     0.85049   0.78690   0.89936   0.00000  Uiso   1.00
C776   C     0.86900   0.77569   0.60627   0.00000  Uiso   1.00
C777   C     0.81543   0.71345   0.89661   0.00000  Uiso   1.00
C778   C     0.86971   0.77537   0.55666   0.00000  Uiso   1.00
H779   H     0.99206   0.74058   0.69581   0.00000  Uiso   1.00
H780   H     0.79349   0.96694   0.81891   0.00000  Uiso   1.00
H781   H     0.76503   0.70623   0.52710   0.00000  Uiso   1.00
H782   H     0.86295   0.81841   0.96754   0.00000  Uiso   1.00
H783   H     0.76833   0.70567   0.61400   0.00000  Uiso   1.00
H784   H     0.86433   0.81583   0.88144   0.00000  Uiso   1.00
H785   H     0.89991   0.79402   0.54190   0.00000  Uiso   1.00
H786   H     0.80309   0.68321   0.96326   0.00000  Uiso   1.00
H787   H     0.94237   0.78664   0.64246   0.00000  Uiso   1.00
H788   H     0.93504   0.85164   0.59289   0.00000  Uiso   1.00
H789   H     0.93048   0.86733   0.65303   0.00000  Uiso   1.00
H790   H     0.67469   0.75865   0.80441   0.00000  Uiso   1.00
H791   H     0.87159   0.86267   0.61044   0.00000  Uiso   1.00
H792   H     0.81567   0.64618   0.88424   0.00000  Uiso   1.00
H793   H     0.72617   0.66176   0.89707   0.00000  Uiso   1.00
H794   H     0.73002   0.64142   0.83815   0.00000  Uiso   1.00
H795   H     0.72194   0.70019   0.84705   0.00000  Uiso   1.00
H796   H     0.85838   0.52653   0.82153   0.00000  Uiso   1.00
H797   H     0.83695   0.97383   0.67755   0.00000  Uiso   1.00
H798   H     0.86700   0.60763   0.82206   0.00000  Uiso   1.00
H799   H     0.84428   0.89309   0.67746   0.00000  Uiso   1.00
H800   H     0.78451   0.61410   0.67867   0.00000  Uiso   1.00
H801   H     0.80346   0.88632   0.81972   0.00000  Uiso   1.00
H802   H     0.77405   0.53306   0.67873   0.00000  Uiso   1.00
N803   N     0.83333   0.74999   0.62624   0.00000  Uiso   1.00
N804   N     0.83333   0.75001   0.87377   0.00000  Uiso   1.00
N805   N     0.90636   0.80176   0.63593   0.00000  Uiso   1.00
N806   N     0.79726   0.67493   0.87061   0.00000  Uiso   1.00
O807   O     0.83334   0.68454   0.78974   0.00000  Uiso   1.00
O808   O     0.83333   0.81547   0.71026   0.00000  Uiso   1.00
O809   O     0.83334   0.68453   0.71026   0.00000  Uiso   1.00
O810   O     0.83333   0.81547   0.78974   0.00000  Uiso   1.00
O811   O     0.75725   0.75000   0.78045   0.00000  Uiso   1.00
O812   O     0.90942   0.75000   0.71956   0.00000  Uiso   1.00
O813   O     0.75725   0.75000   0.70097   0.00000  Uiso   1.00
O814   O     0.90942   0.75001   0.79904   0.00000  Uiso   1.00
Zn815  Zn    0.83333   0.75001   0.80307   0.00000  Uiso   1.00
Zn816  Zn    0.83333   0.75000   0.69693   0.00000  Uiso   1.00
loop_
_geom_bond_atom_site_label_1
_geom_bond_atom_site_label_2
_geom_bond_distance
_geom_bond_site_symmetry_2
_ccdc_geom_bond_type
C1     O59     1.288   .     A
C1     O61     1.288   .     A
C1     C14     1.436   .     S
C2     C4      1.403   .     A
C2     H38     1.082   .     S
C2     C29     1.410   .     A
C3     C30     1.404   .     A
C3     C23     1.412   .     A
C3     C412    1.514   1_554 S
C4     C25     1.411   .     A
C4     C411    1.514   .     S
C5     C7      1.401   .     S
C5     O63     1.279   .     A
C5     O65     1.279   .     A
C6     O66     1.279   .     A
C6     O64     1.279   .     A
C6     C8      1.401   .     S
C7     C144    1.327   1_455 S
C7     H167    1.086   1_455 S
C8     C75     1.327   .     S
C8     H110    1.087   .     S
C9     C20     1.402   .     A
C9     C11     1.381   .     A
C9     H48     1.083   .     S
C10    C21     1.400   .     A
C10    H49     1.083   .     S
C10    C13     1.381   .     A
C11    H50     1.083   .     S
C11    C14     1.397   .     A
C12    O62     1.287   .     A
C12    C15     1.444   .     S
C12    O60     1.293   .     A
C13    C15     1.397   .     A
C13    H51     1.078   .     S
C14    C16     1.399   .     A
C15    C17     1.402   .     A
C16    C18     1.381   .     A
C16    H52     1.084   .     S
C17    H53     1.083   .     S
C17    C19     1.381   .     A
C18    C20     1.399   .     A
C18    H54     1.083   .     S
C19    C21     1.398   .     A
C19    H32     1.083   .     S
C20    C225    1.447   1_545 S
C21    C224    1.447   .     S
C22    H43     1.111   .     S
C22    H40     1.111   .     S
C22    N57     1.448   .     S
C22    H41     1.110   .     S
C23    C26     1.409   .     A
C23    H33     1.082   .     S
C24    H46     1.110   .     S
C24    H45     1.111   .     S
C24    N58     1.445   .     S
C24    H47     1.108   .     S
C25    C27     1.410   .     A
C25    H34     1.082   .     S
C26    N55     1.363   .     A
C26    H35     1.082   .     S
C27    H36     1.081   .     S
C27    N56     1.365   .     A
C28    C30     1.414   .     A
C28    N57     1.420   .     S
C28    N55     1.370   .     A
C29    N56     1.373   .     A
C29    N58     1.417   .     S
C30    H37     1.081   .     S
H31    C75     1.086   .     S
H39    N57     1.029   .     S
H42    C144    1.087   1_455 S
H44    N58     1.032   .     S
N55    Zn68    2.010   .     S
N56    Zn67    2.010   .     S
O59    Zn67    2.001   .     S
O60    Zn68    2.001   .     S
O61    Zn68    1.991   .     S
O62    Zn67    1.991   .     S
O63    Zn67    1.974   .     S
O64    Zn68    1.974   .     S
O65    Zn68    1.980   .     S
O66    Zn67    1.980   .     S
C69    O127    1.288   .     A
C69    O129    1.288   .     A
C69    C82     1.436   .     S
C70    C72     1.403   .     A
C70    H106    1.082   .     S
C70    C97     1.410   .     A
C71    C98     1.404   .     A
C71    C91     1.412   .     A
C71    C480    1.514   1_554 S
C72    C93     1.411   .     A
C72    C479    1.514   .     S
C73    C75     1.401   .     S
C73    O131    1.279   .     A
C73    O133    1.279   .     A
C74    O134    1.279   .     A
C74    O132    1.279   .     A
C74    C76     1.401   .     S
C76    C143    1.327   .     S
C76    H178    1.087   .     S
C77    C88     1.402   .     A
C77    C79     1.381   .     A
C77    H116    1.083   .     S
C78    C89     1.400   .     A
C78    H117    1.083   .     S
C78    C81     1.381   .     A
C79    H118    1.083   .     S
C79    C82     1.397   .     A
C80    O130    1.287   .     A
C80    C83     1.444   .     S
C80    O128    1.293   .     A
C81    C83     1.397   .     A
C81    H119    1.078   .     S
C82    C84     1.399   .     A
C83    C85     1.402   .     A
C84    C86     1.381   .     A
C84    H120    1.084   .     S
C85    H121    1.083   .     S
C85    C87     1.381   .     A
C86    C88     1.399   .     A
C86    H122    1.083   .     S
C87    C89     1.398   .     A
C87    H100    1.083   .     S
C88    C293    1.447   1_545 S
C89    C292    1.447   .     S
C90    H111    1.111   .     S
C90    H108    1.111   .     S
C90    N125    1.448   .     S
C90    H109    1.110   .     S
C91    C94     1.409   .     A
C91    H101    1.082   .     S
C92    H114    1.110   .     S
C92    H113    1.111   .     S
C92    N126    1.445   .     S
C92    H115    1.108   .     S
C93    C95     1.410   .     A
C93    H102    1.082   .     S
C94    N123    1.363   .     A
C94    H103    1.082   .     S
C95    H104    1.081   .     S
C95    N124    1.365   .     A
C96    C98     1.414   .     A
C96    N125    1.420   .     S
C96    N123    1.370   .     A
C97    N124    1.373   .     A
C97    N126    1.417   .     S
C98    H105    1.081   .     S
H99    C143    1.086   .     S
H107   N125    1.029   .     S
H112   N126    1.032   .     S
N123   Zn136   2.010   .     S
N124   Zn135   2.010   .     S
O127   Zn135   2.001   .     S
O128   Zn136   2.001   .     S
O129   Zn136   1.991   .     S
O130   Zn135   1.991   .     S
O131   Zn135   1.974   .     S
O132   Zn136   1.974   .     S
O133   Zn136   1.980   .     S
O134   Zn135   1.980   .     S
C137   O195    1.288   .     A
C137   O197    1.288   .     A
C137   C150    1.436   .     S
C138   C140    1.403   .     A
C138   H174    1.082   .     S
C138   C165    1.410   .     A
C139   C166    1.404   .     A
C139   C159    1.412   .     A
C139   C548    1.514   1_554 S
C140   C161    1.411   .     A
C140   C547    1.514   .     S
C141   C143    1.401   .     S
C141   O199    1.279   .     A
C141   O201    1.279   .     A
C142   O202    1.279   .     A
C142   O200    1.279   .     A
C142   C144    1.401   .     S
C144   C7      1.327   1_655 S
C144   H42     1.087   1_655 S
C145   C156    1.402   .     A
C145   C147    1.381   .     A
C145   H184    1.083   .     S
C146   C157    1.400   .     A
C146   H185    1.083   .     S
C146   C149    1.381   .     A
C147   H186    1.083   .     S
C147   C150    1.397   .     A
C148   O198    1.287   .     A
C148   C151    1.444   .     S
C148   O196    1.293   .     A
C149   C151    1.397   .     A
C149   H187    1.078   .     S
C150   C152    1.399   .     A
C151   C153    1.402   .     A
C152   C154    1.381   .     A
C152   H188    1.084   .     S
C153   H189    1.083   .     S
C153   C155    1.381   .     A
C154   C156    1.399   .     A
C154   H190    1.083   .     S
C155   C157    1.398   .     A
C155   H168    1.083   .     S
C156   C361    1.447   1_545 S
C157   C360    1.447   .     S
C158   H179    1.111   .     S
C158   H176    1.111   .     S
C158   N193    1.448   .     S
C158   H177    1.110   .     S
C159   C162    1.409   .     A
C159   H169    1.082   .     S
C160   H182    1.110   .     S
C160   H181    1.111   .     S
C160   N194    1.445   .     S
C160   H183    1.108   .     S
C161   C163    1.410   .     A
C161   H170    1.082   .     S
C162   N191    1.363   .     A
C162   H171    1.082   .     S
C163   H172    1.081   .     S
C163   N192    1.365   .     A
C164   C166    1.414   .     A
C164   N193    1.420   .     S
C164   N191    1.370   .     A
C165   N192    1.373   .     A
C165   N194    1.417   .     S
C166   H173    1.081   .     S
H167   C7      1.086   1_655 S
H175   N193    1.029   .     S
H180   N194    1.032   .     S
N191   Zn204   2.010   .     S
N192   Zn203   2.010   .     S
O195   Zn203   2.001   .     S
O196   Zn204   2.001   .     S
O197   Zn204   1.991   .     S
O198   Zn203   1.991   .     S
O199   Zn203   1.974   .     S
O200   Zn204   1.974   .     S
O201   Zn204   1.980   .     S
O202   Zn203   1.980   .     S
C205   O263    1.288   .     A
C205   O265    1.288   .     A
C205   C218    1.436   .     S
C206   C208    1.403   .     A
C206   H242    1.082   .     S
C206   C233    1.410   .     A
C207   C234    1.404   .     A
C207   C227    1.412   .     A
C207   C616    1.514   1_554 S
C208   C229    1.411   .     A
C208   C615    1.514   .     S
C209   C211    1.401   .     S
C209   O267    1.279   .     A
C209   O269    1.279   .     A
C210   O270    1.279   .     A
C210   O268    1.279   .     A
C210   C212    1.401   .     S
C211   C348    1.327   1_455 S
C211   H371    1.086   1_455 S
C212   C279    1.327   .     S
C212   H314    1.087   .     S
C213   C224    1.402   .     A
C213   C215    1.381   .     A
C213   H252    1.083   .     S
C214   C225    1.400   .     A
C214   H253    1.083   .     S
C214   C217    1.381   .     A
C215   H254    1.083   .     S
C215   C218    1.397   .     A
C216   O266    1.287   .     A
C216   C219    1.444   .     S
C216   O264    1.293   .     A
C217   C219    1.397   .     A
C217   H255    1.078   .     S
C218   C220    1.399   .     A
C219   C221    1.402   .     A
C220   C222    1.381   .     A
C220   H256    1.084   .     S
C221   H257    1.083   .     S
C221   C223    1.381   .     A
C222   C224    1.399   .     A
C222   H258    1.083   .     S
C223   C225    1.398   .     A
C223   H236    1.083   .     S
C225   C20     1.447   1_565 S
C226   H247    1.111   .     S
C226   H244    1.111   .     S
C226   N261    1.448   .     S
C226   H245    1.110   .     S
C227   C230    1.409   .     A
C227   H237    1.082   .     S
C228   H250    1.110   .     S
C228   H249    1.111   .     S
C228   N262    1.445   .     S
C228   H251    1.108   .     S
C229   C231    1.410   .     A
C229   H238    1.082   .     S
C230   N259    1.363   .     A
C230   H239    1.082   .     S
C231   H240    1.081   .     S
C231   N260    1.365   .     A
C232   C234    1.414   .     A
C232   N261    1.420   .     S
C232   N259    1.370   .     A
C233   N260    1.373   .     A
C233   N262    1.417   .     S
C234   H241    1.081   .     S
H235   C279    1.086   .     S
H243   N261    1.029   .     S
H246   C348    1.087   1_455 S
H248   N262    1.032   .     S
N259   Zn272   2.010   .     S
N260   Zn271   2.010   .     S
O263   Zn271   2.001   .     S
O264   Zn272   2.001   .     S
O265   Zn272   1.991   .     S
O266   Zn271   1.991   .     S
O267   Zn271   1.974   .     S
O268   Zn272   1.974   .     S
O269   Zn272   1.980   .     S
O270   Zn271   1.980   .     S
C273   O331    1.288   .     A
C273   O333    1.288   .     A
C273   C286    1.436   .     S
C274   C276    1.403   .     A
C274   H310    1.082   .     S
C274   C301    1.410   .     A
C275   C302    1.404   .     A
C275   C295    1.412   .     A
C275   C684    1.514   1_554 S
C276   C297    1.411   .     A
C276   C683    1.514   .     S
C277   C279    1.401   .     S
C277   O335    1.279   .     A
C277   O337    1.279   .     A
C278   O338    1.279   .     A
C278   O336    1.279   .     A
C278   C280    1.401   .     S
C280   C347    1.327   .     S
C280   H382    1.087   .     S
C281   C292    1.402   .     A
C281   C283    1.381   .     A
C281   H320    1.083   .     S
C282   C293    1.400   .     A
C282   H321    1.083   .     S
C282   C285    1.381   .     A
C283   H322    1.083   .     S
C283   C286    1.397   .     A
C284   O334    1.287   .     A
C284   C287    1.444   .     S
C284   O332    1.293   .     A
C285   C287    1.397   .     A
C285   H323    1.078   .     S
C286   C288    1.399   .     A
C287   C289    1.402   .     A
C288   C290    1.381   .     A
C288   H324    1.084   .     S
C289   H325    1.083   .     S
C289   C291    1.381   .     A
C290   C292    1.399   .     A
C290   H326    1.083   .     S
C291   C293    1.398   .     A
C291   H304    1.083   .     S
C293   C88     1.447   1_565 S
C294   H315    1.111   .     S
C294   H312    1.111   .     S
C294   N329    1.448   .     S
C294   H313    1.110   .     S
C295   C298    1.409   .     A
C295   H305    1.082   .     S
C296   H318    1.110   .     S
C296   H317    1.111   .     S
C296   N330    1.445   .     S
C296   H319    1.108   .     S
C297   C299    1.410   .     A
C297   H306    1.082   .     S
C298   N327    1.363   .     A
C298   H307    1.082   .     S
C299   H308    1.081   .     S
C299   N328    1.365   .     A
C300   C302    1.414   .     A
C300   N329    1.420   .     S
C300   N327    1.370   .     A
C301   N328    1.373   .     A
C301   N330    1.417   .     S
C302   H309    1.081   .     S
H303   C347    1.086   .     S
H311   N329    1.029   .     S
H316   N330    1.032   .     S
N327   Zn340   2.010   .     S
N328   Zn339   2.010   .     S
O331   Zn339   2.001   .     S
O332   Zn340   2.001   .     S
O333   Zn340   1.991   .     S
O334   Zn339   1.991   .     S
O335   Zn339   1.974   .     S
O336   Zn340   1.974   .     S
O337   Zn340   1.980   .     S
O338   Zn339   1.980   .     S
C341   O399    1.288   .     A
C341   O401    1.288   .     A
C341   C354    1.436   .     S
C342   C344    1.403   .     A
C342   H378    1.082   .     S
C342   C369    1.410   .     A
C343   C370    1.404   .     A
C343   C363    1.412   .     A
C343   C752    1.514   1_554 S
C344   C365    1.411   .     A
C344   C751    1.514   .     S
C345   C347    1.401   .     S
C345   O403    1.279   .     A
C345   O405    1.279   .     A
C346   O406    1.279   .     A
C346   O404    1.279   .     A
C346   C348    1.401   .     S
C348   C211    1.327   1_655 S
C348   H246    1.087   1_655 S
C349   C360    1.402   .     A
C349   C351    1.381   .     A
C349   H388    1.083   .     S
C350   C361    1.400   .     A
C350   H389    1.083   .     S
C350   C353    1.381   .     A
C351   H390    1.083   .     S
C351   C354    1.397   .     A
C352   O402    1.287   .     A
C352   C355    1.444   .     S
C352   O400    1.293   .     A
C353   C355    1.397   .     A
C353   H391    1.078   .     S
C354   C356    1.399   .     A
C355   C357    1.402   .     A
C356   C358    1.381   .     A
C356   H392    1.084   .     S
C357   H393    1.083   .     S
C357   C359    1.381   .     A
C358   C360    1.399   .     A
C358   H394    1.083   .     S
C359   C361    1.398   .     A
C359   H372    1.083   .     S
C361   C156    1.447   1_565 S
C362   H383    1.111   .     S
C362   H380    1.111   .     S
C362   N397    1.448   .     S
C362   H381    1.110   .     S
C363   C366    1.409   .     A
C363   H373    1.082   .     S
C364   H386    1.110   .     S
C364   H385    1.111   .     S
C364   N398    1.445   .     S
C364   H387    1.108   .     S
C365   C367    1.410   .     A
C365   H374    1.082   .     S
C366   N395    1.363   .     A
C366   H375    1.082   .     S
C367   H376    1.081   .     S
C367   N396    1.365   .     A
C368   C370    1.414   .     A
C368   N397    1.420   .     S
C368   N395    1.370   .     A
C369   N396    1.373   .     A
C369   N398    1.417   .     S
C370   H377    1.081   .     S
H371   C211    1.086   1_655 S
H379   N397    1.029   .     S
H384   N398    1.032   .     S
N395   Zn408   2.010   .     S
N396   Zn407   2.010   .     S
O399   Zn407   2.001   .     S
O400   Zn408   2.001   .     S
O401   Zn408   1.991   .     S
O402   Zn407   1.991   .     S
O403   Zn407   1.974   .     S
O404   Zn408   1.974   .     S
O405   Zn408   1.980   .     S
O406   Zn407   1.980   .     S
C409   O467    1.288   .     A
C409   O469    1.288   .     A
C409   C422    1.436   .     S
C410   C412    1.403   .     A
C410   H446    1.082   .     S
C410   C437    1.410   .     A
C411   C438    1.404   .     A
C411   C431    1.412   .     A
C412   C433    1.411   .     A
C412   C3      1.514   1_556 S
C413   C415    1.401   .     S
C413   O471    1.279   .     A
C413   O473    1.279   .     A
C414   O474    1.279   .     A
C414   O472    1.279   .     A
C414   C416    1.401   .     S
C415   C552    1.327   1_455 S
C415   H575    1.086   1_455 S
C416   C483    1.327   .     S
C416   H518    1.087   .     S
C417   C428    1.402   .     A
C417   C419    1.381   .     A
C417   H456    1.083   .     S
C418   C429    1.400   .     A
C418   H457    1.083   .     S
C418   C421    1.381   .     A
C419   H458    1.083   .     S
C419   C422    1.397   .     A
C420   O470    1.287   .     A
C420   C423    1.444   .     S
C420   O468    1.293   .     A
C421   C423    1.397   .     A
C421   H459    1.078   .     S
C422   C424    1.399   .     A
C423   C425    1.402   .     A
C424   C426    1.381   .     A
C424   H460    1.084   .     S
C425   H461    1.083   .     S
C425   C427    1.381   .     A
C426   C428    1.399   .     A
C426   H462    1.083   .     S
C427   C429    1.398   .     A
C427   H440    1.083   .     S
C428   C633    1.447   1_545 S
C429   C632    1.447   .     S
C430   H451    1.111   .     S
C430   H448    1.111   .     S
C430   N465    1.448   .     S
C430   H449    1.110   .     S
C431   C434    1.409   .     A
C431   H441    1.082   .     S
C432   H454    1.110   .     S
C432   H453    1.111   .     S
C432   N466    1.445   .     S
C432   H455    1.108   .     S
C433   C435    1.410   .     A
C433   H442    1.082   .     S
C434   N463    1.363   .     A
C434   H443    1.082   .     S
C435   H444    1.081   .     S
C435   N464    1.365   .     A
C436   C438    1.414   .     A
C436   N465    1.420   .     S
C436   N463    1.370   .     A
C437   N464    1.373   .     A
C437   N466    1.417   .     S
C438   H445    1.081   .     S
H439   C483    1.086   .     S
H447   N465    1.029   .     S
H450   C552    1.087   1_455 S
H452   N466    1.032   .     S
N463   Zn476   2.010   .     S
N464   Zn475   2.010   .     S
O467   Zn475   2.001   .     S
O468   Zn476   2.001   .     S
O469   Zn476   1.991   .     S
O470   Zn475   1.991   .     S
O471   Zn475   1.974   .     S
O472   Zn476   1.974   .     S
O473   Zn476   1.980   .     S
O474   Zn475   1.980   .     S
C477   O535    1.288   .     A
C477   O537    1.288   .     A
C477   C490    1.436   .     S
C478   C480    1.403   .     A
C478   H514    1.082   .     S
C478   C505    1.410   .     A
C479   C506    1.404   .     A
C479   C499    1.412   .     A
C480   C501    1.411   .     A
C480   C71     1.514   1_556 S
C481   C483    1.401   .     S
C481   O539    1.279   .     A
C481   O541    1.279   .     A
C482   O542    1.279   .     A
C482   O540    1.279   .     A
C482   C484    1.401   .     S
C484   C551    1.327   .     S
C484   H586    1.087   .     S
C485   C496    1.402   .     A
C485   C487    1.381   .     A
C485   H524    1.083   .     S
C486   C497    1.400   .     A
C486   H525    1.083   .     S
C486   C489    1.381   .     A
C487   H526    1.083   .     S
C487   C490    1.397   .     A
C488   O538    1.287   .     A
C488   C491    1.444   .     S
C488   O536    1.293   .     A
C489   C491    1.397   .     A
C489   H527    1.078   .     S
C490   C492    1.399   .     A
C491   C493    1.402   .     A
C492   C494    1.381   .     A
C492   H528    1.084   .     S
C493   H529    1.083   .     S
C493   C495    1.381   .     A
C494   C496    1.399   .     A
C494   H530    1.083   .     S
C495   C497    1.398   .     A
C495   H508    1.083   .     S
C496   C701    1.447   1_545 S
C497   C700    1.447   .     S
C498   H519    1.111   .     S
C498   H516    1.111   .     S
C498   N533    1.448   .     S
C498   H517    1.110   .     S
C499   C502    1.409   .     A
C499   H509    1.082   .     S
C500   H522    1.110   .     S
C500   H521    1.111   .     S
C500   N534    1.445   .     S
C500   H523    1.108   .     S
C501   C503    1.410   .     A
C501   H510    1.082   .     S
C502   N531    1.363   .     A
C502   H511    1.082   .     S
C503   H512    1.081   .     S
C503   N532    1.365   .     A
C504   C506    1.414   .     A
C504   N533    1.420   .     S
C504   N531    1.370   .     A
C505   N532    1.373   .     A
C505   N534    1.417   .     S
C506   H513    1.081   .     S
H507   C551    1.086   .     S
H515   N533    1.029   .     S
H520   N534    1.032   .     S
N531   Zn544   2.010   .     S
N532   Zn543   2.010   .     S
O535   Zn543   2.001   .     S
O536   Zn544   2.001   .     S
O537   Zn544   1.991   .     S
O538   Zn543   1.991   .     S
O539   Zn543   1.974   .     S
O540   Zn544   1.974   .     S
O541   Zn544   1.980   .     S
O542   Zn543   1.980   .     S
C545   O603    1.288   .     A
C545   O605    1.288   .     A
C545   C558    1.436   .     S
C546   C548    1.403   .     A
C546   H582    1.082   .     S
C546   C573    1.410   .     A
C547   C574    1.404   .     A
C547   C567    1.412   .     A
C548   C569    1.411   .     A
C548   C139    1.514   1_556 S
C549   C551    1.401   .     S
C549   O607    1.279   .     A
C549   O609    1.279   .     A
C550   O610    1.279   .     A
C550   O608    1.279   .     A
C550   C552    1.401   .     S
C552   C415    1.327   1_655 S
C552   H450    1.087   1_655 S
C553   C564    1.402   .     A
C553   C555    1.381   .     A
C553   H592    1.083   .     S
C554   C565    1.400   .     A
C554   H593    1.083   .     S
C554   C557    1.381   .     A
C555   H594    1.083   .     S
C555   C558    1.397   .     A
C556   O606    1.287   .     A
C556   C559    1.444   .     S
C556   O604    1.293   .     A
C557   C559    1.397   .     A
C557   H595    1.078   .     S
C558   C560    1.399   .     A
C559   C561    1.402   .     A
C560   C562    1.381   .     A
C560   H596    1.084   .     S
C561   H597    1.083   .     S
C561   C563    1.381   .     A
C562   C564    1.399   .     A
C562   H598    1.083   .     S
C563   C565    1.398   .     A
C563   H576    1.083   .     S
C564   C769    1.447   1_545 S
C565   C768    1.447   .     S
C566   H587    1.111   .     S
C566   H584    1.111   .     S
C566   N601    1.448   .     S
C566   H585    1.110   .     S
C567   C570    1.409   .     A
C567   H577    1.082   .     S
C568   H590    1.110   .     S
C568   H589    1.111   .     S
C568   N602    1.445   .     S
C568   H591    1.108   .     S
C569   C571    1.410   .     A
C569   H578    1.082   .     S
C570   N599    1.363   .     A
C570   H579    1.082   .     S
C571   H580    1.081   .     S
C571   N600    1.365   .     A
C572   C574    1.414   .     A
C572   N601    1.420   .     S
C572   N599    1.370   .     A
C573   N600    1.373   .     A
C573   N602    1.417   .     S
C574   H581    1.081   .     S
H575   C415    1.086   1_655 S
H583   N601    1.029   .     S
H588   N602    1.032   .     S
N599   Zn612   2.010   .     S
N600   Zn611   2.010   .     S
O603   Zn611   2.001   .     S
O604   Zn612   2.001   .     S
O605   Zn612   1.991   .     S
O606   Zn611   1.991   .     S
O607   Zn611   1.974   .     S
O608   Zn612   1.974   .     S
O609   Zn612   1.980   .     S
O610   Zn611   1.980   .     S
C613   O671    1.288   .     A
C613   O673    1.288   .     A
C613   C626    1.436   .     S
C614   C616    1.403   .     A
C614   H650    1.082   .     S
C614   C641    1.410   .     A
C615   C642    1.404   .     A
C615   C635    1.412   .     A
C616   C637    1.411   .     A
C616   C207    1.514   1_556 S
C617   C619    1.401   .     S
C617   O675    1.279   .     A
C617   O677    1.279   .     A
C618   O678    1.279   .     A
C618   O676    1.279   .     A
C618   C620    1.401   .     S
C619   C756    1.327   1_455 S
C619   H779    1.086   1_455 S
C620   C687    1.327   .     S
C620   H722    1.087   .     S
C621   C632    1.402   .     A
C621   C623    1.381   .     A
C621   H660    1.083   .     S
C622   C633    1.400   .     A
C622   H661    1.083   .     S
C622   C625    1.381   .     A
C623   H662    1.083   .     S
C623   C626    1.397   .     A
C624   O674    1.287   .     A
C624   C627    1.444   .     S
C624   O672    1.293   .     A
C625   C627    1.397   .     A
C625   H663    1.078   .     S
C626   C628    1.399   .     A
C627   C629    1.402   .     A
C628   C630    1.381   .     A
C628   H664    1.084   .     S
C629   H665    1.083   .     S
C629   C631    1.381   .     A
C630   C632    1.399   .     A
C630   H666    1.083   .     S
C631   C633    1.398   .     A
C631   H644    1.083   .     S
C633   C428    1.447   1_565 S
C634   H655    1.111   .     S
C634   H652    1.111   .     S
C634   N669    1.448   .     S
C634   H653    1.110   .     S
C635   C638    1.409   .     A
C635   H645    1.082   .     S
C636   H658    1.110   .     S
C636   H657    1.111   .     S
C636   N670    1.445   .     S
C636   H659    1.108   .     S
C637   C639    1.410   .     A
C637   H646    1.082   .     S
C638   N667    1.363   .     A
C638   H647    1.082   .     S
C639   H648    1.081   .     S
C639   N668    1.365   .     A
C640   C642    1.414   .     A
C640   N669    1.420   .     S
C640   N667    1.370   .     A
C641   N668    1.373   .     A
C641   N670    1.417   .     S
C642   H649    1.081   .     S
H643   C687    1.086   .     S
H651   N669    1.029   .     S
H654   C756    1.087   1_455 S
H656   N670    1.032   .     S
N667   Zn680   2.010   .     S
N668   Zn679   2.010   .     S
O671   Zn679   2.001   .     S
O672   Zn680   2.001   .     S
O673   Zn680   1.991   .     S
O674   Zn679   1.991   .     S
O675   Zn679   1.974   .     S
O676   Zn680   1.974   .     S
O677   Zn680   1.980   .     S
O678   Zn679   1.980   .     S
C681   O739    1.288   .     A
C681   O741    1.288   .     A
C681   C694    1.436   .     S
C682   C684    1.403   .     A
C682   H718    1.082   .     S
C682   C709    1.410   .     A
C683   C710    1.404   .     A
C683   C703    1.412   .     A
C684   C705    1.411   .     A
C684   C275    1.514   1_556 S
C685   C687    1.401   .     S
C685   O743    1.279   .     A
C685   O745    1.279   .     A
C686   O746    1.279   .     A
C686   O744    1.279   .     A
C686   C688    1.401   .     S
C688   C755    1.327   .     S
C688   H790    1.087   .     S
C689   C700    1.402   .     A
C689   C691    1.381   .     A
C689   H728    1.083   .     S
C690   C701    1.400   .     A
C690   H729    1.083   .     S
C690   C693    1.381   .     A
C691   H730    1.083   .     S
C691   C694    1.397   .     A
C692   O742    1.287   .     A
C692   C695    1.444   .     S
C692   O740    1.293   .     A
C693   C695    1.397   .     A
C693   H731    1.078   .     S
C694   C696    1.399   .     A
C695   C697    1.402   .     A
C696   C698    1.381   .     A
C696   H732    1.084   .     S
C697   H733    1.083   .     S
C697   C699    1.381   .     A
C698   C700    1.399   .     A
C698   H734    1.083   .     S
C699   C701    1.398   .     A
C699   H712    1.083   .     S
C701   C496    1.447   1_565 S
C702   H723    1.111   .     S
C702   H720    1.111   .     S
C702   N737    1.448   .     S
C702   H721    1.110   .     S
C703   C706    1.409   .     A
C703   H713    1.082   .     S
C704   H726    1.110   .     S
C704   H725    1.111   .     S
C704   N738    1.445   .     S
C704   H727    1.108   .     S
C705   C707    1.410   .     A
C705   H714    1.082   .     S
C706   N735    1.363   .     A
C706   H715    1.082   .     S
C707   H716    1.081   .     S
C707   N736    1.365   .     A
C708   C710    1.414   .     A
C708   N737    1.420   .     S
C708   N735    1.370   .     A
C709   N736    1.373   .     A
C709   N738    1.417   .     S
C710   H717    1.081   .     S
H711   C755    1.086   .     S
H719   N737    1.029   .     S
H724   N738    1.032   .     S
N735   Zn748   2.010   .     S
N736   Zn747   2.010   .     S
O739   Zn747   2.001   .     S
O740   Zn748   2.001   .     S
O741   Zn748   1.991   .     S
O742   Zn747   1.991   .     S
O743   Zn747   1.974   .     S
O744   Zn748   1.974   .     S
O745   Zn748   1.980   .     S
O746   Zn747   1.980   .     S
C749   O807    1.288   .     A
C749   O809    1.288   .     A
C749   C762    1.436   .     S
C750   C752    1.403   .     A
C750   H786    1.082   .     S
C750   C777    1.410   .     A
C751   C778    1.404   .     A
C751   C771    1.412   .     A
C752   C773    1.411   .     A
C752   C343    1.514   1_556 S
C753   C755    1.401   .     S
C753   O811    1.279   .     A
C753   O813    1.279   .     A
C754   O814    1.279   .     A
C754   O812    1.279   .     A
C754   C756    1.401   .     S
C756   C619    1.327   1_655 S
C756   H654    1.087   1_655 S
C757   C768    1.402   .     A
C757   C759    1.381   .     A
C757   H796    1.083   .     S
C758   C769    1.400   .     A
C758   H797    1.083   .     S
C758   C761    1.381   .     A
C759   H798    1.083   .     S
C759   C762    1.397   .     A
C760   O810    1.287   .     A
C760   C763    1.444   .     S
C760   O808    1.293   .     A
C761   C763    1.397   .     A
C761   H799    1.078   .     S
C762   C764    1.399   .     A
C763   C765    1.402   .     A
C764   C766    1.381   .     A
C764   H800    1.084   .     S
C765   H801    1.083   .     S
C765   C767    1.381   .     A
C766   C768    1.399   .     A
C766   H802    1.083   .     S
C767   C769    1.398   .     A
C767   H780    1.083   .     S
C769   C564    1.447   1_565 S
C770   H791    1.111   .     S
C770   H788    1.111   .     S
C770   N805    1.448   .     S
C770   H789    1.110   .     S
C771   C774    1.409   .     A
C771   H781    1.082   .     S
C772   H794    1.110   .     S
C772   H793    1.111   .     S
C772   N806    1.445   .     S
C772   H795    1.108   .     S
C773   C775    1.410   .     A
C773   H782    1.082   .     S
C774   N803    1.363   .     A
C774   H783    1.082   .     S
C775   H784    1.081   .     S
C775   N804    1.365   .     A
C776   C778    1.414   .     A
C776   N805    1.420   .     S
C776   N803    1.370   .     A
C777   N804    1.373   .     A
C777   N806    1.417   .     S
C778   H785    1.081   .     S
H779   C619    1.086   1_655 S
H787   N805    1.029   .     S
H792   N806    1.032   .     S
N803   Zn816   2.010   .     S
N804   Zn815   2.010   .     S
O807   Zn815   2.001   .     S
O808   Zn816   2.001   .     S
O809   Zn816   1.991   .     S
O810   Zn815   1.991   .     S
O811   Zn815   1.974   .     S
O812   Zn816   1.974   .     S
O813   Zn816   1.980   .     S
O814   Zn815   1.980   .     S
