data_str_m3_o2_o10_pcu_sym.88
_audit_creation_date              2020-01-03
_audit_creation_method            'Materials Studio'
_symmetry_space_group_name_H-M    'P1'
_symmetry_Int_Tables_number       1
_symmetry_cell_setting            triclinic
loop_
_symmetry_equiv_pos_as_xyz
  x,y,z
_cell_length_a                    25.6612
_cell_length_b                    29.7140
_cell_length_c                    28.3382
_cell_angle_alpha                 90.4722
_cell_angle_beta                  98.8261
_cell_angle_gamma                 90.4159
loop_
_atom_site_label
_atom_site_type_symbol
_atom_site_fract_x
_atom_site_fract_y
_atom_site_fract_z
_atom_site_U_iso_or_equiv
_atom_site_adp_type
_atom_site_occupancy
C1     C     0.16673   0.16379   0.24983   0.00000  Uiso   1.00
C2     C     0.12540   0.22952   0.44141   0.00000  Uiso   1.00
C3     C     0.16644   0.25014   0.02666   0.00000  Uiso   1.00
C4     C     0.16648   0.25011   0.47328   0.00000  Uiso   1.00
C5     C     0.06699   0.25039   0.23749   0.00000  Uiso   1.00
C6     C     0.26635   0.25060   0.26251   0.00000  Uiso   1.00
C7     C     0.01192   0.25130   0.23075   0.00000  Uiso   1.00
C8     C     0.32145   0.25166   0.26926   0.00000  Uiso   1.00
C9     C     0.15434   0.04338   0.28053   0.00000  Uiso   1.00
C10    C     0.16932   0.45683   0.21326   0.00000  Uiso   1.00
C11    C     0.14274   0.08871   0.27673   0.00000  Uiso   1.00
C12    C     0.16699   0.33645   0.25022   0.00000  Uiso   1.00
C13    C     0.15691   0.41134   0.21103   0.00000  Uiso   1.00
C14    C     0.17268   0.11581   0.25043   0.00000  Uiso   1.00
C15    C     0.17326   0.38494   0.25163   0.00000  Uiso   1.00
C16    C     0.21212   0.09756   0.22719   0.00000  Uiso   1.00
C17    C     0.19948   0.40464   0.29394   0.00000  Uiso   1.00
C18    C     0.22305   0.05178   0.22987   0.00000  Uiso   1.00
C19    C     0.20948   0.45069   0.29708   0.00000  Uiso   1.00
C20    C     0.19401   0.02496   0.25772   0.00000  Uiso   1.00
C21    C     0.19506   0.47648   0.25559   0.00000  Uiso   1.00
C22    C     0.09634   0.10574   0.29664   0.00000  Uiso   1.00
C23    C     0.14287   0.21479   0.04902   0.00000  Uiso   1.00
C24    C     0.09219   0.09931   0.34500   0.00000  Uiso   1.00
C25    C     0.04724   0.11356   0.36307   0.00000  Uiso   1.00
C26    C     0.00587   0.13368   0.33294   0.00000  Uiso   1.00
C27    C     0.00954   0.13984   0.28475   0.00000  Uiso   1.00
C28    C     0.05463   0.12618   0.26663   0.00000  Uiso   1.00
C29    C     0.12388   0.39332   0.16725   0.00000  Uiso   1.00
C30    C     0.14050   0.39785   0.12253   0.00000  Uiso   1.00
C31    C     0.10978   0.38011   0.08146   0.00000  Uiso   1.00
C32    C     0.06223   0.35796   0.08468   0.00000  Uiso   1.00
C33    C     0.04504   0.35386   0.12893   0.00000  Uiso   1.00
C34    C     0.20769   0.27058   0.45327   0.00000  Uiso   1.00
C35    C     0.07554   0.37166   0.17006   0.00000  Uiso   1.00
C36    C     0.26293   0.03274   0.20057   0.00000  Uiso   1.00
C37    C     0.31238   0.01476   0.23178   0.00000  Uiso   1.00
C38    C     0.02202   0.00298   0.20210   0.00000  Uiso   1.00
C39    C     0.23152   0.47117   0.34555   0.00000  Uiso   1.00
C40    C     0.28677   0.49149   0.34685   0.00000  Uiso   1.00
C41    C     0.31050   0.00625   0.39734   0.00000  Uiso   1.00
C42    C     0.14323   0.21548   0.09870   0.00000  Uiso   1.00
C43    C     0.20690   0.27030   0.40353   0.00000  Uiso   1.00
C44    C     0.19003   0.28456   0.10582   0.00000  Uiso   1.00
C45    C     0.12640   0.22967   0.39193   0.00000  Uiso   1.00
C46    C     0.19011   0.28543   0.05622   0.00000  Uiso   1.00
H47    H     0.32446   0.25113   0.19426   0.00000  Uiso   1.00
H48    H     0.23872   0.28623   0.38872   0.00000  Uiso   1.00
H49    H     0.20850   0.31180   0.12800   0.00000  Uiso   1.00
H50    H     0.09468   0.21361   0.36799   0.00000  Uiso   1.00
H51    H     0.20801   0.31399   0.04128   0.00000  Uiso   1.00
H52    H     0.09217   0.21385   0.45431   0.00000  Uiso   1.00
H53    H     0.12374   0.08335   0.36862   0.00000  Uiso   1.00
H54    H     0.04433   0.10873   0.40039   0.00000  Uiso   1.00
H55    H     0.30424   0.14435   0.34685   0.00000  Uiso   1.00
H56    H     0.31062   0.15498   0.26134   0.00000  Uiso   1.00
H57    H     0.05656   0.13067   0.22905   0.00000  Uiso   1.00
H58    H     0.00891   0.25183   0.30574   0.00000  Uiso   1.00
H59    H     0.17755   0.41448   0.11961   0.00000  Uiso   1.00
H60    H     0.12304   0.38325   0.04716   0.00000  Uiso   1.00
H61    H     0.03867   0.34406   0.05288   0.00000  Uiso   1.00
H62    H     0.00812   0.33685   0.13138   0.00000  Uiso   1.00
H63    H     0.06171   0.36830   0.20412   0.00000  Uiso   1.00
H64    H     0.00720   0.47752   0.17424   0.00000  Uiso   1.00
H65    H     0.03518   0.03360   0.18486   0.00000  Uiso   1.00
H66    H     0.05646   0.48879   0.22564   0.00000  Uiso   1.00
H67    H     0.32835   0.04047   0.25895   0.00000  Uiso   1.00
H68    H     0.30214   0.48381   0.25005   0.00000  Uiso   1.00
H69    H     0.12988   0.02157   0.29873   0.00000  Uiso   1.00
H70    H     0.24434   0.00559   0.17643   0.00000  Uiso   1.00
H71    H     0.27533   0.05927   0.17704   0.00000  Uiso   1.00
H72    H     0.28551   0.03234   0.41077   0.00000  Uiso   1.00
H73    H     0.31398   0.47704   0.42179   0.00000  Uiso   1.00
H74    H     0.01714   0.02066   0.39702   0.00000  Uiso   1.00
H75    H     0.31318   0.46625   0.33390   0.00000  Uiso   1.00
H76    H     0.28453   0.02155   0.32380   0.00000  Uiso   1.00
H77    H     0.20442   0.49726   0.35558   0.00000  Uiso   1.00
H78    H     0.23358   0.44504   0.37365   0.00000  Uiso   1.00
H79    H     0.15516   0.47787   0.18292   0.00000  Uiso   1.00
H80    H     0.23442   0.11931   0.20693   0.00000  Uiso   1.00
H81    H     0.21178   0.38398   0.32496   0.00000  Uiso   1.00
H82    H     0.12487   0.18630   0.02856   0.00000  Uiso   1.00
H83    H     0.24089   0.28622   0.47575   0.00000  Uiso   1.00
H84    H     0.12487   0.18818   0.11529   0.00000  Uiso   1.00
N85    N     0.16667   0.24999   0.12624   0.00000  Uiso   1.00
N86    N     0.16667   0.25001   0.37377   0.00000  Uiso   1.00
O87    O     0.16667   0.18454   0.28974   0.00000  Uiso   1.00
O88    O     0.16666   0.31547   0.21026   0.00000  Uiso   1.00
O89    O     0.16667   0.18453   0.21026   0.00000  Uiso   1.00
O90    O     0.16666   0.31547   0.28974   0.00000  Uiso   1.00
O91    O     0.09058   0.25000   0.28045   0.00000  Uiso   1.00
O92    O     0.24275   0.25000   0.21956   0.00000  Uiso   1.00
O93    O     0.09058   0.25000   0.20097   0.00000  Uiso   1.00
O94    O     0.24275   0.25001   0.29904   0.00000  Uiso   1.00
Zn95   Zn    0.16667   0.25001   0.30307   0.00000  Uiso   1.00
Zn96   Zn    0.16667   0.25000   0.19693   0.00000  Uiso   1.00
C97    C     0.50006   0.16379   0.24983   0.00000  Uiso   1.00
C98    C     0.45873   0.22952   0.44141   0.00000  Uiso   1.00
C99    C     0.49977   0.25014   0.02666   0.00000  Uiso   1.00
C100   C     0.49981   0.25011   0.47328   0.00000  Uiso   1.00
C101   C     0.40032   0.25039   0.23749   0.00000  Uiso   1.00
C102   C     0.59969   0.25060   0.26251   0.00000  Uiso   1.00
C103   C     0.34525   0.25130   0.23075   0.00000  Uiso   1.00
C104   C     0.65478   0.25166   0.26926   0.00000  Uiso   1.00
C105   C     0.48767   0.04338   0.28053   0.00000  Uiso   1.00
C106   C     0.50265   0.45683   0.21326   0.00000  Uiso   1.00
C107   C     0.47608   0.08871   0.27673   0.00000  Uiso   1.00
C108   C     0.50032   0.33645   0.25022   0.00000  Uiso   1.00
C109   C     0.49024   0.41134   0.21103   0.00000  Uiso   1.00
C110   C     0.50601   0.11581   0.25043   0.00000  Uiso   1.00
C111   C     0.50659   0.38494   0.25163   0.00000  Uiso   1.00
C112   C     0.54545   0.09756   0.22719   0.00000  Uiso   1.00
C113   C     0.53282   0.40464   0.29394   0.00000  Uiso   1.00
C114   C     0.55638   0.05178   0.22987   0.00000  Uiso   1.00
C115   C     0.54282   0.45069   0.29708   0.00000  Uiso   1.00
C116   C     0.52735   0.02496   0.25772   0.00000  Uiso   1.00
C117   C     0.52840   0.47648   0.25559   0.00000  Uiso   1.00
C118   C     0.42967   0.10574   0.29664   0.00000  Uiso   1.00
C119   C     0.47620   0.21479   0.04902   0.00000  Uiso   1.00
C120   C     0.42552   0.09931   0.34500   0.00000  Uiso   1.00
C121   C     0.38057   0.11356   0.36307   0.00000  Uiso   1.00
C122   C     0.33920   0.13368   0.33294   0.00000  Uiso   1.00
C123   C     0.34287   0.13984   0.28475   0.00000  Uiso   1.00
C124   C     0.38796   0.12618   0.26663   0.00000  Uiso   1.00
C125   C     0.45721   0.39332   0.16725   0.00000  Uiso   1.00
C126   C     0.47383   0.39785   0.12253   0.00000  Uiso   1.00
C127   C     0.44312   0.38011   0.08146   0.00000  Uiso   1.00
C128   C     0.39556   0.35796   0.08468   0.00000  Uiso   1.00
C129   C     0.37838   0.35386   0.12893   0.00000  Uiso   1.00
C130   C     0.54103   0.27058   0.45327   0.00000  Uiso   1.00
C131   C     0.40887   0.37166   0.17006   0.00000  Uiso   1.00
C132   C     0.59626   0.03274   0.20057   0.00000  Uiso   1.00
C133   C     0.64572   0.01476   0.23178   0.00000  Uiso   1.00
C134   C     0.35535   0.00298   0.20210   0.00000  Uiso   1.00
C135   C     0.56486   0.47117   0.34555   0.00000  Uiso   1.00
C136   C     0.62011   0.49149   0.34685   0.00000  Uiso   1.00
C137   C     0.64383   0.00625   0.39734   0.00000  Uiso   1.00
C138   C     0.47656   0.21548   0.09870   0.00000  Uiso   1.00
C139   C     0.54023   0.27030   0.40353   0.00000  Uiso   1.00
C140   C     0.52336   0.28456   0.10582   0.00000  Uiso   1.00
C141   C     0.45973   0.22967   0.39193   0.00000  Uiso   1.00
C142   C     0.52345   0.28543   0.05622   0.00000  Uiso   1.00
H143   H     0.65779   0.25113   0.19426   0.00000  Uiso   1.00
H144   H     0.57205   0.28623   0.38872   0.00000  Uiso   1.00
H145   H     0.54184   0.31180   0.12800   0.00000  Uiso   1.00
H146   H     0.42801   0.21361   0.36799   0.00000  Uiso   1.00
H147   H     0.54134   0.31399   0.04128   0.00000  Uiso   1.00
H148   H     0.42551   0.21385   0.45431   0.00000  Uiso   1.00
H149   H     0.45707   0.08335   0.36862   0.00000  Uiso   1.00
H150   H     0.37766   0.10873   0.40039   0.00000  Uiso   1.00
H151   H     0.63757   0.14435   0.34685   0.00000  Uiso   1.00
H152   H     0.64396   0.15498   0.26134   0.00000  Uiso   1.00
H153   H     0.38989   0.13067   0.22905   0.00000  Uiso   1.00
H154   H     0.34224   0.25183   0.30574   0.00000  Uiso   1.00
H155   H     0.51088   0.41448   0.11961   0.00000  Uiso   1.00
H156   H     0.45637   0.38325   0.04716   0.00000  Uiso   1.00
H157   H     0.37200   0.34406   0.05288   0.00000  Uiso   1.00
H158   H     0.34145   0.33685   0.13138   0.00000  Uiso   1.00
H159   H     0.39504   0.36830   0.20412   0.00000  Uiso   1.00
H160   H     0.34053   0.47752   0.17424   0.00000  Uiso   1.00
H161   H     0.36851   0.03360   0.18486   0.00000  Uiso   1.00
H162   H     0.38979   0.48879   0.22564   0.00000  Uiso   1.00
H163   H     0.66169   0.04047   0.25895   0.00000  Uiso   1.00
H164   H     0.63548   0.48381   0.25005   0.00000  Uiso   1.00
H165   H     0.46322   0.02157   0.29873   0.00000  Uiso   1.00
H166   H     0.57767   0.00559   0.17643   0.00000  Uiso   1.00
H167   H     0.60866   0.05927   0.17704   0.00000  Uiso   1.00
H168   H     0.61884   0.03234   0.41077   0.00000  Uiso   1.00
H169   H     0.64732   0.47704   0.42179   0.00000  Uiso   1.00
H170   H     0.35048   0.02066   0.39702   0.00000  Uiso   1.00
H171   H     0.64651   0.46625   0.33390   0.00000  Uiso   1.00
H172   H     0.61787   0.02155   0.32380   0.00000  Uiso   1.00
H173   H     0.53775   0.49726   0.35558   0.00000  Uiso   1.00
H174   H     0.56691   0.44504   0.37365   0.00000  Uiso   1.00
H175   H     0.48850   0.47787   0.18292   0.00000  Uiso   1.00
H176   H     0.56776   0.11931   0.20693   0.00000  Uiso   1.00
H177   H     0.54512   0.38398   0.32496   0.00000  Uiso   1.00
H178   H     0.45821   0.18630   0.02856   0.00000  Uiso   1.00
H179   H     0.57422   0.28622   0.47575   0.00000  Uiso   1.00
H180   H     0.45820   0.18818   0.11529   0.00000  Uiso   1.00
N181   N     0.50000   0.24999   0.12624   0.00000  Uiso   1.00
N182   N     0.50000   0.25001   0.37377   0.00000  Uiso   1.00
O183   O     0.50000   0.18454   0.28974   0.00000  Uiso   1.00
O184   O     0.50000   0.31547   0.21026   0.00000  Uiso   1.00
O185   O     0.50000   0.18453   0.21026   0.00000  Uiso   1.00
O186   O     0.50000   0.31547   0.28974   0.00000  Uiso   1.00
O187   O     0.42392   0.25000   0.28045   0.00000  Uiso   1.00
O188   O     0.57608   0.25000   0.21956   0.00000  Uiso   1.00
O189   O     0.42392   0.25000   0.20097   0.00000  Uiso   1.00
O190   O     0.57608   0.25001   0.29904   0.00000  Uiso   1.00
Zn191  Zn    0.50000   0.25001   0.30307   0.00000  Uiso   1.00
Zn192  Zn    0.50000   0.25000   0.19693   0.00000  Uiso   1.00
C193   C     0.83340   0.16379   0.24983   0.00000  Uiso   1.00
C194   C     0.79207   0.22952   0.44141   0.00000  Uiso   1.00
C195   C     0.83311   0.25014   0.02666   0.00000  Uiso   1.00
C196   C     0.83315   0.25011   0.47328   0.00000  Uiso   1.00
C197   C     0.73365   0.25039   0.23749   0.00000  Uiso   1.00
C198   C     0.93302   0.25060   0.26251   0.00000  Uiso   1.00
C199   C     0.67858   0.25130   0.23075   0.00000  Uiso   1.00
C200   C     0.98812   0.25166   0.26926   0.00000  Uiso   1.00
C201   C     0.82100   0.04338   0.28053   0.00000  Uiso   1.00
C202   C     0.83599   0.45683   0.21326   0.00000  Uiso   1.00
C203   C     0.80941   0.08871   0.27673   0.00000  Uiso   1.00
C204   C     0.83365   0.33645   0.25022   0.00000  Uiso   1.00
C205   C     0.82357   0.41134   0.21103   0.00000  Uiso   1.00
C206   C     0.83934   0.11581   0.25043   0.00000  Uiso   1.00
C207   C     0.83993   0.38494   0.25163   0.00000  Uiso   1.00
C208   C     0.87879   0.09756   0.22719   0.00000  Uiso   1.00
C209   C     0.86615   0.40464   0.29394   0.00000  Uiso   1.00
C210   C     0.88971   0.05178   0.22987   0.00000  Uiso   1.00
C211   C     0.87615   0.45069   0.29708   0.00000  Uiso   1.00
C212   C     0.86068   0.02496   0.25772   0.00000  Uiso   1.00
C213   C     0.86173   0.47648   0.25559   0.00000  Uiso   1.00
C214   C     0.76301   0.10574   0.29664   0.00000  Uiso   1.00
C215   C     0.80953   0.21479   0.04902   0.00000  Uiso   1.00
C216   C     0.75886   0.09931   0.34500   0.00000  Uiso   1.00
C217   C     0.71390   0.11356   0.36307   0.00000  Uiso   1.00
C218   C     0.67254   0.13368   0.33294   0.00000  Uiso   1.00
C219   C     0.67620   0.13984   0.28475   0.00000  Uiso   1.00
C220   C     0.72130   0.12618   0.26663   0.00000  Uiso   1.00
C221   C     0.79055   0.39332   0.16725   0.00000  Uiso   1.00
C222   C     0.80716   0.39785   0.12253   0.00000  Uiso   1.00
C223   C     0.77645   0.38011   0.08146   0.00000  Uiso   1.00
C224   C     0.72890   0.35796   0.08468   0.00000  Uiso   1.00
C225   C     0.71171   0.35386   0.12893   0.00000  Uiso   1.00
C226   C     0.87436   0.27058   0.45327   0.00000  Uiso   1.00
C227   C     0.74220   0.37166   0.17006   0.00000  Uiso   1.00
C228   C     0.92960   0.03274   0.20057   0.00000  Uiso   1.00
C229   C     0.97905   0.01476   0.23178   0.00000  Uiso   1.00
C230   C     0.68868   0.00298   0.20210   0.00000  Uiso   1.00
C231   C     0.89819   0.47117   0.34555   0.00000  Uiso   1.00
C232   C     0.95344   0.49149   0.34685   0.00000  Uiso   1.00
C233   C     0.97716   0.00625   0.39734   0.00000  Uiso   1.00
C234   C     0.80989   0.21548   0.09870   0.00000  Uiso   1.00
C235   C     0.87356   0.27030   0.40353   0.00000  Uiso   1.00
C236   C     0.85670   0.28456   0.10582   0.00000  Uiso   1.00
C237   C     0.79306   0.22967   0.39193   0.00000  Uiso   1.00
C238   C     0.85678   0.28543   0.05622   0.00000  Uiso   1.00
H239   H     0.99113   0.25113   0.19426   0.00000  Uiso   1.00
H240   H     0.90539   0.28623   0.38872   0.00000  Uiso   1.00
H241   H     0.87517   0.31180   0.12800   0.00000  Uiso   1.00
H242   H     0.76135   0.21361   0.36799   0.00000  Uiso   1.00
H243   H     0.87468   0.31399   0.04128   0.00000  Uiso   1.00
H244   H     0.75884   0.21385   0.45431   0.00000  Uiso   1.00
H245   H     0.79040   0.08335   0.36862   0.00000  Uiso   1.00
H246   H     0.71100   0.10873   0.40039   0.00000  Uiso   1.00
H247   H     0.97091   0.14435   0.34685   0.00000  Uiso   1.00
H248   H     0.97729   0.15498   0.26134   0.00000  Uiso   1.00
H249   H     0.72322   0.13067   0.22905   0.00000  Uiso   1.00
H250   H     0.67558   0.25183   0.30574   0.00000  Uiso   1.00
H251   H     0.84422   0.41448   0.11961   0.00000  Uiso   1.00
H252   H     0.78970   0.38325   0.04716   0.00000  Uiso   1.00
H253   H     0.70533   0.34406   0.05288   0.00000  Uiso   1.00
H254   H     0.67479   0.33685   0.13138   0.00000  Uiso   1.00
H255   H     0.72838   0.36830   0.20412   0.00000  Uiso   1.00
H256   H     0.67386   0.47752   0.17424   0.00000  Uiso   1.00
H257   H     0.70185   0.03360   0.18486   0.00000  Uiso   1.00
H258   H     0.72312   0.48879   0.22564   0.00000  Uiso   1.00
H259   H     0.99502   0.04047   0.25895   0.00000  Uiso   1.00
H260   H     0.96881   0.48381   0.25005   0.00000  Uiso   1.00
H261   H     0.79655   0.02157   0.29873   0.00000  Uiso   1.00
H262   H     0.91101   0.00559   0.17643   0.00000  Uiso   1.00
H263   H     0.94200   0.05927   0.17704   0.00000  Uiso   1.00
H264   H     0.95217   0.03234   0.41077   0.00000  Uiso   1.00
H265   H     0.98065   0.47704   0.42179   0.00000  Uiso   1.00
H266   H     0.68381   0.02066   0.39702   0.00000  Uiso   1.00
H267   H     0.97984   0.46625   0.33390   0.00000  Uiso   1.00
H268   H     0.95120   0.02155   0.32380   0.00000  Uiso   1.00
H269   H     0.87108   0.49726   0.35558   0.00000  Uiso   1.00
H270   H     0.90025   0.44504   0.37365   0.00000  Uiso   1.00
H271   H     0.82183   0.47787   0.18292   0.00000  Uiso   1.00
H272   H     0.90109   0.11931   0.20693   0.00000  Uiso   1.00
H273   H     0.87845   0.38398   0.32496   0.00000  Uiso   1.00
H274   H     0.79154   0.18630   0.02856   0.00000  Uiso   1.00
H275   H     0.90755   0.28622   0.47575   0.00000  Uiso   1.00
H276   H     0.79154   0.18818   0.11529   0.00000  Uiso   1.00
N277   N     0.83333   0.24999   0.12624   0.00000  Uiso   1.00
N278   N     0.83333   0.25001   0.37377   0.00000  Uiso   1.00
O279   O     0.83334   0.18454   0.28974   0.00000  Uiso   1.00
O280   O     0.83333   0.31547   0.21026   0.00000  Uiso   1.00
O281   O     0.83334   0.18453   0.21026   0.00000  Uiso   1.00
O282   O     0.83333   0.31547   0.28974   0.00000  Uiso   1.00
O283   O     0.75725   0.25000   0.28045   0.00000  Uiso   1.00
O284   O     0.90942   0.25000   0.21956   0.00000  Uiso   1.00
O285   O     0.75725   0.25000   0.20097   0.00000  Uiso   1.00
O286   O     0.90942   0.25001   0.29904   0.00000  Uiso   1.00
Zn287  Zn    0.83333   0.25001   0.30307   0.00000  Uiso   1.00
Zn288  Zn    0.83333   0.25000   0.19693   0.00000  Uiso   1.00
C289   C     0.16673   0.66379   0.24983   0.00000  Uiso   1.00
C290   C     0.12540   0.72952   0.44141   0.00000  Uiso   1.00
C291   C     0.16644   0.75014   0.02666   0.00000  Uiso   1.00
C292   C     0.16648   0.75011   0.47328   0.00000  Uiso   1.00
C293   C     0.06699   0.75039   0.23749   0.00000  Uiso   1.00
C294   C     0.26635   0.75060   0.26251   0.00000  Uiso   1.00
C295   C     0.01192   0.75130   0.23075   0.00000  Uiso   1.00
C296   C     0.32145   0.75166   0.26926   0.00000  Uiso   1.00
C297   C     0.15434   0.54338   0.28053   0.00000  Uiso   1.00
C298   C     0.16932   0.95683   0.21326   0.00000  Uiso   1.00
C299   C     0.14274   0.58871   0.27673   0.00000  Uiso   1.00
C300   C     0.16699   0.83645   0.25022   0.00000  Uiso   1.00
C301   C     0.15691   0.91134   0.21103   0.00000  Uiso   1.00
C302   C     0.17268   0.61581   0.25043   0.00000  Uiso   1.00
C303   C     0.17326   0.88494   0.25163   0.00000  Uiso   1.00
C304   C     0.21212   0.59756   0.22719   0.00000  Uiso   1.00
C305   C     0.19948   0.90464   0.29394   0.00000  Uiso   1.00
C306   C     0.22305   0.55178   0.22987   0.00000  Uiso   1.00
C307   C     0.20948   0.95069   0.29708   0.00000  Uiso   1.00
C308   C     0.19401   0.52496   0.25772   0.00000  Uiso   1.00
C309   C     0.19506   0.97648   0.25559   0.00000  Uiso   1.00
C310   C     0.09634   0.60574   0.29664   0.00000  Uiso   1.00
C311   C     0.14287   0.71479   0.04902   0.00000  Uiso   1.00
C312   C     0.09219   0.59931   0.34500   0.00000  Uiso   1.00
C313   C     0.04724   0.61356   0.36307   0.00000  Uiso   1.00
C314   C     0.00587   0.63368   0.33294   0.00000  Uiso   1.00
C315   C     0.00954   0.63984   0.28475   0.00000  Uiso   1.00
C316   C     0.05463   0.62618   0.26663   0.00000  Uiso   1.00
C317   C     0.12388   0.89332   0.16725   0.00000  Uiso   1.00
C318   C     0.14050   0.89785   0.12253   0.00000  Uiso   1.00
C319   C     0.10978   0.88011   0.08146   0.00000  Uiso   1.00
C320   C     0.06223   0.85796   0.08468   0.00000  Uiso   1.00
C321   C     0.04504   0.85386   0.12893   0.00000  Uiso   1.00
C322   C     0.20769   0.77058   0.45327   0.00000  Uiso   1.00
C323   C     0.07554   0.87166   0.17006   0.00000  Uiso   1.00
C324   C     0.26293   0.53274   0.20057   0.00000  Uiso   1.00
C325   C     0.31238   0.51476   0.23178   0.00000  Uiso   1.00
C326   C     0.02202   0.50298   0.20210   0.00000  Uiso   1.00
C327   C     0.23152   0.97117   0.34555   0.00000  Uiso   1.00
C328   C     0.28677   0.99149   0.34685   0.00000  Uiso   1.00
C329   C     0.31050   0.50625   0.39734   0.00000  Uiso   1.00
C330   C     0.14323   0.71548   0.09870   0.00000  Uiso   1.00
C331   C     0.20690   0.77030   0.40353   0.00000  Uiso   1.00
C332   C     0.19003   0.78456   0.10582   0.00000  Uiso   1.00
C333   C     0.12640   0.72967   0.39193   0.00000  Uiso   1.00
C334   C     0.19011   0.78543   0.05622   0.00000  Uiso   1.00
H335   H     0.32446   0.75113   0.19426   0.00000  Uiso   1.00
H336   H     0.23872   0.78623   0.38872   0.00000  Uiso   1.00
H337   H     0.20850   0.81180   0.12800   0.00000  Uiso   1.00
H338   H     0.09468   0.71361   0.36799   0.00000  Uiso   1.00
H339   H     0.20801   0.81399   0.04128   0.00000  Uiso   1.00
H340   H     0.09217   0.71385   0.45431   0.00000  Uiso   1.00
H341   H     0.12374   0.58335   0.36862   0.00000  Uiso   1.00
H342   H     0.04433   0.60873   0.40039   0.00000  Uiso   1.00
H343   H     0.30424   0.64435   0.34685   0.00000  Uiso   1.00
H344   H     0.31062   0.65498   0.26134   0.00000  Uiso   1.00
H345   H     0.05656   0.63067   0.22905   0.00000  Uiso   1.00
H346   H     0.00891   0.75183   0.30574   0.00000  Uiso   1.00
H347   H     0.17755   0.91448   0.11961   0.00000  Uiso   1.00
H348   H     0.12304   0.88325   0.04716   0.00000  Uiso   1.00
H349   H     0.03867   0.84406   0.05288   0.00000  Uiso   1.00
H350   H     0.00812   0.83685   0.13138   0.00000  Uiso   1.00
H351   H     0.06171   0.86830   0.20412   0.00000  Uiso   1.00
H352   H     0.00720   0.97752   0.17424   0.00000  Uiso   1.00
H353   H     0.03518   0.53360   0.18486   0.00000  Uiso   1.00
H354   H     0.05646   0.98879   0.22564   0.00000  Uiso   1.00
H355   H     0.32835   0.54047   0.25895   0.00000  Uiso   1.00
H356   H     0.30214   0.98381   0.25005   0.00000  Uiso   1.00
H357   H     0.12988   0.52157   0.29873   0.00000  Uiso   1.00
H358   H     0.24434   0.50559   0.17643   0.00000  Uiso   1.00
H359   H     0.27533   0.55927   0.17704   0.00000  Uiso   1.00
H360   H     0.28551   0.53234   0.41077   0.00000  Uiso   1.00
H361   H     0.31398   0.97704   0.42179   0.00000  Uiso   1.00
H362   H     0.01714   0.52066   0.39702   0.00000  Uiso   1.00
H363   H     0.31318   0.96625   0.33390   0.00000  Uiso   1.00
H364   H     0.28453   0.52155   0.32380   0.00000  Uiso   1.00
H365   H     0.20442   0.99726   0.35558   0.00000  Uiso   1.00
H366   H     0.23358   0.94504   0.37365   0.00000  Uiso   1.00
H367   H     0.15516   0.97787   0.18292   0.00000  Uiso   1.00
H368   H     0.23442   0.61931   0.20693   0.00000  Uiso   1.00
H369   H     0.21178   0.88398   0.32496   0.00000  Uiso   1.00
H370   H     0.12487   0.68630   0.02856   0.00000  Uiso   1.00
H371   H     0.24089   0.78622   0.47575   0.00000  Uiso   1.00
H372   H     0.12487   0.68818   0.11529   0.00000  Uiso   1.00
N373   N     0.16667   0.74999   0.12624   0.00000  Uiso   1.00
N374   N     0.16667   0.75001   0.37377   0.00000  Uiso   1.00
O375   O     0.16667   0.68454   0.28974   0.00000  Uiso   1.00
O376   O     0.16666   0.81547   0.21026   0.00000  Uiso   1.00
O377   O     0.16667   0.68453   0.21026   0.00000  Uiso   1.00
O378   O     0.16666   0.81547   0.28974   0.00000  Uiso   1.00
O379   O     0.09058   0.75000   0.28045   0.00000  Uiso   1.00
O380   O     0.24275   0.75000   0.21956   0.00000  Uiso   1.00
O381   O     0.09058   0.75000   0.20097   0.00000  Uiso   1.00
O382   O     0.24275   0.75001   0.29904   0.00000  Uiso   1.00
Zn383  Zn    0.16667   0.75001   0.30307   0.00000  Uiso   1.00
Zn384  Zn    0.16667   0.75000   0.19693   0.00000  Uiso   1.00
C385   C     0.50006   0.66379   0.24983   0.00000  Uiso   1.00
C386   C     0.45873   0.72952   0.44141   0.00000  Uiso   1.00
C387   C     0.49977   0.75014   0.02666   0.00000  Uiso   1.00
C388   C     0.49981   0.75011   0.47328   0.00000  Uiso   1.00
C389   C     0.40032   0.75039   0.23749   0.00000  Uiso   1.00
C390   C     0.59969   0.75060   0.26251   0.00000  Uiso   1.00
C391   C     0.34525   0.75130   0.23075   0.00000  Uiso   1.00
C392   C     0.65478   0.75166   0.26926   0.00000  Uiso   1.00
C393   C     0.48767   0.54338   0.28053   0.00000  Uiso   1.00
C394   C     0.50265   0.95683   0.21326   0.00000  Uiso   1.00
C395   C     0.47608   0.58871   0.27673   0.00000  Uiso   1.00
C396   C     0.50032   0.83645   0.25022   0.00000  Uiso   1.00
C397   C     0.49024   0.91134   0.21103   0.00000  Uiso   1.00
C398   C     0.50601   0.61581   0.25043   0.00000  Uiso   1.00
C399   C     0.50659   0.88494   0.25163   0.00000  Uiso   1.00
C400   C     0.54545   0.59756   0.22719   0.00000  Uiso   1.00
C401   C     0.53282   0.90464   0.29394   0.00000  Uiso   1.00
C402   C     0.55638   0.55178   0.22987   0.00000  Uiso   1.00
C403   C     0.54282   0.95069   0.29708   0.00000  Uiso   1.00
C404   C     0.52735   0.52496   0.25772   0.00000  Uiso   1.00
C405   C     0.52840   0.97648   0.25559   0.00000  Uiso   1.00
C406   C     0.42967   0.60574   0.29664   0.00000  Uiso   1.00
C407   C     0.47620   0.71479   0.04902   0.00000  Uiso   1.00
C408   C     0.42552   0.59931   0.34500   0.00000  Uiso   1.00
C409   C     0.38057   0.61356   0.36307   0.00000  Uiso   1.00
C410   C     0.33920   0.63368   0.33294   0.00000  Uiso   1.00
C411   C     0.34287   0.63984   0.28475   0.00000  Uiso   1.00
C412   C     0.38796   0.62618   0.26663   0.00000  Uiso   1.00
C413   C     0.45721   0.89332   0.16725   0.00000  Uiso   1.00
C414   C     0.47383   0.89785   0.12253   0.00000  Uiso   1.00
C415   C     0.44312   0.88011   0.08146   0.00000  Uiso   1.00
C416   C     0.39556   0.85796   0.08468   0.00000  Uiso   1.00
C417   C     0.37838   0.85386   0.12893   0.00000  Uiso   1.00
C418   C     0.54103   0.77058   0.45327   0.00000  Uiso   1.00
C419   C     0.40887   0.87166   0.17006   0.00000  Uiso   1.00
C420   C     0.59626   0.53274   0.20057   0.00000  Uiso   1.00
C421   C     0.64572   0.51476   0.23178   0.00000  Uiso   1.00
C422   C     0.35535   0.50298   0.20210   0.00000  Uiso   1.00
C423   C     0.56486   0.97117   0.34555   0.00000  Uiso   1.00
C424   C     0.62011   0.99149   0.34685   0.00000  Uiso   1.00
C425   C     0.64383   0.50625   0.39734   0.00000  Uiso   1.00
C426   C     0.47656   0.71548   0.09870   0.00000  Uiso   1.00
C427   C     0.54023   0.77030   0.40353   0.00000  Uiso   1.00
C428   C     0.52336   0.78456   0.10582   0.00000  Uiso   1.00
C429   C     0.45973   0.72967   0.39193   0.00000  Uiso   1.00
C430   C     0.52345   0.78543   0.05622   0.00000  Uiso   1.00
H431   H     0.65779   0.75113   0.19426   0.00000  Uiso   1.00
H432   H     0.57205   0.78623   0.38872   0.00000  Uiso   1.00
H433   H     0.54184   0.81180   0.12800   0.00000  Uiso   1.00
H434   H     0.42801   0.71361   0.36799   0.00000  Uiso   1.00
H435   H     0.54134   0.81399   0.04128   0.00000  Uiso   1.00
H436   H     0.42551   0.71385   0.45431   0.00000  Uiso   1.00
H437   H     0.45707   0.58335   0.36862   0.00000  Uiso   1.00
H438   H     0.37766   0.60873   0.40039   0.00000  Uiso   1.00
H439   H     0.63757   0.64435   0.34685   0.00000  Uiso   1.00
H440   H     0.64396   0.65498   0.26134   0.00000  Uiso   1.00
H441   H     0.38989   0.63067   0.22905   0.00000  Uiso   1.00
H442   H     0.34224   0.75183   0.30574   0.00000  Uiso   1.00
H443   H     0.51088   0.91448   0.11961   0.00000  Uiso   1.00
H444   H     0.45637   0.88325   0.04716   0.00000  Uiso   1.00
H445   H     0.37200   0.84406   0.05288   0.00000  Uiso   1.00
H446   H     0.34145   0.83685   0.13138   0.00000  Uiso   1.00
H447   H     0.39504   0.86830   0.20412   0.00000  Uiso   1.00
H448   H     0.34053   0.97752   0.17424   0.00000  Uiso   1.00
H449   H     0.36851   0.53360   0.18486   0.00000  Uiso   1.00
H450   H     0.38979   0.98879   0.22564   0.00000  Uiso   1.00
H451   H     0.66169   0.54047   0.25895   0.00000  Uiso   1.00
H452   H     0.63548   0.98381   0.25005   0.00000  Uiso   1.00
H453   H     0.46322   0.52157   0.29873   0.00000  Uiso   1.00
H454   H     0.57767   0.50559   0.17643   0.00000  Uiso   1.00
H455   H     0.60866   0.55927   0.17704   0.00000  Uiso   1.00
H456   H     0.61884   0.53234   0.41077   0.00000  Uiso   1.00
H457   H     0.64732   0.97704   0.42179   0.00000  Uiso   1.00
H458   H     0.35048   0.52066   0.39702   0.00000  Uiso   1.00
H459   H     0.64651   0.96625   0.33390   0.00000  Uiso   1.00
H460   H     0.61787   0.52155   0.32380   0.00000  Uiso   1.00
H461   H     0.53775   0.99726   0.35558   0.00000  Uiso   1.00
H462   H     0.56691   0.94504   0.37365   0.00000  Uiso   1.00
H463   H     0.48850   0.97787   0.18292   0.00000  Uiso   1.00
H464   H     0.56776   0.61931   0.20693   0.00000  Uiso   1.00
H465   H     0.54512   0.88398   0.32496   0.00000  Uiso   1.00
H466   H     0.45821   0.68630   0.02856   0.00000  Uiso   1.00
H467   H     0.57422   0.78622   0.47575   0.00000  Uiso   1.00
H468   H     0.45820   0.68818   0.11529   0.00000  Uiso   1.00
N469   N     0.50000   0.74999   0.12624   0.00000  Uiso   1.00
N470   N     0.50000   0.75001   0.37377   0.00000  Uiso   1.00
O471   O     0.50000   0.68454   0.28974   0.00000  Uiso   1.00
O472   O     0.50000   0.81547   0.21026   0.00000  Uiso   1.00
O473   O     0.50000   0.68453   0.21026   0.00000  Uiso   1.00
O474   O     0.50000   0.81547   0.28974   0.00000  Uiso   1.00
O475   O     0.42392   0.75000   0.28045   0.00000  Uiso   1.00
O476   O     0.57608   0.75000   0.21956   0.00000  Uiso   1.00
O477   O     0.42392   0.75000   0.20097   0.00000  Uiso   1.00
O478   O     0.57608   0.75001   0.29904   0.00000  Uiso   1.00
Zn479  Zn    0.50000   0.75001   0.30307   0.00000  Uiso   1.00
Zn480  Zn    0.50000   0.75000   0.19693   0.00000  Uiso   1.00
C481   C     0.83340   0.66379   0.24983   0.00000  Uiso   1.00
C482   C     0.79207   0.72952   0.44141   0.00000  Uiso   1.00
C483   C     0.83311   0.75014   0.02666   0.00000  Uiso   1.00
C484   C     0.83315   0.75011   0.47328   0.00000  Uiso   1.00
C485   C     0.73365   0.75039   0.23749   0.00000  Uiso   1.00
C486   C     0.93302   0.75060   0.26251   0.00000  Uiso   1.00
C487   C     0.67858   0.75130   0.23075   0.00000  Uiso   1.00
C488   C     0.98812   0.75166   0.26926   0.00000  Uiso   1.00
C489   C     0.82100   0.54338   0.28053   0.00000  Uiso   1.00
C490   C     0.83599   0.95683   0.21326   0.00000  Uiso   1.00
C491   C     0.80941   0.58871   0.27673   0.00000  Uiso   1.00
C492   C     0.83365   0.83645   0.25022   0.00000  Uiso   1.00
C493   C     0.82357   0.91134   0.21103   0.00000  Uiso   1.00
C494   C     0.83934   0.61581   0.25043   0.00000  Uiso   1.00
C495   C     0.83993   0.88494   0.25163   0.00000  Uiso   1.00
C496   C     0.87879   0.59756   0.22719   0.00000  Uiso   1.00
C497   C     0.86615   0.90464   0.29394   0.00000  Uiso   1.00
C498   C     0.88971   0.55178   0.22987   0.00000  Uiso   1.00
C499   C     0.87615   0.95069   0.29708   0.00000  Uiso   1.00
C500   C     0.86068   0.52496   0.25772   0.00000  Uiso   1.00
C501   C     0.86173   0.97648   0.25559   0.00000  Uiso   1.00
C502   C     0.76301   0.60574   0.29664   0.00000  Uiso   1.00
C503   C     0.80953   0.71479   0.04902   0.00000  Uiso   1.00
C504   C     0.75886   0.59931   0.34500   0.00000  Uiso   1.00
C505   C     0.71390   0.61356   0.36307   0.00000  Uiso   1.00
C506   C     0.67254   0.63368   0.33294   0.00000  Uiso   1.00
C507   C     0.67620   0.63984   0.28475   0.00000  Uiso   1.00
C508   C     0.72130   0.62618   0.26663   0.00000  Uiso   1.00
C509   C     0.79055   0.89332   0.16725   0.00000  Uiso   1.00
C510   C     0.80716   0.89785   0.12253   0.00000  Uiso   1.00
C511   C     0.77645   0.88011   0.08146   0.00000  Uiso   1.00
C512   C     0.72890   0.85796   0.08468   0.00000  Uiso   1.00
C513   C     0.71171   0.85386   0.12893   0.00000  Uiso   1.00
C514   C     0.87436   0.77058   0.45327   0.00000  Uiso   1.00
C515   C     0.74220   0.87166   0.17006   0.00000  Uiso   1.00
C516   C     0.92960   0.53274   0.20057   0.00000  Uiso   1.00
C517   C     0.97905   0.51476   0.23178   0.00000  Uiso   1.00
C518   C     0.68868   0.50298   0.20210   0.00000  Uiso   1.00
C519   C     0.89819   0.97117   0.34555   0.00000  Uiso   1.00
C520   C     0.95344   0.99149   0.34685   0.00000  Uiso   1.00
C521   C     0.97716   0.50625   0.39734   0.00000  Uiso   1.00
C522   C     0.80989   0.71548   0.09870   0.00000  Uiso   1.00
C523   C     0.87356   0.77030   0.40353   0.00000  Uiso   1.00
C524   C     0.85670   0.78456   0.10582   0.00000  Uiso   1.00
C525   C     0.79306   0.72967   0.39193   0.00000  Uiso   1.00
C526   C     0.85678   0.78543   0.05622   0.00000  Uiso   1.00
H527   H     0.99113   0.75113   0.19426   0.00000  Uiso   1.00
H528   H     0.90539   0.78623   0.38872   0.00000  Uiso   1.00
H529   H     0.87517   0.81180   0.12800   0.00000  Uiso   1.00
H530   H     0.76135   0.71361   0.36799   0.00000  Uiso   1.00
H531   H     0.87468   0.81399   0.04128   0.00000  Uiso   1.00
H532   H     0.75884   0.71385   0.45431   0.00000  Uiso   1.00
H533   H     0.79040   0.58335   0.36862   0.00000  Uiso   1.00
H534   H     0.71100   0.60873   0.40039   0.00000  Uiso   1.00
H535   H     0.97091   0.64435   0.34685   0.00000  Uiso   1.00
H536   H     0.97729   0.65498   0.26134   0.00000  Uiso   1.00
H537   H     0.72322   0.63067   0.22905   0.00000  Uiso   1.00
H538   H     0.67558   0.75183   0.30574   0.00000  Uiso   1.00
H539   H     0.84422   0.91448   0.11961   0.00000  Uiso   1.00
H540   H     0.78970   0.88325   0.04716   0.00000  Uiso   1.00
H541   H     0.70533   0.84406   0.05288   0.00000  Uiso   1.00
H542   H     0.67479   0.83685   0.13138   0.00000  Uiso   1.00
H543   H     0.72838   0.86830   0.20412   0.00000  Uiso   1.00
H544   H     0.67386   0.97752   0.17424   0.00000  Uiso   1.00
H545   H     0.70185   0.53360   0.18486   0.00000  Uiso   1.00
H546   H     0.72312   0.98879   0.22564   0.00000  Uiso   1.00
H547   H     0.99502   0.54047   0.25895   0.00000  Uiso   1.00
H548   H     0.96881   0.98381   0.25005   0.00000  Uiso   1.00
H549   H     0.79655   0.52157   0.29873   0.00000  Uiso   1.00
H550   H     0.91101   0.50559   0.17643   0.00000  Uiso   1.00
H551   H     0.94200   0.55927   0.17704   0.00000  Uiso   1.00
H552   H     0.95217   0.53234   0.41077   0.00000  Uiso   1.00
H553   H     0.98065   0.97704   0.42179   0.00000  Uiso   1.00
H554   H     0.68381   0.52066   0.39702   0.00000  Uiso   1.00
H555   H     0.97984   0.96625   0.33390   0.00000  Uiso   1.00
H556   H     0.95120   0.52155   0.32380   0.00000  Uiso   1.00
H557   H     0.87108   0.99726   0.35558   0.00000  Uiso   1.00
H558   H     0.90025   0.94504   0.37365   0.00000  Uiso   1.00
H559   H     0.82183   0.97787   0.18292   0.00000  Uiso   1.00
H560   H     0.90109   0.61931   0.20693   0.00000  Uiso   1.00
H561   H     0.87845   0.88398   0.32496   0.00000  Uiso   1.00
H562   H     0.79154   0.68630   0.02856   0.00000  Uiso   1.00
H563   H     0.90755   0.78622   0.47575   0.00000  Uiso   1.00
H564   H     0.79154   0.68818   0.11529   0.00000  Uiso   1.00
N565   N     0.83333   0.74999   0.12624   0.00000  Uiso   1.00
N566   N     0.83333   0.75001   0.37377   0.00000  Uiso   1.00
O567   O     0.83334   0.68454   0.28974   0.00000  Uiso   1.00
O568   O     0.83333   0.81547   0.21026   0.00000  Uiso   1.00
O569   O     0.83334   0.68453   0.21026   0.00000  Uiso   1.00
O570   O     0.83333   0.81547   0.28974   0.00000  Uiso   1.00
O571   O     0.75725   0.75000   0.28045   0.00000  Uiso   1.00
O572   O     0.90942   0.75000   0.21956   0.00000  Uiso   1.00
O573   O     0.75725   0.75000   0.20097   0.00000  Uiso   1.00
O574   O     0.90942   0.75001   0.29904   0.00000  Uiso   1.00
Zn575  Zn    0.83333   0.75001   0.30307   0.00000  Uiso   1.00
Zn576  Zn    0.83333   0.75000   0.19693   0.00000  Uiso   1.00
C577   C     0.16673   0.16379   0.74983   0.00000  Uiso   1.00
C578   C     0.12540   0.22952   0.94141   0.00000  Uiso   1.00
C579   C     0.16644   0.25014   0.52666   0.00000  Uiso   1.00
C580   C     0.16648   0.25011   0.97328   0.00000  Uiso   1.00
C581   C     0.06699   0.25039   0.73749   0.00000  Uiso   1.00
C582   C     0.26635   0.25060   0.76251   0.00000  Uiso   1.00
C583   C     0.01192   0.25130   0.73075   0.00000  Uiso   1.00
C584   C     0.32145   0.25166   0.76926   0.00000  Uiso   1.00
C585   C     0.15434   0.04338   0.78053   0.00000  Uiso   1.00
C586   C     0.16932   0.45683   0.71326   0.00000  Uiso   1.00
C587   C     0.14274   0.08871   0.77673   0.00000  Uiso   1.00
C588   C     0.16699   0.33645   0.75022   0.00000  Uiso   1.00
C589   C     0.15691   0.41134   0.71103   0.00000  Uiso   1.00
C590   C     0.17268   0.11581   0.75043   0.00000  Uiso   1.00
C591   C     0.17326   0.38494   0.75163   0.00000  Uiso   1.00
C592   C     0.21212   0.09756   0.72719   0.00000  Uiso   1.00
C593   C     0.19948   0.40464   0.79394   0.00000  Uiso   1.00
C594   C     0.22305   0.05178   0.72987   0.00000  Uiso   1.00
C595   C     0.20948   0.45069   0.79708   0.00000  Uiso   1.00
C596   C     0.19401   0.02496   0.75772   0.00000  Uiso   1.00
C597   C     0.19506   0.47648   0.75559   0.00000  Uiso   1.00
C598   C     0.09634   0.10574   0.79664   0.00000  Uiso   1.00
C599   C     0.14287   0.21479   0.54902   0.00000  Uiso   1.00
C600   C     0.09219   0.09931   0.84500   0.00000  Uiso   1.00
C601   C     0.04724   0.11356   0.86307   0.00000  Uiso   1.00
C602   C     0.00587   0.13368   0.83294   0.00000  Uiso   1.00
C603   C     0.00954   0.13984   0.78475   0.00000  Uiso   1.00
C604   C     0.05463   0.12618   0.76663   0.00000  Uiso   1.00
C605   C     0.12388   0.39332   0.66725   0.00000  Uiso   1.00
C606   C     0.14050   0.39785   0.62253   0.00000  Uiso   1.00
C607   C     0.10978   0.38011   0.58146   0.00000  Uiso   1.00
C608   C     0.06223   0.35796   0.58468   0.00000  Uiso   1.00
C609   C     0.04504   0.35386   0.62893   0.00000  Uiso   1.00
C610   C     0.20769   0.27058   0.95327   0.00000  Uiso   1.00
C611   C     0.07554   0.37166   0.67006   0.00000  Uiso   1.00
C612   C     0.26293   0.03274   0.70057   0.00000  Uiso   1.00
C613   C     0.31238   0.01476   0.73178   0.00000  Uiso   1.00
C614   C     0.02202   0.00298   0.70210   0.00000  Uiso   1.00
C615   C     0.23152   0.47117   0.84555   0.00000  Uiso   1.00
C616   C     0.28677   0.49149   0.84685   0.00000  Uiso   1.00
C617   C     0.31050   0.00625   0.89734   0.00000  Uiso   1.00
C618   C     0.14323   0.21548   0.59870   0.00000  Uiso   1.00
C619   C     0.20690   0.27030   0.90353   0.00000  Uiso   1.00
C620   C     0.19003   0.28456   0.60582   0.00000  Uiso   1.00
C621   C     0.12640   0.22967   0.89193   0.00000  Uiso   1.00
C622   C     0.19011   0.28543   0.55622   0.00000  Uiso   1.00
H623   H     0.32446   0.25113   0.69426   0.00000  Uiso   1.00
H624   H     0.23872   0.28623   0.88872   0.00000  Uiso   1.00
H625   H     0.20850   0.31180   0.62800   0.00000  Uiso   1.00
H626   H     0.09468   0.21361   0.86799   0.00000  Uiso   1.00
H627   H     0.20801   0.31399   0.54128   0.00000  Uiso   1.00
H628   H     0.09217   0.21385   0.95431   0.00000  Uiso   1.00
H629   H     0.12374   0.08335   0.86862   0.00000  Uiso   1.00
H630   H     0.04433   0.10873   0.90039   0.00000  Uiso   1.00
H631   H     0.30424   0.14435   0.84685   0.00000  Uiso   1.00
H632   H     0.31062   0.15498   0.76134   0.00000  Uiso   1.00
H633   H     0.05656   0.13067   0.72905   0.00000  Uiso   1.00
H634   H     0.00891   0.25183   0.80574   0.00000  Uiso   1.00
H635   H     0.17755   0.41448   0.61961   0.00000  Uiso   1.00
H636   H     0.12304   0.38325   0.54716   0.00000  Uiso   1.00
H637   H     0.03867   0.34406   0.55288   0.00000  Uiso   1.00
H638   H     0.00812   0.33685   0.63138   0.00000  Uiso   1.00
H639   H     0.06171   0.36830   0.70412   0.00000  Uiso   1.00
H640   H     0.00720   0.47752   0.67424   0.00000  Uiso   1.00
H641   H     0.03518   0.03360   0.68486   0.00000  Uiso   1.00
H642   H     0.05646   0.48879   0.72564   0.00000  Uiso   1.00
H643   H     0.32835   0.04047   0.75895   0.00000  Uiso   1.00
H644   H     0.30214   0.48381   0.75005   0.00000  Uiso   1.00
H645   H     0.12988   0.02157   0.79873   0.00000  Uiso   1.00
H646   H     0.24434   0.00559   0.67643   0.00000  Uiso   1.00
H647   H     0.27533   0.05927   0.67704   0.00000  Uiso   1.00
H648   H     0.28551   0.03234   0.91077   0.00000  Uiso   1.00
H649   H     0.31398   0.47704   0.92179   0.00000  Uiso   1.00
H650   H     0.01714   0.02066   0.89702   0.00000  Uiso   1.00
H651   H     0.31318   0.46625   0.83390   0.00000  Uiso   1.00
H652   H     0.28453   0.02155   0.82380   0.00000  Uiso   1.00
H653   H     0.20442   0.49726   0.85558   0.00000  Uiso   1.00
H654   H     0.23358   0.44504   0.87365   0.00000  Uiso   1.00
H655   H     0.15516   0.47787   0.68292   0.00000  Uiso   1.00
H656   H     0.23442   0.11931   0.70693   0.00000  Uiso   1.00
H657   H     0.21178   0.38398   0.82496   0.00000  Uiso   1.00
H658   H     0.12487   0.18630   0.52856   0.00000  Uiso   1.00
H659   H     0.24089   0.28622   0.97575   0.00000  Uiso   1.00
H660   H     0.12487   0.18818   0.61529   0.00000  Uiso   1.00
N661   N     0.16667   0.24999   0.62624   0.00000  Uiso   1.00
N662   N     0.16667   0.25001   0.87377   0.00000  Uiso   1.00
O663   O     0.16667   0.18454   0.78974   0.00000  Uiso   1.00
O664   O     0.16666   0.31547   0.71026   0.00000  Uiso   1.00
O665   O     0.16667   0.18453   0.71026   0.00000  Uiso   1.00
O666   O     0.16666   0.31547   0.78974   0.00000  Uiso   1.00
O667   O     0.09058   0.25000   0.78045   0.00000  Uiso   1.00
O668   O     0.24275   0.25000   0.71956   0.00000  Uiso   1.00
O669   O     0.09058   0.25000   0.70097   0.00000  Uiso   1.00
O670   O     0.24275   0.25001   0.79904   0.00000  Uiso   1.00
Zn671  Zn    0.16667   0.25001   0.80307   0.00000  Uiso   1.00
Zn672  Zn    0.16667   0.25000   0.69693   0.00000  Uiso   1.00
C673   C     0.50006   0.16379   0.74983   0.00000  Uiso   1.00
C674   C     0.45873   0.22952   0.94141   0.00000  Uiso   1.00
C675   C     0.49977   0.25014   0.52666   0.00000  Uiso   1.00
C676   C     0.49981   0.25011   0.97328   0.00000  Uiso   1.00
C677   C     0.40032   0.25039   0.73749   0.00000  Uiso   1.00
C678   C     0.59969   0.25060   0.76251   0.00000  Uiso   1.00
C679   C     0.34525   0.25130   0.73075   0.00000  Uiso   1.00
C680   C     0.65478   0.25166   0.76926   0.00000  Uiso   1.00
C681   C     0.48767   0.04338   0.78053   0.00000  Uiso   1.00
C682   C     0.50265   0.45683   0.71326   0.00000  Uiso   1.00
C683   C     0.47608   0.08871   0.77673   0.00000  Uiso   1.00
C684   C     0.50032   0.33645   0.75022   0.00000  Uiso   1.00
C685   C     0.49024   0.41134   0.71103   0.00000  Uiso   1.00
C686   C     0.50601   0.11581   0.75043   0.00000  Uiso   1.00
C687   C     0.50659   0.38494   0.75163   0.00000  Uiso   1.00
C688   C     0.54545   0.09756   0.72719   0.00000  Uiso   1.00
C689   C     0.53282   0.40464   0.79394   0.00000  Uiso   1.00
C690   C     0.55638   0.05178   0.72987   0.00000  Uiso   1.00
C691   C     0.54282   0.45069   0.79708   0.00000  Uiso   1.00
C692   C     0.52735   0.02496   0.75772   0.00000  Uiso   1.00
C693   C     0.52840   0.47648   0.75559   0.00000  Uiso   1.00
C694   C     0.42967   0.10574   0.79664   0.00000  Uiso   1.00
C695   C     0.47620   0.21479   0.54902   0.00000  Uiso   1.00
C696   C     0.42552   0.09931   0.84500   0.00000  Uiso   1.00
C697   C     0.38057   0.11356   0.86307   0.00000  Uiso   1.00
C698   C     0.33920   0.13368   0.83294   0.00000  Uiso   1.00
C699   C     0.34287   0.13984   0.78475   0.00000  Uiso   1.00
C700   C     0.38796   0.12618   0.76663   0.00000  Uiso   1.00
C701   C     0.45721   0.39332   0.66725   0.00000  Uiso   1.00
C702   C     0.47383   0.39785   0.62253   0.00000  Uiso   1.00
C703   C     0.44312   0.38011   0.58146   0.00000  Uiso   1.00
C704   C     0.39556   0.35796   0.58468   0.00000  Uiso   1.00
C705   C     0.37838   0.35386   0.62893   0.00000  Uiso   1.00
C706   C     0.54103   0.27058   0.95327   0.00000  Uiso   1.00
C707   C     0.40887   0.37166   0.67006   0.00000  Uiso   1.00
C708   C     0.59626   0.03274   0.70057   0.00000  Uiso   1.00
C709   C     0.64572   0.01476   0.73178   0.00000  Uiso   1.00
C710   C     0.35535   0.00298   0.70210   0.00000  Uiso   1.00
C711   C     0.56486   0.47117   0.84555   0.00000  Uiso   1.00
C712   C     0.62011   0.49149   0.84685   0.00000  Uiso   1.00
C713   C     0.64383   0.00625   0.89734   0.00000  Uiso   1.00
C714   C     0.47656   0.21548   0.59870   0.00000  Uiso   1.00
C715   C     0.54023   0.27030   0.90353   0.00000  Uiso   1.00
C716   C     0.52336   0.28456   0.60582   0.00000  Uiso   1.00
C717   C     0.45973   0.22967   0.89193   0.00000  Uiso   1.00
C718   C     0.52345   0.28543   0.55622   0.00000  Uiso   1.00
H719   H     0.65779   0.25113   0.69426   0.00000  Uiso   1.00
H720   H     0.57205   0.28623   0.88872   0.00000  Uiso   1.00
H721   H     0.54184   0.31180   0.62800   0.00000  Uiso   1.00
H722   H     0.42801   0.21361   0.86799   0.00000  Uiso   1.00
H723   H     0.54134   0.31399   0.54128   0.00000  Uiso   1.00
H724   H     0.42551   0.21385   0.95431   0.00000  Uiso   1.00
H725   H     0.45707   0.08335   0.86862   0.00000  Uiso   1.00
H726   H     0.37766   0.10873   0.90039   0.00000  Uiso   1.00
H727   H     0.63757   0.14435   0.84685   0.00000  Uiso   1.00
H728   H     0.64396   0.15498   0.76134   0.00000  Uiso   1.00
H729   H     0.38989   0.13067   0.72905   0.00000  Uiso   1.00
H730   H     0.34224   0.25183   0.80574   0.00000  Uiso   1.00
H731   H     0.51088   0.41448   0.61961   0.00000  Uiso   1.00
H732   H     0.45637   0.38325   0.54716   0.00000  Uiso   1.00
H733   H     0.37200   0.34406   0.55288   0.00000  Uiso   1.00
H734   H     0.34145   0.33685   0.63138   0.00000  Uiso   1.00
H735   H     0.39504   0.36830   0.70412   0.00000  Uiso   1.00
H736   H     0.34053   0.47752   0.67424   0.00000  Uiso   1.00
H737   H     0.36851   0.03360   0.68486   0.00000  Uiso   1.00
H738   H     0.38979   0.48879   0.72564   0.00000  Uiso   1.00
H739   H     0.66169   0.04047   0.75895   0.00000  Uiso   1.00
H740   H     0.63548   0.48381   0.75005   0.00000  Uiso   1.00
H741   H     0.46322   0.02157   0.79873   0.00000  Uiso   1.00
H742   H     0.57767   0.00559   0.67643   0.00000  Uiso   1.00
H743   H     0.60866   0.05927   0.67704   0.00000  Uiso   1.00
H744   H     0.61884   0.03234   0.91077   0.00000  Uiso   1.00
H745   H     0.64732   0.47704   0.92179   0.00000  Uiso   1.00
H746   H     0.35048   0.02066   0.89702   0.00000  Uiso   1.00
H747   H     0.64651   0.46625   0.83390   0.00000  Uiso   1.00
H748   H     0.61787   0.02155   0.82380   0.00000  Uiso   1.00
H749   H     0.53775   0.49726   0.85558   0.00000  Uiso   1.00
H750   H     0.56691   0.44504   0.87365   0.00000  Uiso   1.00
H751   H     0.48850   0.47787   0.68292   0.00000  Uiso   1.00
H752   H     0.56776   0.11931   0.70693   0.00000  Uiso   1.00
H753   H     0.54512   0.38398   0.82496   0.00000  Uiso   1.00
H754   H     0.45821   0.18630   0.52856   0.00000  Uiso   1.00
H755   H     0.57422   0.28622   0.97575   0.00000  Uiso   1.00
H756   H     0.45820   0.18818   0.61529   0.00000  Uiso   1.00
N757   N     0.50000   0.24999   0.62624   0.00000  Uiso   1.00
N758   N     0.50000   0.25001   0.87377   0.00000  Uiso   1.00
O759   O     0.50000   0.18454   0.78974   0.00000  Uiso   1.00
O760   O     0.50000   0.31547   0.71026   0.00000  Uiso   1.00
O761   O     0.50000   0.18453   0.71026   0.00000  Uiso   1.00
O762   O     0.50000   0.31547   0.78974   0.00000  Uiso   1.00
O763   O     0.42392   0.25000   0.78045   0.00000  Uiso   1.00
O764   O     0.57608   0.25000   0.71956   0.00000  Uiso   1.00
O765   O     0.42392   0.25000   0.70097   0.00000  Uiso   1.00
O766   O     0.57608   0.25001   0.79904   0.00000  Uiso   1.00
Zn767  Zn    0.50000   0.25001   0.80307   0.00000  Uiso   1.00
Zn768  Zn    0.50000   0.25000   0.69693   0.00000  Uiso   1.00
C769   C     0.83340   0.16379   0.74983   0.00000  Uiso   1.00
C770   C     0.79207   0.22952   0.94141   0.00000  Uiso   1.00
C771   C     0.83311   0.25014   0.52666   0.00000  Uiso   1.00
C772   C     0.83315   0.25011   0.97328   0.00000  Uiso   1.00
C773   C     0.73365   0.25039   0.73749   0.00000  Uiso   1.00
C774   C     0.93302   0.25060   0.76251   0.00000  Uiso   1.00
C775   C     0.67858   0.25130   0.73075   0.00000  Uiso   1.00
C776   C     0.98812   0.25166   0.76926   0.00000  Uiso   1.00
C777   C     0.82100   0.04338   0.78053   0.00000  Uiso   1.00
C778   C     0.83599   0.45683   0.71326   0.00000  Uiso   1.00
C779   C     0.80941   0.08871   0.77673   0.00000  Uiso   1.00
C780   C     0.83365   0.33645   0.75022   0.00000  Uiso   1.00
C781   C     0.82357   0.41134   0.71103   0.00000  Uiso   1.00
C782   C     0.83934   0.11581   0.75043   0.00000  Uiso   1.00
C783   C     0.83993   0.38494   0.75163   0.00000  Uiso   1.00
C784   C     0.87879   0.09756   0.72719   0.00000  Uiso   1.00
C785   C     0.86615   0.40464   0.79394   0.00000  Uiso   1.00
C786   C     0.88971   0.05178   0.72987   0.00000  Uiso   1.00
C787   C     0.87615   0.45069   0.79708   0.00000  Uiso   1.00
C788   C     0.86068   0.02496   0.75772   0.00000  Uiso   1.00
C789   C     0.86173   0.47648   0.75559   0.00000  Uiso   1.00
C790   C     0.76301   0.10574   0.79664   0.00000  Uiso   1.00
C791   C     0.80953   0.21479   0.54902   0.00000  Uiso   1.00
C792   C     0.75886   0.09931   0.84500   0.00000  Uiso   1.00
C793   C     0.71390   0.11356   0.86307   0.00000  Uiso   1.00
C794   C     0.67254   0.13368   0.83294   0.00000  Uiso   1.00
C795   C     0.67620   0.13984   0.78475   0.00000  Uiso   1.00
C796   C     0.72130   0.12618   0.76663   0.00000  Uiso   1.00
C797   C     0.79055   0.39332   0.66725   0.00000  Uiso   1.00
C798   C     0.80716   0.39785   0.62253   0.00000  Uiso   1.00
C799   C     0.77645   0.38011   0.58146   0.00000  Uiso   1.00
C800   C     0.72890   0.35796   0.58468   0.00000  Uiso   1.00
C801   C     0.71171   0.35386   0.62893   0.00000  Uiso   1.00
C802   C     0.87436   0.27058   0.95327   0.00000  Uiso   1.00
C803   C     0.74220   0.37166   0.67006   0.00000  Uiso   1.00
C804   C     0.92960   0.03274   0.70057   0.00000  Uiso   1.00
C805   C     0.97905   0.01476   0.73178   0.00000  Uiso   1.00
C806   C     0.68868   0.00298   0.70210   0.00000  Uiso   1.00
C807   C     0.89819   0.47117   0.84555   0.00000  Uiso   1.00
C808   C     0.95344   0.49149   0.84685   0.00000  Uiso   1.00
C809   C     0.97716   0.00625   0.89734   0.00000  Uiso   1.00
C810   C     0.80989   0.21548   0.59870   0.00000  Uiso   1.00
C811   C     0.87356   0.27030   0.90353   0.00000  Uiso   1.00
C812   C     0.85670   0.28456   0.60582   0.00000  Uiso   1.00
C813   C     0.79306   0.22967   0.89193   0.00000  Uiso   1.00
C814   C     0.85678   0.28543   0.55622   0.00000  Uiso   1.00
H815   H     0.99113   0.25113   0.69426   0.00000  Uiso   1.00
H816   H     0.90539   0.28623   0.88872   0.00000  Uiso   1.00
H817   H     0.87517   0.31180   0.62800   0.00000  Uiso   1.00
H818   H     0.76135   0.21361   0.86799   0.00000  Uiso   1.00
H819   H     0.87468   0.31399   0.54128   0.00000  Uiso   1.00
H820   H     0.75884   0.21385   0.95431   0.00000  Uiso   1.00
H821   H     0.79040   0.08335   0.86862   0.00000  Uiso   1.00
H822   H     0.71100   0.10873   0.90039   0.00000  Uiso   1.00
H823   H     0.97091   0.14435   0.84685   0.00000  Uiso   1.00
H824   H     0.97729   0.15498   0.76134   0.00000  Uiso   1.00
H825   H     0.72322   0.13067   0.72905   0.00000  Uiso   1.00
H826   H     0.67558   0.25183   0.80574   0.00000  Uiso   1.00
H827   H     0.84422   0.41448   0.61961   0.00000  Uiso   1.00
H828   H     0.78970   0.38325   0.54716   0.00000  Uiso   1.00
H829   H     0.70533   0.34406   0.55288   0.00000  Uiso   1.00
H830   H     0.67479   0.33685   0.63138   0.00000  Uiso   1.00
H831   H     0.72838   0.36830   0.70412   0.00000  Uiso   1.00
H832   H     0.67386   0.47752   0.67424   0.00000  Uiso   1.00
H833   H     0.70185   0.03360   0.68486   0.00000  Uiso   1.00
H834   H     0.72312   0.48879   0.72564   0.00000  Uiso   1.00
H835   H     0.99502   0.04047   0.75895   0.00000  Uiso   1.00
H836   H     0.96881   0.48381   0.75005   0.00000  Uiso   1.00
H837   H     0.79655   0.02157   0.79873   0.00000  Uiso   1.00
H838   H     0.91101   0.00559   0.67643   0.00000  Uiso   1.00
H839   H     0.94200   0.05927   0.67704   0.00000  Uiso   1.00
H840   H     0.95217   0.03234   0.91077   0.00000  Uiso   1.00
H841   H     0.98065   0.47704   0.92179   0.00000  Uiso   1.00
H842   H     0.68381   0.02066   0.89702   0.00000  Uiso   1.00
H843   H     0.97984   0.46625   0.83390   0.00000  Uiso   1.00
H844   H     0.95120   0.02155   0.82380   0.00000  Uiso   1.00
H845   H     0.87108   0.49726   0.85558   0.00000  Uiso   1.00
H846   H     0.90025   0.44504   0.87365   0.00000  Uiso   1.00
H847   H     0.82183   0.47787   0.68292   0.00000  Uiso   1.00
H848   H     0.90109   0.11931   0.70693   0.00000  Uiso   1.00
H849   H     0.87845   0.38398   0.82496   0.00000  Uiso   1.00
H850   H     0.79154   0.18630   0.52856   0.00000  Uiso   1.00
H851   H     0.90755   0.28622   0.97575   0.00000  Uiso   1.00
H852   H     0.79154   0.18818   0.61529   0.00000  Uiso   1.00
N853   N     0.83333   0.24999   0.62624   0.00000  Uiso   1.00
N854   N     0.83333   0.25001   0.87377   0.00000  Uiso   1.00
O855   O     0.83334   0.18454   0.78974   0.00000  Uiso   1.00
O856   O     0.83333   0.31547   0.71026   0.00000  Uiso   1.00
O857   O     0.83334   0.18453   0.71026   0.00000  Uiso   1.00
O858   O     0.83333   0.31547   0.78974   0.00000  Uiso   1.00
O859   O     0.75725   0.25000   0.78045   0.00000  Uiso   1.00
O860   O     0.90942   0.25000   0.71956   0.00000  Uiso   1.00
O861   O     0.75725   0.25000   0.70097   0.00000  Uiso   1.00
O862   O     0.90942   0.25001   0.79904   0.00000  Uiso   1.00
Zn863  Zn    0.83333   0.25001   0.80307   0.00000  Uiso   1.00
Zn864  Zn    0.83333   0.25000   0.69693   0.00000  Uiso   1.00
C865   C     0.16673   0.66379   0.74983   0.00000  Uiso   1.00
C866   C     0.12540   0.72952   0.94141   0.00000  Uiso   1.00
C867   C     0.16644   0.75014   0.52666   0.00000  Uiso   1.00
C868   C     0.16648   0.75011   0.97328   0.00000  Uiso   1.00
C869   C     0.06699   0.75039   0.73749   0.00000  Uiso   1.00
C870   C     0.26635   0.75060   0.76251   0.00000  Uiso   1.00
C871   C     0.01192   0.75130   0.73075   0.00000  Uiso   1.00
C872   C     0.32145   0.75166   0.76926   0.00000  Uiso   1.00
C873   C     0.15434   0.54338   0.78053   0.00000  Uiso   1.00
C874   C     0.16932   0.95683   0.71326   0.00000  Uiso   1.00
C875   C     0.14274   0.58871   0.77673   0.00000  Uiso   1.00
C876   C     0.16699   0.83645   0.75022   0.00000  Uiso   1.00
C877   C     0.15691   0.91134   0.71103   0.00000  Uiso   1.00
C878   C     0.17268   0.61581   0.75043   0.00000  Uiso   1.00
C879   C     0.17326   0.88494   0.75163   0.00000  Uiso   1.00
C880   C     0.21212   0.59756   0.72719   0.00000  Uiso   1.00
C881   C     0.19948   0.90464   0.79394   0.00000  Uiso   1.00
C882   C     0.22305   0.55178   0.72987   0.00000  Uiso   1.00
C883   C     0.20948   0.95069   0.79708   0.00000  Uiso   1.00
C884   C     0.19401   0.52496   0.75772   0.00000  Uiso   1.00
C885   C     0.19506   0.97648   0.75559   0.00000  Uiso   1.00
C886   C     0.09634   0.60574   0.79664   0.00000  Uiso   1.00
C887   C     0.14287   0.71479   0.54902   0.00000  Uiso   1.00
C888   C     0.09219   0.59931   0.84500   0.00000  Uiso   1.00
C889   C     0.04724   0.61356   0.86307   0.00000  Uiso   1.00
C890   C     0.00587   0.63368   0.83294   0.00000  Uiso   1.00
C891   C     0.00954   0.63984   0.78475   0.00000  Uiso   1.00
C892   C     0.05463   0.62618   0.76663   0.00000  Uiso   1.00
C893   C     0.12388   0.89332   0.66725   0.00000  Uiso   1.00
C894   C     0.14050   0.89785   0.62253   0.00000  Uiso   1.00
C895   C     0.10978   0.88011   0.58146   0.00000  Uiso   1.00
C896   C     0.06223   0.85796   0.58468   0.00000  Uiso   1.00
C897   C     0.04504   0.85386   0.62893   0.00000  Uiso   1.00
C898   C     0.20769   0.77058   0.95327   0.00000  Uiso   1.00
C899   C     0.07554   0.87166   0.67006   0.00000  Uiso   1.00
C900   C     0.26293   0.53274   0.70057   0.00000  Uiso   1.00
C901   C     0.31238   0.51476   0.73178   0.00000  Uiso   1.00
C902   C     0.02202   0.50298   0.70210   0.00000  Uiso   1.00
C903   C     0.23152   0.97117   0.84555   0.00000  Uiso   1.00
C904   C     0.28677   0.99149   0.84685   0.00000  Uiso   1.00
C905   C     0.31050   0.50625   0.89734   0.00000  Uiso   1.00
C906   C     0.14323   0.71548   0.59870   0.00000  Uiso   1.00
C907   C     0.20690   0.77030   0.90353   0.00000  Uiso   1.00
C908   C     0.19003   0.78456   0.60582   0.00000  Uiso   1.00
C909   C     0.12640   0.72967   0.89193   0.00000  Uiso   1.00
C910   C     0.19011   0.78543   0.55622   0.00000  Uiso   1.00
H911   H     0.32446   0.75113   0.69426   0.00000  Uiso   1.00
H912   H     0.23872   0.78623   0.88872   0.00000  Uiso   1.00
H913   H     0.20850   0.81180   0.62800   0.00000  Uiso   1.00
H914   H     0.09468   0.71361   0.86799   0.00000  Uiso   1.00
H915   H     0.20801   0.81399   0.54128   0.00000  Uiso   1.00
H916   H     0.09217   0.71385   0.95431   0.00000  Uiso   1.00
H917   H     0.12374   0.58335   0.86862   0.00000  Uiso   1.00
H918   H     0.04433   0.60873   0.90039   0.00000  Uiso   1.00
H919   H     0.30424   0.64435   0.84685   0.00000  Uiso   1.00
H920   H     0.31062   0.65498   0.76134   0.00000  Uiso   1.00
H921   H     0.05656   0.63067   0.72905   0.00000  Uiso   1.00
H922   H     0.00891   0.75183   0.80574   0.00000  Uiso   1.00
H923   H     0.17755   0.91448   0.61961   0.00000  Uiso   1.00
H924   H     0.12304   0.88325   0.54716   0.00000  Uiso   1.00
H925   H     0.03867   0.84406   0.55288   0.00000  Uiso   1.00
H926   H     0.00812   0.83685   0.63138   0.00000  Uiso   1.00
H927   H     0.06171   0.86830   0.70412   0.00000  Uiso   1.00
H928   H     0.00720   0.97752   0.67424   0.00000  Uiso   1.00
H929   H     0.03518   0.53360   0.68486   0.00000  Uiso   1.00
H930   H     0.05646   0.98879   0.72564   0.00000  Uiso   1.00
H931   H     0.32835   0.54047   0.75895   0.00000  Uiso   1.00
H932   H     0.30214   0.98381   0.75005   0.00000  Uiso   1.00
H933   H     0.12988   0.52157   0.79873   0.00000  Uiso   1.00
H934   H     0.24434   0.50559   0.67643   0.00000  Uiso   1.00
H935   H     0.27533   0.55927   0.67704   0.00000  Uiso   1.00
H936   H     0.28551   0.53234   0.91077   0.00000  Uiso   1.00
H937   H     0.31398   0.97704   0.92179   0.00000  Uiso   1.00
H938   H     0.01714   0.52066   0.89702   0.00000  Uiso   1.00
H939   H     0.31318   0.96625   0.83390   0.00000  Uiso   1.00
H940   H     0.28453   0.52155   0.82380   0.00000  Uiso   1.00
H941   H     0.20442   0.99726   0.85558   0.00000  Uiso   1.00
H942   H     0.23358   0.94504   0.87365   0.00000  Uiso   1.00
H943   H     0.15516   0.97787   0.68292   0.00000  Uiso   1.00
H944   H     0.23442   0.61931   0.70693   0.00000  Uiso   1.00
H945   H     0.21178   0.88398   0.82496   0.00000  Uiso   1.00
H946   H     0.12487   0.68630   0.52856   0.00000  Uiso   1.00
H947   H     0.24089   0.78622   0.97575   0.00000  Uiso   1.00
H948   H     0.12487   0.68818   0.61529   0.00000  Uiso   1.00
N949   N     0.16667   0.74999   0.62624   0.00000  Uiso   1.00
N950   N     0.16667   0.75001   0.87377   0.00000  Uiso   1.00
O951   O     0.16667   0.68454   0.78974   0.00000  Uiso   1.00
O952   O     0.16666   0.81547   0.71026   0.00000  Uiso   1.00
O953   O     0.16667   0.68453   0.71026   0.00000  Uiso   1.00
O954   O     0.16666   0.81547   0.78974   0.00000  Uiso   1.00
O955   O     0.09058   0.75000   0.78045   0.00000  Uiso   1.00
O956   O     0.24275   0.75000   0.71956   0.00000  Uiso   1.00
O957   O     0.09058   0.75000   0.70097   0.00000  Uiso   1.00
O958   O     0.24275   0.75001   0.79904   0.00000  Uiso   1.00
Zn959  Zn    0.16667   0.75001   0.80307   0.00000  Uiso   1.00
Zn960  Zn    0.16667   0.75000   0.69693   0.00000  Uiso   1.00
C961   C     0.50006   0.66379   0.74983   0.00000  Uiso   1.00
C962   C     0.45873   0.72952   0.94141   0.00000  Uiso   1.00
C963   C     0.49977   0.75014   0.52666   0.00000  Uiso   1.00
C964   C     0.49981   0.75011   0.97328   0.00000  Uiso   1.00
C965   C     0.40032   0.75039   0.73749   0.00000  Uiso   1.00
C966   C     0.59969   0.75060   0.76251   0.00000  Uiso   1.00
C967   C     0.34525   0.75130   0.73075   0.00000  Uiso   1.00
C968   C     0.65478   0.75166   0.76926   0.00000  Uiso   1.00
C969   C     0.48767   0.54338   0.78053   0.00000  Uiso   1.00
C970   C     0.50265   0.95683   0.71326   0.00000  Uiso   1.00
C971   C     0.47608   0.58871   0.77673   0.00000  Uiso   1.00
C972   C     0.50032   0.83645   0.75022   0.00000  Uiso   1.00
C973   C     0.49024   0.91134   0.71103   0.00000  Uiso   1.00
C974   C     0.50601   0.61581   0.75043   0.00000  Uiso   1.00
C975   C     0.50659   0.88494   0.75163   0.00000  Uiso   1.00
C976   C     0.54545   0.59756   0.72719   0.00000  Uiso   1.00
C977   C     0.53282   0.90464   0.79394   0.00000  Uiso   1.00
C978   C     0.55638   0.55178   0.72987   0.00000  Uiso   1.00
C979   C     0.54282   0.95069   0.79708   0.00000  Uiso   1.00
C980   C     0.52735   0.52496   0.75772   0.00000  Uiso   1.00
C981   C     0.52840   0.97648   0.75559   0.00000  Uiso   1.00
C982   C     0.42967   0.60574   0.79664   0.00000  Uiso   1.00
C983   C     0.47620   0.71479   0.54902   0.00000  Uiso   1.00
C984   C     0.42552   0.59931   0.84500   0.00000  Uiso   1.00
C985   C     0.38057   0.61356   0.86307   0.00000  Uiso   1.00
C986   C     0.33920   0.63368   0.83294   0.00000  Uiso   1.00
C987   C     0.34287   0.63984   0.78475   0.00000  Uiso   1.00
C988   C     0.38796   0.62618   0.76663   0.00000  Uiso   1.00
C989   C     0.45721   0.89332   0.66725   0.00000  Uiso   1.00
C990   C     0.47383   0.89785   0.62253   0.00000  Uiso   1.00
C991   C     0.44312   0.88011   0.58146   0.00000  Uiso   1.00
C992   C     0.39556   0.85796   0.58468   0.00000  Uiso   1.00
C993   C     0.37838   0.85386   0.62893   0.00000  Uiso   1.00
C994   C     0.54103   0.77058   0.95327   0.00000  Uiso   1.00
C995   C     0.40887   0.87166   0.67006   0.00000  Uiso   1.00
C996   C     0.59626   0.53274   0.70057   0.00000  Uiso   1.00
C997   C     0.64572   0.51476   0.73178   0.00000  Uiso   1.00
C998   C     0.35535   0.50298   0.70210   0.00000  Uiso   1.00
C999   C     0.56486   0.97117   0.84555   0.00000  Uiso   1.00
C1000  C     0.62011   0.99149   0.84685   0.00000  Uiso   1.00
C1001  C     0.64383   0.50625   0.89734   0.00000  Uiso   1.00
C1002  C     0.47656   0.71548   0.59870   0.00000  Uiso   1.00
C1003  C     0.54023   0.77030   0.90353   0.00000  Uiso   1.00
C1004  C     0.52336   0.78456   0.60582   0.00000  Uiso   1.00
C1005  C     0.45973   0.72967   0.89193   0.00000  Uiso   1.00
C1006  C     0.52345   0.78543   0.55622   0.00000  Uiso   1.00
H1007  H     0.65779   0.75113   0.69426   0.00000  Uiso   1.00
H1008  H     0.57205   0.78623   0.88872   0.00000  Uiso   1.00
H1009  H     0.54184   0.81180   0.62800   0.00000  Uiso   1.00
H1010  H     0.42801   0.71361   0.86799   0.00000  Uiso   1.00
H1011  H     0.54134   0.81399   0.54128   0.00000  Uiso   1.00
H1012  H     0.42551   0.71385   0.95431   0.00000  Uiso   1.00
H1013  H     0.45707   0.58335   0.86862   0.00000  Uiso   1.00
H1014  H     0.37766   0.60873   0.90039   0.00000  Uiso   1.00
H1015  H     0.63757   0.64435   0.84685   0.00000  Uiso   1.00
H1016  H     0.64396   0.65498   0.76134   0.00000  Uiso   1.00
H1017  H     0.38989   0.63067   0.72905   0.00000  Uiso   1.00
H1018  H     0.34224   0.75183   0.80574   0.00000  Uiso   1.00
H1019  H     0.51088   0.91448   0.61961   0.00000  Uiso   1.00
H1020  H     0.45637   0.88325   0.54716   0.00000  Uiso   1.00
H1021  H     0.37200   0.84406   0.55288   0.00000  Uiso   1.00
H1022  H     0.34145   0.83685   0.63138   0.00000  Uiso   1.00
H1023  H     0.39504   0.86830   0.70412   0.00000  Uiso   1.00
H1024  H     0.34053   0.97752   0.67424   0.00000  Uiso   1.00
H1025  H     0.36851   0.53360   0.68486   0.00000  Uiso   1.00
H1026  H     0.38979   0.98879   0.72564   0.00000  Uiso   1.00
H1027  H     0.66169   0.54047   0.75895   0.00000  Uiso   1.00
H1028  H     0.63548   0.98381   0.75005   0.00000  Uiso   1.00
H1029  H     0.46322   0.52157   0.79873   0.00000  Uiso   1.00
H1030  H     0.57767   0.50559   0.67643   0.00000  Uiso   1.00
H1031  H     0.60866   0.55927   0.67704   0.00000  Uiso   1.00
H1032  H     0.61884   0.53234   0.91077   0.00000  Uiso   1.00
H1033  H     0.64732   0.97704   0.92179   0.00000  Uiso   1.00
H1034  H     0.35048   0.52066   0.89702   0.00000  Uiso   1.00
H1035  H     0.64651   0.96625   0.83390   0.00000  Uiso   1.00
H1036  H     0.61787   0.52155   0.82380   0.00000  Uiso   1.00
H1037  H     0.53775   0.99726   0.85558   0.00000  Uiso   1.00
H1038  H     0.56691   0.94504   0.87365   0.00000  Uiso   1.00
H1039  H     0.48850   0.97787   0.68292   0.00000  Uiso   1.00
H1040  H     0.56776   0.61931   0.70693   0.00000  Uiso   1.00
H1041  H     0.54512   0.88398   0.82496   0.00000  Uiso   1.00
H1042  H     0.45821   0.68630   0.52856   0.00000  Uiso   1.00
H1043  H     0.57422   0.78622   0.97575   0.00000  Uiso   1.00
H1044  H     0.45820   0.68818   0.61529   0.00000  Uiso   1.00
N1045  N     0.50000   0.74999   0.62624   0.00000  Uiso   1.00
N1046  N     0.50000   0.75001   0.87377   0.00000  Uiso   1.00
O1047  O     0.50000   0.68454   0.78974   0.00000  Uiso   1.00
O1048  O     0.50000   0.81547   0.71026   0.00000  Uiso   1.00
O1049  O     0.50000   0.68453   0.71026   0.00000  Uiso   1.00
O1050  O     0.50000   0.81547   0.78974   0.00000  Uiso   1.00
O1051  O     0.42392   0.75000   0.78045   0.00000  Uiso   1.00
O1052  O     0.57608   0.75000   0.71956   0.00000  Uiso   1.00
O1053  O     0.42392   0.75000   0.70097   0.00000  Uiso   1.00
O1054  O     0.57608   0.75001   0.79904   0.00000  Uiso   1.00
Zn1055 Zn    0.50000   0.75001   0.80307   0.00000  Uiso   1.00
Zn1056 Zn    0.50000   0.75000   0.69693   0.00000  Uiso   1.00
C1057  C     0.83340   0.66379   0.74983   0.00000  Uiso   1.00
C1058  C     0.79207   0.72952   0.94141   0.00000  Uiso   1.00
C1059  C     0.83311   0.75014   0.52666   0.00000  Uiso   1.00
C1060  C     0.83315   0.75011   0.97328   0.00000  Uiso   1.00
C1061  C     0.73365   0.75039   0.73749   0.00000  Uiso   1.00
C1062  C     0.93302   0.75060   0.76251   0.00000  Uiso   1.00
C1063  C     0.67858   0.75130   0.73075   0.00000  Uiso   1.00
C1064  C     0.98812   0.75166   0.76926   0.00000  Uiso   1.00
C1065  C     0.82100   0.54338   0.78053   0.00000  Uiso   1.00
C1066  C     0.83599   0.95683   0.71326   0.00000  Uiso   1.00
C1067  C     0.80941   0.58871   0.77673   0.00000  Uiso   1.00
C1068  C     0.83365   0.83645   0.75022   0.00000  Uiso   1.00
C1069  C     0.82357   0.91134   0.71103   0.00000  Uiso   1.00
C1070  C     0.83934   0.61581   0.75043   0.00000  Uiso   1.00
C1071  C     0.83993   0.88494   0.75163   0.00000  Uiso   1.00
C1072  C     0.87879   0.59756   0.72719   0.00000  Uiso   1.00
C1073  C     0.86615   0.90464   0.79394   0.00000  Uiso   1.00
C1074  C     0.88971   0.55178   0.72987   0.00000  Uiso   1.00
C1075  C     0.87615   0.95069   0.79708   0.00000  Uiso   1.00
C1076  C     0.86068   0.52496   0.75772   0.00000  Uiso   1.00
C1077  C     0.86173   0.97648   0.75559   0.00000  Uiso   1.00
C1078  C     0.76301   0.60574   0.79664   0.00000  Uiso   1.00
C1079  C     0.80953   0.71479   0.54902   0.00000  Uiso   1.00
C1080  C     0.75886   0.59931   0.84500   0.00000  Uiso   1.00
C1081  C     0.71390   0.61356   0.86307   0.00000  Uiso   1.00
C1082  C     0.67254   0.63368   0.83294   0.00000  Uiso   1.00
C1083  C     0.67620   0.63984   0.78475   0.00000  Uiso   1.00
C1084  C     0.72130   0.62618   0.76663   0.00000  Uiso   1.00
C1085  C     0.79055   0.89332   0.66725   0.00000  Uiso   1.00
C1086  C     0.80716   0.89785   0.62253   0.00000  Uiso   1.00
C1087  C     0.77645   0.88011   0.58146   0.00000  Uiso   1.00
C1088  C     0.72890   0.85796   0.58468   0.00000  Uiso   1.00
C1089  C     0.71171   0.85386   0.62893   0.00000  Uiso   1.00
C1090  C     0.87436   0.77058   0.95327   0.00000  Uiso   1.00
C1091  C     0.74220   0.87166   0.67006   0.00000  Uiso   1.00
C1092  C     0.92960   0.53274   0.70057   0.00000  Uiso   1.00
C1093  C     0.97905   0.51476   0.73178   0.00000  Uiso   1.00
C1094  C     0.68868   0.50298   0.70210   0.00000  Uiso   1.00
C1095  C     0.89819   0.97117   0.84555   0.00000  Uiso   1.00
C1096  C     0.95344   0.99149   0.84685   0.00000  Uiso   1.00
C1097  C     0.97716   0.50625   0.89734   0.00000  Uiso   1.00
C1098  C     0.80989   0.71548   0.59870   0.00000  Uiso   1.00
C1099  C     0.87356   0.77030   0.90353   0.00000  Uiso   1.00
C1100  C     0.85670   0.78456   0.60582   0.00000  Uiso   1.00
C1101  C     0.79306   0.72967   0.89193   0.00000  Uiso   1.00
C1102  C     0.85678   0.78543   0.55622   0.00000  Uiso   1.00
H1103  H     0.99113   0.75113   0.69426   0.00000  Uiso   1.00
H1104  H     0.90539   0.78623   0.88872   0.00000  Uiso   1.00
H1105  H     0.87517   0.81180   0.62800   0.00000  Uiso   1.00
H1106  H     0.76135   0.71361   0.86799   0.00000  Uiso   1.00
H1107  H     0.87468   0.81399   0.54128   0.00000  Uiso   1.00
H1108  H     0.75884   0.71385   0.95431   0.00000  Uiso   1.00
H1109  H     0.79040   0.58335   0.86862   0.00000  Uiso   1.00
H1110  H     0.71100   0.60873   0.90039   0.00000  Uiso   1.00
H1111  H     0.97091   0.64435   0.84685   0.00000  Uiso   1.00
H1112  H     0.97729   0.65498   0.76134   0.00000  Uiso   1.00
H1113  H     0.72322   0.63067   0.72905   0.00000  Uiso   1.00
H1114  H     0.67558   0.75183   0.80574   0.00000  Uiso   1.00
H1115  H     0.84422   0.91448   0.61961   0.00000  Uiso   1.00
H1116  H     0.78970   0.88325   0.54716   0.00000  Uiso   1.00
H1117  H     0.70533   0.84406   0.55288   0.00000  Uiso   1.00
H1118  H     0.67479   0.83685   0.63138   0.00000  Uiso   1.00
H1119  H     0.72838   0.86830   0.70412   0.00000  Uiso   1.00
H1120  H     0.67386   0.97752   0.67424   0.00000  Uiso   1.00
H1121  H     0.70185   0.53360   0.68486   0.00000  Uiso   1.00
H1122  H     0.72312   0.98879   0.72564   0.00000  Uiso   1.00
H1123  H     0.99502   0.54047   0.75895   0.00000  Uiso   1.00
H1124  H     0.96881   0.98381   0.75005   0.00000  Uiso   1.00
H1125  H     0.79655   0.52157   0.79873   0.00000  Uiso   1.00
H1126  H     0.91101   0.50559   0.67643   0.00000  Uiso   1.00
H1127  H     0.94200   0.55927   0.67704   0.00000  Uiso   1.00
H1128  H     0.95217   0.53234   0.91077   0.00000  Uiso   1.00
H1129  H     0.98065   0.97704   0.92179   0.00000  Uiso   1.00
H1130  H     0.68381   0.52066   0.89702   0.00000  Uiso   1.00
H1131  H     0.97984   0.96625   0.83390   0.00000  Uiso   1.00
H1132  H     0.95120   0.52155   0.82380   0.00000  Uiso   1.00
H1133  H     0.87108   0.99726   0.85558   0.00000  Uiso   1.00
H1134  H     0.90025   0.94504   0.87365   0.00000  Uiso   1.00
H1135  H     0.82183   0.97787   0.68292   0.00000  Uiso   1.00
H1136  H     0.90109   0.61931   0.70693   0.00000  Uiso   1.00
H1137  H     0.87845   0.88398   0.82496   0.00000  Uiso   1.00
H1138  H     0.79154   0.68630   0.52856   0.00000  Uiso   1.00
H1139  H     0.90755   0.78622   0.97575   0.00000  Uiso   1.00
H1140  H     0.79154   0.68818   0.61529   0.00000  Uiso   1.00
N1141  N     0.83333   0.74999   0.62624   0.00000  Uiso   1.00
N1142  N     0.83333   0.75001   0.87377   0.00000  Uiso   1.00
O1143  O     0.83334   0.68454   0.78974   0.00000  Uiso   1.00
O1144  O     0.83333   0.81547   0.71026   0.00000  Uiso   1.00
O1145  O     0.83334   0.68453   0.71026   0.00000  Uiso   1.00
O1146  O     0.83333   0.81547   0.78974   0.00000  Uiso   1.00
O1147  O     0.75725   0.75000   0.78045   0.00000  Uiso   1.00
O1148  O     0.90942   0.75000   0.71956   0.00000  Uiso   1.00
O1149  O     0.75725   0.75000   0.70097   0.00000  Uiso   1.00
O1150  O     0.90942   0.75001   0.79904   0.00000  Uiso   1.00
Zn1151 Zn    0.83333   0.75001   0.80307   0.00000  Uiso   1.00
Zn1152 Zn    0.83333   0.75000   0.69693   0.00000  Uiso   1.00
loop_
_geom_bond_atom_site_label_1
_geom_bond_atom_site_label_2
_geom_bond_distance
_geom_bond_site_symmetry_2
_ccdc_geom_bond_type
C1     O87     1.284   .     A
C1     O89     1.284   .     A
C1     C14     1.435   .     S
C2     C45     1.406   .     A
C2     C4      1.411   .     A
C2     H52     1.082   .     S
C3     C23     1.411   .     A
C3     C46     1.411   .     A
C3     C580    1.513   1_554 S
C4     C34     1.411   .     A
C4     C579    1.513   .     S
C5     C7      1.397   .     S
C5     O91     1.274   .     A
C5     O93     1.277   .     A
C6     O94     1.277   .     A
C6     C8      1.397   .     S
C6     O92     1.274   .     A
C7     C200    1.330   1_455 S
C7     H239    1.088   1_455 S
C8     C103    1.330   .     S
C8     H154    1.088   .     S
C9     H69     1.086   .     S
C9     C20     1.399   .     A
C9     C11     1.383   .     A
C10    C21     1.399   .     A
C10    C13     1.385   .     A
C10    H79     1.086   .     S
C11    C14     1.404   .     A
C11    C22     1.484   .     S
C12    C15     1.448   .     S
C12    O88     1.287   .     A
C12    O90     1.287   .     A
C13    C29     1.485   .     S
C13    C15     1.410   .     A
C14    C16     1.400   .     A
C15    C17     1.403   .     A
C16    H80     1.084   .     S
C16    C18     1.391   .     A
C17    C19     1.390   .     A
C17    H81     1.084   .     S
C18    C20     1.413   .     A
C18    C36     1.523   .     S
C19    C21     1.411   .     A
C19    C39     1.523   .     S
C20    C309    1.442   1_545 S
C21    C308    1.442   .     S
C22    C24     1.405   .     A
C22    C28     1.406   .     A
C23    H82     1.082   .     S
C23    C42     1.406   .     A
C24    H53     1.083   .     S
C24    C25     1.399   .     A
C25    H54     1.082   .     S
C25    C26     1.398   .     A
C26    C27     1.397   .     A
C26    H247    1.082   1_455 S
C27    C28     1.398   .     A
C27    H248    1.081   1_455 S
C28    H57     1.083   .     S
C29    C30     1.405   .     A
C29    C35     1.407   .     A
C30    C31     1.399   .     A
C30    H59     1.083   .     S
C31    H60     1.082   .     S
C31    C32     1.398   .     A
C32    H61     1.082   .     S
C32    C33     1.398   .     A
C33    C35     1.398   .     A
C33    H62     1.083   .     S
C34    H83     1.082   .     S
C34    C43     1.406   .     A
C35    H63     1.083   .     S
C36    C37     1.533   .     S
C36    H70     1.110   .     S
C36    H71     1.113   .     S
C37    H67     1.111   .     S
C37    C134    1.527   .     S
C37    H356    1.108   1_545 S
C38    H65     1.111   .     S
C38    C229    1.527   1_455 S
C38    H352    1.111   1_545 S
C38    H354    1.110   1_545 S
C39    H77     1.109   .     S
C39    H78     1.113   .     S
C39    C40     1.532   .     S
C40    H75     1.112   .     S
C40    C329    1.526   .     S
C40    H364    1.108   .     S
C41    H72     1.111   .     S
C41    C328    1.526   1_545 S
C41    H361    1.111   1_545 S
C41    H170    1.110   .     S
C42    H84     1.082   .     S
C42    N85     1.362   .     A
C43    H48     1.082   .     S
C43    N86     1.362   .     A
C44    H49     1.082   .     S
C44    C46     1.406   .     A
C44    N85     1.363   .     A
C45    N86     1.363   .     A
C45    H50     1.082   .     S
C46    H51     1.082   .     S
H47    C103    1.088   .     S
H55    C122    1.082   .     S
H56    C123    1.081   .     S
H58    C200    1.088   1_455 S
H64    C326    1.111   .     S
H66    C326    1.110   .     S
H68    C325    1.108   .     S
H73    C329    1.111   .     S
H74    C233    1.110   1_455 S
H76    C328    1.108   1_545 S
N85    Zn96    2.003   .     S
N86    Zn95    2.003   .     S
O87    Zn95    1.979   .     S
O88    Zn96    1.979   .     S
O89    Zn96    1.985   .     S
O90    Zn95    1.985   .     S
O91    Zn95    1.959   .     S
O92    Zn96    1.959   .     S
O93    Zn96    1.973   .     S
O94    Zn95    1.973   .     S
C97    O183    1.284   .     A
C97    O185    1.284   .     A
C97    C110    1.435   .     S
C98    C141    1.406   .     A
C98    C100    1.411   .     A
C98    H148    1.082   .     S
C99    C119    1.411   .     A
C99    C142    1.411   .     A
C99    C676    1.513   1_554 S
C100   C130    1.411   .     A
C100   C675    1.513   .     S
C101   C103    1.397   .     S
C101   O187    1.274   .     A
C101   O189    1.277   .     A
C102   O190    1.277   .     A
C102   C104    1.397   .     S
C102   O188    1.274   .     A
C104   C199    1.330   .     S
C104   H250    1.088   .     S
C105   H165    1.086   .     S
C105   C116    1.399   .     A
C105   C107    1.383   .     A
C106   C117    1.399   .     A
C106   C109    1.385   .     A
C106   H175    1.086   .     S
C107   C110    1.404   .     A
C107   C118    1.484   .     S
C108   C111    1.448   .     S
C108   O184    1.287   .     A
C108   O186    1.287   .     A
C109   C125    1.485   .     S
C109   C111    1.410   .     A
C110   C112    1.400   .     A
C111   C113    1.403   .     A
C112   H176    1.084   .     S
C112   C114    1.391   .     A
C113   C115    1.390   .     A
C113   H177    1.084   .     S
C114   C116    1.413   .     A
C114   C132    1.523   .     S
C115   C117    1.411   .     A
C115   C135    1.523   .     S
C116   C405    1.442   1_545 S
C117   C404    1.442   .     S
C118   C120    1.405   .     A
C118   C124    1.406   .     A
C119   H178    1.082   .     S
C119   C138    1.406   .     A
C120   H149    1.083   .     S
C120   C121    1.399   .     A
C121   H150    1.082   .     S
C121   C122    1.398   .     A
C122   C123    1.397   .     A
C123   C124    1.398   .     A
C124   H153    1.083   .     S
C125   C126    1.405   .     A
C125   C131    1.407   .     A
C126   C127    1.399   .     A
C126   H155    1.083   .     S
C127   H156    1.082   .     S
C127   C128    1.398   .     A
C128   H157    1.082   .     S
C128   C129    1.398   .     A
C129   C131    1.398   .     A
C129   H158    1.083   .     S
C130   H179    1.082   .     S
C130   C139    1.406   .     A
C131   H159    1.083   .     S
C132   C133    1.533   .     S
C132   H166    1.110   .     S
C132   H167    1.113   .     S
C133   H163    1.111   .     S
C133   C230    1.527   .     S
C133   H452    1.108   1_545 S
C134   H161    1.111   .     S
C134   H448    1.111   1_545 S
C134   H450    1.110   1_545 S
C135   H173    1.109   .     S
C135   H174    1.113   .     S
C135   C136    1.532   .     S
C136   H171    1.112   .     S
C136   C425    1.526   .     S
C136   H460    1.108   .     S
C137   H168    1.111   .     S
C137   C424    1.526   1_545 S
C137   H457    1.111   1_545 S
C137   H266    1.110   .     S
C138   H180    1.082   .     S
C138   N181    1.362   .     A
C139   H144    1.082   .     S
C139   N182    1.362   .     A
C140   H145    1.082   .     S
C140   C142    1.406   .     A
C140   N181    1.363   .     A
C141   N182    1.363   .     A
C141   H146    1.082   .     S
C142   H147    1.082   .     S
H143   C199    1.088   .     S
H151   C218    1.082   .     S
H152   C219    1.081   .     S
H160   C422    1.111   .     S
H162   C422    1.110   .     S
H164   C421    1.108   .     S
H169   C425    1.111   .     S
H172   C424    1.108   1_545 S
N181   Zn192   2.003   .     S
N182   Zn191   2.003   .     S
O183   Zn191   1.979   .     S
O184   Zn192   1.979   .     S
O185   Zn192   1.985   .     S
O186   Zn191   1.985   .     S
O187   Zn191   1.959   .     S
O188   Zn192   1.959   .     S
O189   Zn192   1.973   .     S
O190   Zn191   1.973   .     S
C193   O279    1.284   .     A
C193   O281    1.284   .     A
C193   C206    1.435   .     S
C194   C237    1.406   .     A
C194   C196    1.411   .     A
C194   H244    1.082   .     S
C195   C215    1.411   .     A
C195   C238    1.411   .     A
C195   C772    1.513   1_554 S
C196   C226    1.411   .     A
C196   C771    1.513   .     S
C197   C199    1.397   .     S
C197   O283    1.274   .     A
C197   O285    1.277   .     A
C198   O286    1.277   .     A
C198   C200    1.397   .     S
C198   O284    1.274   .     A
C200   C7      1.330   1_655 S
C200   H58     1.088   1_655 S
C201   H261    1.086   .     S
C201   C212    1.399   .     A
C201   C203    1.383   .     A
C202   C213    1.399   .     A
C202   C205    1.385   .     A
C202   H271    1.086   .     S
C203   C206    1.404   .     A
C203   C214    1.484   .     S
C204   C207    1.448   .     S
C204   O280    1.287   .     A
C204   O282    1.287   .     A
C205   C221    1.485   .     S
C205   C207    1.410   .     A
C206   C208    1.400   .     A
C207   C209    1.403   .     A
C208   H272    1.084   .     S
C208   C210    1.391   .     A
C209   C211    1.390   .     A
C209   H273    1.084   .     S
C210   C212    1.413   .     A
C210   C228    1.523   .     S
C211   C213    1.411   .     A
C211   C231    1.523   .     S
C212   C501    1.442   1_545 S
C213   C500    1.442   .     S
C214   C216    1.405   .     A
C214   C220    1.406   .     A
C215   H274    1.082   .     S
C215   C234    1.406   .     A
C216   H245    1.083   .     S
C216   C217    1.399   .     A
C217   H246    1.082   .     S
C217   C218    1.398   .     A
C218   C219    1.397   .     A
C219   C220    1.398   .     A
C220   H249    1.083   .     S
C221   C222    1.405   .     A
C221   C227    1.407   .     A
C222   C223    1.399   .     A
C222   H251    1.083   .     S
C223   H252    1.082   .     S
C223   C224    1.398   .     A
C224   H253    1.082   .     S
C224   C225    1.398   .     A
C225   C227    1.398   .     A
C225   H254    1.083   .     S
C226   H275    1.082   .     S
C226   C235    1.406   .     A
C227   H255    1.083   .     S
C228   C229    1.533   .     S
C228   H262    1.110   .     S
C228   H263    1.113   .     S
C229   H259    1.111   .     S
C229   C38     1.527   1_655 S
C229   H548    1.108   1_545 S
C230   H257    1.111   .     S
C230   H544    1.111   1_545 S
C230   H546    1.110   1_545 S
C231   H269    1.109   .     S
C231   H270    1.113   .     S
C231   C232    1.532   .     S
C232   H267    1.112   .     S
C232   C521    1.526   .     S
C232   H556    1.108   .     S
C233   H264    1.111   .     S
C233   C520    1.526   1_545 S
C233   H553    1.111   1_545 S
C233   H74     1.110   1_655 S
C234   H276    1.082   .     S
C234   N277    1.362   .     A
C235   H240    1.082   .     S
C235   N278    1.362   .     A
C236   H241    1.082   .     S
C236   C238    1.406   .     A
C236   N277    1.363   .     A
C237   N278    1.363   .     A
C237   H242    1.082   .     S
C238   H243    1.082   .     S
H239   C7      1.088   1_655 S
H247   C26     1.082   1_655 S
H248   C27     1.081   1_655 S
H256   C518    1.111   .     S
H258   C518    1.110   .     S
H260   C517    1.108   .     S
H265   C521    1.111   .     S
H268   C520    1.108   1_545 S
N277   Zn288   2.003   .     S
N278   Zn287   2.003   .     S
O279   Zn287   1.979   .     S
O280   Zn288   1.979   .     S
O281   Zn288   1.985   .     S
O282   Zn287   1.985   .     S
O283   Zn287   1.959   .     S
O284   Zn288   1.959   .     S
O285   Zn288   1.973   .     S
O286   Zn287   1.973   .     S
C289   O375    1.284   .     A
C289   O377    1.284   .     A
C289   C302    1.435   .     S
C290   C333    1.406   .     A
C290   C292    1.411   .     A
C290   H340    1.082   .     S
C291   C311    1.411   .     A
C291   C334    1.411   .     A
C291   C868    1.513   1_554 S
C292   C322    1.411   .     A
C292   C867    1.513   .     S
C293   C295    1.397   .     S
C293   O379    1.274   .     A
C293   O381    1.277   .     A
C294   O382    1.277   .     A
C294   C296    1.397   .     S
C294   O380    1.274   .     A
C295   C488    1.330   1_455 S
C295   H527    1.088   1_455 S
C296   C391    1.330   .     S
C296   H442    1.088   .     S
C297   H357    1.086   .     S
C297   C308    1.399   .     A
C297   C299    1.383   .     A
C298   C309    1.399   .     A
C298   C301    1.385   .     A
C298   H367    1.086   .     S
C299   C302    1.404   .     A
C299   C310    1.484   .     S
C300   C303    1.448   .     S
C300   O376    1.287   .     A
C300   O378    1.287   .     A
C301   C317    1.485   .     S
C301   C303    1.410   .     A
C302   C304    1.400   .     A
C303   C305    1.403   .     A
C304   H368    1.084   .     S
C304   C306    1.391   .     A
C305   C307    1.390   .     A
C305   H369    1.084   .     S
C306   C308    1.413   .     A
C306   C324    1.523   .     S
C307   C309    1.411   .     A
C307   C327    1.523   .     S
C309   C20     1.442   1_565 S
C310   C312    1.405   .     A
C310   C316    1.406   .     A
C311   H370    1.082   .     S
C311   C330    1.406   .     A
C312   H341    1.083   .     S
C312   C313    1.399   .     A
C313   H342    1.082   .     S
C313   C314    1.398   .     A
C314   C315    1.397   .     A
C314   H535    1.082   1_455 S
C315   C316    1.398   .     A
C315   H536    1.081   1_455 S
C316   H345    1.083   .     S
C317   C318    1.405   .     A
C317   C323    1.407   .     A
C318   C319    1.399   .     A
C318   H347    1.083   .     S
C319   H348    1.082   .     S
C319   C320    1.398   .     A
C320   H349    1.082   .     S
C320   C321    1.398   .     A
C321   C323    1.398   .     A
C321   H350    1.083   .     S
C322   H371    1.082   .     S
C322   C331    1.406   .     A
C323   H351    1.083   .     S
C324   C325    1.533   .     S
C324   H358    1.110   .     S
C324   H359    1.113   .     S
C325   H355    1.111   .     S
C325   C422    1.527   .     S
C326   H353    1.111   .     S
C326   C517    1.527   1_455 S
C327   H365    1.109   .     S
C327   H366    1.113   .     S
C327   C328    1.532   .     S
C328   H363    1.112   .     S
C328   C41     1.526   1_565 S
C328   H76     1.108   1_565 S
C329   H360    1.111   .     S
C329   H458    1.110   .     S
C330   H372    1.082   .     S
C330   N373    1.362   .     A
C331   H336    1.082   .     S
C331   N374    1.362   .     A
C332   H337    1.082   .     S
C332   C334    1.406   .     A
C332   N373    1.363   .     A
C333   N374    1.363   .     A
C333   H338    1.082   .     S
C334   H339    1.082   .     S
H335   C391    1.088   .     S
H343   C410    1.082   .     S
H344   C411    1.081   .     S
H346   C488    1.088   1_455 S
H352   C38     1.111   1_565 S
H354   C38     1.110   1_565 S
H356   C37     1.108   1_565 S
H361   C41     1.111   1_565 S
H362   C521    1.110   1_455 S
N373   Zn384   2.003   .     S
N374   Zn383   2.003   .     S
O375   Zn383   1.979   .     S
O376   Zn384   1.979   .     S
O377   Zn384   1.985   .     S
O378   Zn383   1.985   .     S
O379   Zn383   1.959   .     S
O380   Zn384   1.959   .     S
O381   Zn384   1.973   .     S
O382   Zn383   1.973   .     S
C385   O471    1.284   .     A
C385   O473    1.284   .     A
C385   C398    1.435   .     S
C386   C429    1.406   .     A
C386   C388    1.411   .     A
C386   H436    1.082   .     S
C387   C407    1.411   .     A
C387   C430    1.411   .     A
C387   C964    1.513   1_554 S
C388   C418    1.411   .     A
C388   C963    1.513   .     S
C389   C391    1.397   .     S
C389   O475    1.274   .     A
C389   O477    1.277   .     A
C390   O478    1.277   .     A
C390   C392    1.397   .     S
C390   O476    1.274   .     A
C392   C487    1.330   .     S
C392   H538    1.088   .     S
C393   H453    1.086   .     S
C393   C404    1.399   .     A
C393   C395    1.383   .     A
C394   C405    1.399   .     A
C394   C397    1.385   .     A
C394   H463    1.086   .     S
C395   C398    1.404   .     A
C395   C406    1.484   .     S
C396   C399    1.448   .     S
C396   O472    1.287   .     A
C396   O474    1.287   .     A
C397   C413    1.485   .     S
C397   C399    1.410   .     A
C398   C400    1.400   .     A
C399   C401    1.403   .     A
C400   H464    1.084   .     S
C400   C402    1.391   .     A
C401   C403    1.390   .     A
C401   H465    1.084   .     S
C402   C404    1.413   .     A
C402   C420    1.523   .     S
C403   C405    1.411   .     A
C403   C423    1.523   .     S
C405   C116    1.442   1_565 S
C406   C408    1.405   .     A
C406   C412    1.406   .     A
C407   H466    1.082   .     S
C407   C426    1.406   .     A
C408   H437    1.083   .     S
C408   C409    1.399   .     A
C409   H438    1.082   .     S
C409   C410    1.398   .     A
C410   C411    1.397   .     A
C411   C412    1.398   .     A
C412   H441    1.083   .     S
C413   C414    1.405   .     A
C413   C419    1.407   .     A
C414   C415    1.399   .     A
C414   H443    1.083   .     S
C415   H444    1.082   .     S
C415   C416    1.398   .     A
C416   H445    1.082   .     S
C416   C417    1.398   .     A
C417   C419    1.398   .     A
C417   H446    1.083   .     S
C418   H467    1.082   .     S
C418   C427    1.406   .     A
C419   H447    1.083   .     S
C420   C421    1.533   .     S
C420   H454    1.110   .     S
C420   H455    1.113   .     S
C421   H451    1.111   .     S
C421   C518    1.527   .     S
C422   H449    1.111   .     S
C423   H461    1.109   .     S
C423   H462    1.113   .     S
C423   C424    1.532   .     S
C424   H459    1.112   .     S
C424   C137    1.526   1_565 S
C424   H172    1.108   1_565 S
C425   H456    1.111   .     S
C425   H554    1.110   .     S
C426   H468    1.082   .     S
C426   N469    1.362   .     A
C427   H432    1.082   .     S
C427   N470    1.362   .     A
C428   H433    1.082   .     S
C428   C430    1.406   .     A
C428   N469    1.363   .     A
C429   N470    1.363   .     A
C429   H434    1.082   .     S
C430   H435    1.082   .     S
H431   C487    1.088   .     S
H439   C506    1.082   .     S
H440   C507    1.081   .     S
H448   C134    1.111   1_565 S
H450   C134    1.110   1_565 S
H452   C133    1.108   1_565 S
H457   C137    1.111   1_565 S
N469   Zn480   2.003   .     S
N470   Zn479   2.003   .     S
O471   Zn479   1.979   .     S
O472   Zn480   1.979   .     S
O473   Zn480   1.985   .     S
O474   Zn479   1.985   .     S
O475   Zn479   1.959   .     S
O476   Zn480   1.959   .     S
O477   Zn480   1.973   .     S
O478   Zn479   1.973   .     S
C481   O567    1.284   .     A
C481   O569    1.284   .     A
C481   C494    1.435   .     S
C482   C525    1.406   .     A
C482   C484    1.411   .     A
C482   H532    1.082   .     S
C483   C503    1.411   .     A
C483   C526    1.411   .     A
C483   C1060   1.513   1_554 S
C484   C514    1.411   .     A
C484   C1059   1.513   .     S
C485   C487    1.397   .     S
C485   O571    1.274   .     A
C485   O573    1.277   .     A
C486   O574    1.277   .     A
C486   C488    1.397   .     S
C486   O572    1.274   .     A
C488   C295    1.330   1_655 S
C488   H346    1.088   1_655 S
C489   H549    1.086   .     S
C489   C500    1.399   .     A
C489   C491    1.383   .     A
C490   C501    1.399   .     A
C490   C493    1.385   .     A
C490   H559    1.086   .     S
C491   C494    1.404   .     A
C491   C502    1.484   .     S
C492   C495    1.448   .     S
C492   O568    1.287   .     A
C492   O570    1.287   .     A
C493   C509    1.485   .     S
C493   C495    1.410   .     A
C494   C496    1.400   .     A
C495   C497    1.403   .     A
C496   H560    1.084   .     S
C496   C498    1.391   .     A
C497   C499    1.390   .     A
C497   H561    1.084   .     S
C498   C500    1.413   .     A
C498   C516    1.523   .     S
C499   C501    1.411   .     A
C499   C519    1.523   .     S
C501   C212    1.442   1_565 S
C502   C504    1.405   .     A
C502   C508    1.406   .     A
C503   H562    1.082   .     S
C503   C522    1.406   .     A
C504   H533    1.083   .     S
C504   C505    1.399   .     A
C505   H534    1.082   .     S
C505   C506    1.398   .     A
C506   C507    1.397   .     A
C507   C508    1.398   .     A
C508   H537    1.083   .     S
C509   C510    1.405   .     A
C509   C515    1.407   .     A
C510   C511    1.399   .     A
C510   H539    1.083   .     S
C511   H540    1.082   .     S
C511   C512    1.398   .     A
C512   H541    1.082   .     S
C512   C513    1.398   .     A
C513   C515    1.398   .     A
C513   H542    1.083   .     S
C514   H563    1.082   .     S
C514   C523    1.406   .     A
C515   H543    1.083   .     S
C516   C517    1.533   .     S
C516   H550    1.110   .     S
C516   H551    1.113   .     S
C517   H547    1.111   .     S
C517   C326    1.527   1_655 S
C518   H545    1.111   .     S
C519   H557    1.109   .     S
C519   H558    1.113   .     S
C519   C520    1.532   .     S
C520   H555    1.112   .     S
C520   C233    1.526   1_565 S
C520   H268    1.108   1_565 S
C521   H552    1.111   .     S
C521   H362    1.110   1_655 S
C522   H564    1.082   .     S
C522   N565    1.362   .     A
C523   H528    1.082   .     S
C523   N566    1.362   .     A
C524   H529    1.082   .     S
C524   C526    1.406   .     A
C524   N565    1.363   .     A
C525   N566    1.363   .     A
C525   H530    1.082   .     S
C526   H531    1.082   .     S
H527   C295    1.088   1_655 S
H535   C314    1.082   1_655 S
H536   C315    1.081   1_655 S
H544   C230    1.111   1_565 S
H546   C230    1.110   1_565 S
H548   C229    1.108   1_565 S
H553   C233    1.111   1_565 S
N565   Zn576   2.003   .     S
N566   Zn575   2.003   .     S
O567   Zn575   1.979   .     S
O568   Zn576   1.979   .     S
O569   Zn576   1.985   .     S
O570   Zn575   1.985   .     S
O571   Zn575   1.959   .     S
O572   Zn576   1.959   .     S
O573   Zn576   1.973   .     S
O574   Zn575   1.973   .     S
C577   O663    1.284   .     A
C577   O665    1.284   .     A
C577   C590    1.435   .     S
C578   C621    1.406   .     A
C578   C580    1.411   .     A
C578   H628    1.082   .     S
C579   C599    1.411   .     A
C579   C622    1.411   .     A
C580   C610    1.411   .     A
C580   C3      1.513   1_556 S
C581   C583    1.397   .     S
C581   O667    1.274   .     A
C581   O669    1.277   .     A
C582   O670    1.277   .     A
C582   C584    1.397   .     S
C582   O668    1.274   .     A
C583   C776    1.330   1_455 S
C583   H815    1.088   1_455 S
C584   C679    1.330   .     S
C584   H730    1.088   .     S
C585   H645    1.086   .     S
C585   C596    1.399   .     A
C585   C587    1.383   .     A
C586   C597    1.399   .     A
C586   C589    1.385   .     A
C586   H655    1.086   .     S
C587   C590    1.404   .     A
C587   C598    1.484   .     S
C588   C591    1.448   .     S
C588   O664    1.287   .     A
C588   O666    1.287   .     A
C589   C605    1.485   .     S
C589   C591    1.410   .     A
C590   C592    1.400   .     A
C591   C593    1.403   .     A
C592   H656    1.084   .     S
C592   C594    1.391   .     A
C593   C595    1.390   .     A
C593   H657    1.084   .     S
C594   C596    1.413   .     A
C594   C612    1.523   .     S
C595   C597    1.411   .     A
C595   C615    1.523   .     S
C596   C885    1.442   1_545 S
C597   C884    1.442   .     S
C598   C600    1.405   .     A
C598   C604    1.406   .     A
C599   H658    1.082   .     S
C599   C618    1.406   .     A
C600   H629    1.083   .     S
C600   C601    1.399   .     A
C601   H630    1.082   .     S
C601   C602    1.398   .     A
C602   C603    1.397   .     A
C602   H823    1.082   1_455 S
C603   C604    1.398   .     A
C603   H824    1.081   1_455 S
C604   H633    1.083   .     S
C605   C606    1.405   .     A
C605   C611    1.407   .     A
C606   C607    1.399   .     A
C606   H635    1.083   .     S
C607   H636    1.082   .     S
C607   C608    1.398   .     A
C608   H637    1.082   .     S
C608   C609    1.398   .     A
C609   C611    1.398   .     A
C609   H638    1.083   .     S
C610   H659    1.082   .     S
C610   C619    1.406   .     A
C611   H639    1.083   .     S
C612   C613    1.533   .     S
C612   H646    1.110   .     S
C612   H647    1.113   .     S
C613   H643    1.111   .     S
C613   C710    1.527   .     S
C613   H932    1.108   1_545 S
C614   H641    1.111   .     S
C614   C805    1.527   1_455 S
C614   H928    1.111   1_545 S
C614   H930    1.110   1_545 S
C615   H653    1.109   .     S
C615   H654    1.113   .     S
C615   C616    1.532   .     S
C616   H651    1.112   .     S
C616   C905    1.526   .     S
C616   H940    1.108   .     S
C617   H648    1.111   .     S
C617   C904    1.526   1_545 S
C617   H937    1.111   1_545 S
C617   H746    1.110   .     S
C618   H660    1.082   .     S
C618   N661    1.362   .     A
C619   H624    1.082   .     S
C619   N662    1.362   .     A
C620   H625    1.082   .     S
C620   C622    1.406   .     A
C620   N661    1.363   .     A
C621   N662    1.363   .     A
C621   H626    1.082   .     S
C622   H627    1.082   .     S
H623   C679    1.088   .     S
H631   C698    1.082   .     S
H632   C699    1.081   .     S
H634   C776    1.088   1_455 S
H640   C902    1.111   .     S
H642   C902    1.110   .     S
H644   C901    1.108   .     S
H649   C905    1.111   .     S
H650   C809    1.110   1_455 S
H652   C904    1.108   1_545 S
N661   Zn672   2.003   .     S
N662   Zn671   2.003   .     S
O663   Zn671   1.979   .     S
O664   Zn672   1.979   .     S
O665   Zn672   1.985   .     S
O666   Zn671   1.985   .     S
O667   Zn671   1.959   .     S
O668   Zn672   1.959   .     S
O669   Zn672   1.973   .     S
O670   Zn671   1.973   .     S
C673   O759    1.284   .     A
C673   O761    1.284   .     A
C673   C686    1.435   .     S
C674   C717    1.406   .     A
C674   C676    1.411   .     A
C674   H724    1.082   .     S
C675   C695    1.411   .     A
C675   C718    1.411   .     A
C676   C706    1.411   .     A
C676   C99     1.513   1_556 S
C677   C679    1.397   .     S
C677   O763    1.274   .     A
C677   O765    1.277   .     A
C678   O766    1.277   .     A
C678   C680    1.397   .     S
C678   O764    1.274   .     A
C680   C775    1.330   .     S
C680   H826    1.088   .     S
C681   H741    1.086   .     S
C681   C692    1.399   .     A
C681   C683    1.383   .     A
C682   C693    1.399   .     A
C682   C685    1.385   .     A
C682   H751    1.086   .     S
C683   C686    1.404   .     A
C683   C694    1.484   .     S
C684   C687    1.448   .     S
C684   O760    1.287   .     A
C684   O762    1.287   .     A
C685   C701    1.485   .     S
C685   C687    1.410   .     A
C686   C688    1.400   .     A
C687   C689    1.403   .     A
C688   H752    1.084   .     S
C688   C690    1.391   .     A
C689   C691    1.390   .     A
C689   H753    1.084   .     S
C690   C692    1.413   .     A
C690   C708    1.523   .     S
C691   C693    1.411   .     A
C691   C711    1.523   .     S
C692   C981    1.442   1_545 S
C693   C980    1.442   .     S
C694   C696    1.405   .     A
C694   C700    1.406   .     A
C695   H754    1.082   .     S
C695   C714    1.406   .     A
C696   H725    1.083   .     S
C696   C697    1.399   .     A
C697   H726    1.082   .     S
C697   C698    1.398   .     A
C698   C699    1.397   .     A
C699   C700    1.398   .     A
C700   H729    1.083   .     S
C701   C702    1.405   .     A
C701   C707    1.407   .     A
C702   C703    1.399   .     A
C702   H731    1.083   .     S
C703   H732    1.082   .     S
C703   C704    1.398   .     A
C704   H733    1.082   .     S
C704   C705    1.398   .     A
C705   C707    1.398   .     A
C705   H734    1.083   .     S
C706   H755    1.082   .     S
C706   C715    1.406   .     A
C707   H735    1.083   .     S
C708   C709    1.533   .     S
C708   H742    1.110   .     S
C708   H743    1.113   .     S
C709   H739    1.111   .     S
C709   C806    1.527   .     S
C709   H1028   1.108   1_545 S
C710   H737    1.111   .     S
C710   H1024   1.111   1_545 S
C710   H1026   1.110   1_545 S
C711   H749    1.109   .     S
C711   H750    1.113   .     S
C711   C712    1.532   .     S
C712   H747    1.112   .     S
C712   C1001   1.526   .     S
C712   H1036   1.108   .     S
C713   H744    1.111   .     S
C713   C1000   1.526   1_545 S
C713   H1033   1.111   1_545 S
C713   H842    1.110   .     S
C714   H756    1.082   .     S
C714   N757    1.362   .     A
C715   H720    1.082   .     S
C715   N758    1.362   .     A
C716   H721    1.082   .     S
C716   C718    1.406   .     A
C716   N757    1.363   .     A
C717   N758    1.363   .     A
C717   H722    1.082   .     S
C718   H723    1.082   .     S
H719   C775    1.088   .     S
H727   C794    1.082   .     S
H728   C795    1.081   .     S
H736   C998    1.111   .     S
H738   C998    1.110   .     S
H740   C997    1.108   .     S
H745   C1001   1.111   .     S
H748   C1000   1.108   1_545 S
N757   Zn768   2.003   .     S
N758   Zn767   2.003   .     S
O759   Zn767   1.979   .     S
O760   Zn768   1.979   .     S
O761   Zn768   1.985   .     S
O762   Zn767   1.985   .     S
O763   Zn767   1.959   .     S
O764   Zn768   1.959   .     S
O765   Zn768   1.973   .     S
O766   Zn767   1.973   .     S
C769   O855    1.284   .     A
C769   O857    1.284   .     A
C769   C782    1.435   .     S
C770   C813    1.406   .     A
C770   C772    1.411   .     A
C770   H820    1.082   .     S
C771   C791    1.411   .     A
C771   C814    1.411   .     A
C772   C802    1.411   .     A
C772   C195    1.513   1_556 S
C773   C775    1.397   .     S
C773   O859    1.274   .     A
C773   O861    1.277   .     A
C774   O862    1.277   .     A
C774   C776    1.397   .     S
C774   O860    1.274   .     A
C776   C583    1.330   1_655 S
C776   H634    1.088   1_655 S
C777   H837    1.086   .     S
C777   C788    1.399   .     A
C777   C779    1.383   .     A
C778   C789    1.399   .     A
C778   C781    1.385   .     A
C778   H847    1.086   .     S
C779   C782    1.404   .     A
C779   C790    1.484   .     S
C780   C783    1.448   .     S
C780   O856    1.287   .     A
C780   O858    1.287   .     A
C781   C797    1.485   .     S
C781   C783    1.410   .     A
C782   C784    1.400   .     A
C783   C785    1.403   .     A
C784   H848    1.084   .     S
C784   C786    1.391   .     A
C785   C787    1.390   .     A
C785   H849    1.084   .     S
C786   C788    1.413   .     A
C786   C804    1.523   .     S
C787   C789    1.411   .     A
C787   C807    1.523   .     S
C788   C1077   1.442   1_545 S
C789   C1076   1.442   .     S
C790   C792    1.405   .     A
C790   C796    1.406   .     A
C791   H850    1.082   .     S
C791   C810    1.406   .     A
C792   H821    1.083   .     S
C792   C793    1.399   .     A
C793   H822    1.082   .     S
C793   C794    1.398   .     A
C794   C795    1.397   .     A
C795   C796    1.398   .     A
C796   H825    1.083   .     S
C797   C798    1.405   .     A
C797   C803    1.407   .     A
C798   C799    1.399   .     A
C798   H827    1.083   .     S
C799   H828    1.082   .     S
C799   C800    1.398   .     A
C800   H829    1.082   .     S
C800   C801    1.398   .     A
C801   C803    1.398   .     A
C801   H830    1.083   .     S
C802   H851    1.082   .     S
C802   C811    1.406   .     A
C803   H831    1.083   .     S
C804   C805    1.533   .     S
C804   H838    1.110   .     S
C804   H839    1.113   .     S
C805   H835    1.111   .     S
C805   C614    1.527   1_655 S
C805   H1124   1.108   1_545 S
C806   H833    1.111   .     S
C806   H1120   1.111   1_545 S
C806   H1122   1.110   1_545 S
C807   H845    1.109   .     S
C807   H846    1.113   .     S
C807   C808    1.532   .     S
C808   H843    1.112   .     S
C808   C1097   1.526   .     S
C808   H1132   1.108   .     S
C809   H840    1.111   .     S
C809   C1096   1.526   1_545 S
C809   H1129   1.111   1_545 S
C809   H650    1.110   1_655 S
C810   H852    1.082   .     S
C810   N853    1.362   .     A
C811   H816    1.082   .     S
C811   N854    1.362   .     A
C812   H817    1.082   .     S
C812   C814    1.406   .     A
C812   N853    1.363   .     A
C813   N854    1.363   .     A
C813   H818    1.082   .     S
C814   H819    1.082   .     S
H815   C583    1.088   1_655 S
H823   C602    1.082   1_655 S
H824   C603    1.081   1_655 S
H832   C1094   1.111   .     S
H834   C1094   1.110   .     S
H836   C1093   1.108   .     S
H841   C1097   1.111   .     S
H844   C1096   1.108   1_545 S
N853   Zn864   2.003   .     S
N854   Zn863   2.003   .     S
O855   Zn863   1.979   .     S
O856   Zn864   1.979   .     S
O857   Zn864   1.985   .     S
O858   Zn863   1.985   .     S
O859   Zn863   1.959   .     S
O860   Zn864   1.959   .     S
O861   Zn864   1.973   .     S
O862   Zn863   1.973   .     S
C865   O951    1.284   .     A
C865   O953    1.284   .     A
C865   C878    1.435   .     S
C866   C909    1.406   .     A
C866   C868    1.411   .     A
C866   H916    1.082   .     S
C867   C887    1.411   .     A
C867   C910    1.411   .     A
C868   C898    1.411   .     A
C868   C291    1.513   1_556 S
C869   C871    1.397   .     S
C869   O955    1.274   .     A
C869   O957    1.277   .     A
C870   O958    1.277   .     A
C870   C872    1.397   .     S
C870   O956    1.274   .     A
C871   C1064   1.330   1_455 S
C871   H1103   1.088   1_455 S
C872   C967    1.330   .     S
C872   H1018   1.088   .     S
C873   H933    1.086   .     S
C873   C884    1.399   .     A
C873   C875    1.383   .     A
C874   C885    1.399   .     A
C874   C877    1.385   .     A
C874   H943    1.086   .     S
C875   C878    1.404   .     A
C875   C886    1.484   .     S
C876   C879    1.448   .     S
C876   O952    1.287   .     A
C876   O954    1.287   .     A
C877   C893    1.485   .     S
C877   C879    1.410   .     A
C878   C880    1.400   .     A
C879   C881    1.403   .     A
C880   H944    1.084   .     S
C880   C882    1.391   .     A
C881   C883    1.390   .     A
C881   H945    1.084   .     S
C882   C884    1.413   .     A
C882   C900    1.523   .     S
C883   C885    1.411   .     A
C883   C903    1.523   .     S
C885   C596    1.442   1_565 S
C886   C888    1.405   .     A
C886   C892    1.406   .     A
C887   H946    1.082   .     S
C887   C906    1.406   .     A
C888   H917    1.083   .     S
C888   C889    1.399   .     A
C889   H918    1.082   .     S
C889   C890    1.398   .     A
C890   C891    1.397   .     A
C890   H1111   1.082   1_455 S
C891   C892    1.398   .     A
C891   H1112   1.081   1_455 S
C892   H921    1.083   .     S
C893   C894    1.405   .     A
C893   C899    1.407   .     A
C894   C895    1.399   .     A
C894   H923    1.083   .     S
C895   H924    1.082   .     S
C895   C896    1.398   .     A
C896   H925    1.082   .     S
C896   C897    1.398   .     A
C897   C899    1.398   .     A
C897   H926    1.083   .     S
C898   H947    1.082   .     S
C898   C907    1.406   .     A
C899   H927    1.083   .     S
C900   C901    1.533   .     S
C900   H934    1.110   .     S
C900   H935    1.113   .     S
C901   H931    1.111   .     S
C901   C998    1.527   .     S
C902   H929    1.111   .     S
C902   C1093   1.527   1_455 S
C903   H941    1.109   .     S
C903   H942    1.113   .     S
C903   C904    1.532   .     S
C904   H939    1.112   .     S
C904   C617    1.526   1_565 S
C904   H652    1.108   1_565 S
C905   H936    1.111   .     S
C905   H1034   1.110   .     S
C906   H948    1.082   .     S
C906   N949    1.362   .     A
C907   H912    1.082   .     S
C907   N950    1.362   .     A
C908   H913    1.082   .     S
C908   C910    1.406   .     A
C908   N949    1.363   .     A
C909   N950    1.363   .     A
C909   H914    1.082   .     S
C910   H915    1.082   .     S
H911   C967    1.088   .     S
H919   C986    1.082   .     S
H920   C987    1.081   .     S
H922   C1064   1.088   1_455 S
H928   C614    1.111   1_565 S
H930   C614    1.110   1_565 S
H932   C613    1.108   1_565 S
H937   C617    1.111   1_565 S
H938   C1097   1.110   1_455 S
N949   Zn960   2.003   .     S
N950   Zn959   2.003   .     S
O951   Zn959   1.979   .     S
O952   Zn960   1.979   .     S
O953   Zn960   1.985   .     S
O954   Zn959   1.985   .     S
O955   Zn959   1.959   .     S
O956   Zn960   1.959   .     S
O957   Zn960   1.973   .     S
O958   Zn959   1.973   .     S
C961   O1047   1.284   .     A
C961   O1049   1.284   .     A
C961   C974    1.435   .     S
C962   C1005   1.406   .     A
C962   C964    1.411   .     A
C962   H1012   1.082   .     S
C963   C983    1.411   .     A
C963   C1006   1.411   .     A
C964   C994    1.411   .     A
C964   C387    1.513   1_556 S
C965   C967    1.397   .     S
C965   O1051   1.274   .     A
C965   O1053   1.277   .     A
C966   O1054   1.277   .     A
C966   C968    1.397   .     S
C966   O1052   1.274   .     A
C968   C1063   1.330   .     S
C968   H1114   1.088   .     S
C969   H1029   1.086   .     S
C969   C980    1.399   .     A
C969   C971    1.383   .     A
C970   C981    1.399   .     A
C970   C973    1.385   .     A
C970   H1039   1.086   .     S
C971   C974    1.404   .     A
C971   C982    1.484   .     S
C972   C975    1.448   .     S
C972   O1048   1.287   .     A
C972   O1050   1.287   .     A
C973   C989    1.485   .     S
C973   C975    1.410   .     A
C974   C976    1.400   .     A
C975   C977    1.403   .     A
C976   H1040   1.084   .     S
C976   C978    1.391   .     A
C977   C979    1.390   .     A
C977   H1041   1.084   .     S
C978   C980    1.413   .     A
C978   C996    1.523   .     S
C979   C981    1.411   .     A
C979   C999    1.523   .     S
C981   C692    1.442   1_565 S
C982   C984    1.405   .     A
C982   C988    1.406   .     A
C983   H1042   1.082   .     S
C983   C1002   1.406   .     A
C984   H1013   1.083   .     S
C984   C985    1.399   .     A
C985   H1014   1.082   .     S
C985   C986    1.398   .     A
C986   C987    1.397   .     A
C987   C988    1.398   .     A
C988   H1017   1.083   .     S
C989   C990    1.405   .     A
C989   C995    1.407   .     A
C990   C991    1.399   .     A
C990   H1019   1.083   .     S
C991   H1020   1.082   .     S
C991   C992    1.398   .     A
C992   H1021   1.082   .     S
C992   C993    1.398   .     A
C993   C995    1.398   .     A
C993   H1022   1.083   .     S
C994   H1043   1.082   .     S
C994   C1003   1.406   .     A
C995   H1023   1.083   .     S
C996   C997    1.533   .     S
C996   H1030   1.110   .     S
C996   H1031   1.113   .     S
C997   H1027   1.111   .     S
C997   C1094   1.527   .     S
C998   H1025   1.111   .     S
C999   H1037   1.109   .     S
C999   H1038   1.113   .     S
C999   C1000   1.532   .     S
C1000  H1035   1.112   .     S
C1000  C713    1.526   1_565 S
C1000  H748    1.108   1_565 S
C1001  H1032   1.111   .     S
C1001  H1130   1.110   .     S
C1002  H1044   1.082   .     S
C1002  N1045   1.362   .     A
C1003  H1008   1.082   .     S
C1003  N1046   1.362   .     A
C1004  H1009   1.082   .     S
C1004  C1006   1.406   .     A
C1004  N1045   1.363   .     A
C1005  N1046   1.363   .     A
C1005  H1010   1.082   .     S
C1006  H1011   1.082   .     S
H1007  C1063   1.088   .     S
H1015  C1082   1.082   .     S
H1016  C1083   1.081   .     S
H1024  C710    1.111   1_565 S
H1026  C710    1.110   1_565 S
H1028  C709    1.108   1_565 S
H1033  C713    1.111   1_565 S
N1045  Zn1056  2.003   .     S
N1046  Zn1055  2.003   .     S
O1047  Zn1055  1.979   .     S
O1048  Zn1056  1.979   .     S
O1049  Zn1056  1.985   .     S
O1050  Zn1055  1.985   .     S
O1051  Zn1055  1.959   .     S
O1052  Zn1056  1.959   .     S
O1053  Zn1056  1.973   .     S
O1054  Zn1055  1.973   .     S
C1057  O1143   1.284   .     A
C1057  O1145   1.284   .     A
C1057  C1070   1.435   .     S
C1058  C1101   1.406   .     A
C1058  C1060   1.411   .     A
C1058  H1108   1.082   .     S
C1059  C1079   1.411   .     A
C1059  C1102   1.411   .     A
C1060  C1090   1.411   .     A
C1060  C483    1.513   1_556 S
C1061  C1063   1.397   .     S
C1061  O1147   1.274   .     A
C1061  O1149   1.277   .     A
C1062  O1150   1.277   .     A
C1062  C1064   1.397   .     S
C1062  O1148   1.274   .     A
C1064  C871    1.330   1_655 S
C1064  H922    1.088   1_655 S
C1065  H1125   1.086   .     S
C1065  C1076   1.399   .     A
C1065  C1067   1.383   .     A
C1066  C1077   1.399   .     A
C1066  C1069   1.385   .     A
C1066  H1135   1.086   .     S
C1067  C1070   1.404   .     A
C1067  C1078   1.484   .     S
C1068  C1071   1.448   .     S
C1068  O1144   1.287   .     A
C1068  O1146   1.287   .     A
C1069  C1085   1.485   .     S
C1069  C1071   1.410   .     A
C1070  C1072   1.400   .     A
C1071  C1073   1.403   .     A
C1072  H1136   1.084   .     S
C1072  C1074   1.391   .     A
C1073  C1075   1.390   .     A
C1073  H1137   1.084   .     S
C1074  C1076   1.413   .     A
C1074  C1092   1.523   .     S
C1075  C1077   1.411   .     A
C1075  C1095   1.523   .     S
C1077  C788    1.442   1_565 S
C1078  C1080   1.405   .     A
C1078  C1084   1.406   .     A
C1079  H1138   1.082   .     S
C1079  C1098   1.406   .     A
C1080  H1109   1.083   .     S
C1080  C1081   1.399   .     A
C1081  H1110   1.082   .     S
C1081  C1082   1.398   .     A
C1082  C1083   1.397   .     A
C1083  C1084   1.398   .     A
C1084  H1113   1.083   .     S
C1085  C1086   1.405   .     A
C1085  C1091   1.407   .     A
C1086  C1087   1.399   .     A
C1086  H1115   1.083   .     S
C1087  H1116   1.082   .     S
C1087  C1088   1.398   .     A
C1088  H1117   1.082   .     S
C1088  C1089   1.398   .     A
C1089  C1091   1.398   .     A
C1089  H1118   1.083   .     S
C1090  H1139   1.082   .     S
C1090  C1099   1.406   .     A
C1091  H1119   1.083   .     S
C1092  C1093   1.533   .     S
C1092  H1126   1.110   .     S
C1092  H1127   1.113   .     S
C1093  H1123   1.111   .     S
C1093  C902    1.527   1_655 S
C1094  H1121   1.111   .     S
C1095  H1133   1.109   .     S
C1095  H1134   1.113   .     S
C1095  C1096   1.532   .     S
C1096  H1131   1.112   .     S
C1096  C809    1.526   1_565 S
C1096  H844    1.108   1_565 S
C1097  H1128   1.111   .     S
C1097  H938    1.110   1_655 S
C1098  H1140   1.082   .     S
C1098  N1141   1.362   .     A
C1099  H1104   1.082   .     S
C1099  N1142   1.362   .     A
C1100  H1105   1.082   .     S
C1100  C1102   1.406   .     A
C1100  N1141   1.363   .     A
C1101  N1142   1.363   .     A
C1101  H1106   1.082   .     S
C1102  H1107   1.082   .     S
H1103  C871    1.088   1_655 S
H1111  C890    1.082   1_655 S
H1112  C891    1.081   1_655 S
H1120  C806    1.111   1_565 S
H1122  C806    1.110   1_565 S
H1124  C805    1.108   1_565 S
H1129  C809    1.111   1_565 S
N1141  Zn1152  2.003   .     S
N1142  Zn1151  2.003   .     S
O1143  Zn1151  1.979   .     S
O1144  Zn1152  1.979   .     S
O1145  Zn1152  1.985   .     S
O1146  Zn1151  1.985   .     S
O1147  Zn1151  1.959   .     S
O1148  Zn1152  1.959   .     S
O1149  Zn1152  1.973   .     S
O1150  Zn1151  1.973   .     S
