data_str_m3_o1_o17_pcu_sym.15
_audit_creation_date              2020-01-03
_audit_creation_method            'Materials Studio'
_symmetry_space_group_name_H-M    'P1'
_symmetry_Int_Tables_number       1
_symmetry_cell_setting            triclinic
loop_
_symmetry_equiv_pos_as_xyz
  x,y,z
_cell_length_a                    32.0834
_cell_length_b                    29.5610
_cell_length_c                    29.8118
_cell_angle_alpha                 90.3781
_cell_angle_beta                  89.3979
_cell_angle_gamma                 89.8426
loop_
_atom_site_label
_atom_site_type_symbol
_atom_site_fract_x
_atom_site_fract_y
_atom_site_fract_z
_atom_site_U_iso_or_equiv
_atom_site_adp_type
_atom_site_occupancy
Br1    Br    0.04448   0.21401   0.44699   0.00000  Uiso   1.00
Br2    Br    0.28885   0.11932   0.05301   0.00000  Uiso   1.00
Br3    Br    0.04483   0.21438   0.05712   0.00000  Uiso   1.00
Br4    Br    0.28850   0.11895   0.44288   0.00000  Uiso   1.00
C5     C     0.08682   0.16683   0.24989   0.00000  Uiso   1.00
C6     C     0.04263   0.16736   0.24948   0.00000  Uiso   1.00
C7     C     0.19191   0.02409   0.27825   0.00000  Uiso   1.00
C8     C     0.14142   0.30925   0.22175   0.00000  Uiso   1.00
C9     C     0.14144   0.02384   0.22174   0.00000  Uiso   1.00
C10    C     0.19189   0.30949   0.27826   0.00000  Uiso   1.00
C11    C     0.16679   0.16654   0.16353   0.00000  Uiso   1.00
C12    C     0.16655   0.16679   0.33647   0.00000  Uiso   1.00
C13    C     0.20189   0.15214   0.40595   0.00000  Uiso   1.00
C14    C     0.13144   0.18119   0.09405   0.00000  Uiso   1.00
C15    C     0.16663   0.16700   0.38410   0.00000  Uiso   1.00
C16    C     0.24651   0.16650   0.25011   0.00000  Uiso   1.00
C17    C     0.16670   0.16633   0.11590   0.00000  Uiso   1.00
C18    C     0.13133   0.18153   0.40712   0.00000  Uiso   1.00
C19    C     0.20200   0.15180   0.09288   0.00000  Uiso   1.00
C20    C     0.13048   0.18134   0.45375   0.00000  Uiso   1.00
C21    C     0.20285   0.15199   0.04625   0.00000  Uiso   1.00
C22    C     0.16666   0.16673   0.47663   0.00000  Uiso   1.00
C23    C     0.16668   0.16660   0.02337   0.00000  Uiso   1.00
C24    C     0.20278   0.15217   0.45257   0.00000  Uiso   1.00
C25    C     0.13056   0.18117   0.04743   0.00000  Uiso   1.00
C26    C     0.09444   0.19523   0.47770   0.00000  Uiso   1.00
C27    C     0.09452   0.19523   0.02466   0.00000  Uiso   1.00
C28    C     0.23889   0.13811   0.02230   0.00000  Uiso   1.00
C29    C     0.04492   0.11617   0.18262   0.00000  Uiso   1.00
C30    C     0.28841   0.21716   0.31738   0.00000  Uiso   1.00
C31    C     0.29043   0.10964   0.18761   0.00000  Uiso   1.00
C32    C     0.04290   0.22369   0.31239   0.00000  Uiso   1.00
C33    C     0.23881   0.13810   0.47534   0.00000  Uiso   1.00
C34    C     0.02203   0.14043   0.21771   0.00000  Uiso   1.00
C35    C     0.31130   0.19290   0.28229   0.00000  Uiso   1.00
C36    C     0.31226   0.13902   0.21878   0.00000  Uiso   1.00
C37    C     0.02107   0.19431   0.28122   0.00000  Uiso   1.00
C38    C     0.29070   0.16597   0.25052   0.00000  Uiso   1.00
H39    H     0.22837   0.14117   0.38586   0.00000  Uiso   1.00
H40    H     0.10497   0.19216   0.11414   0.00000  Uiso   1.00
H41    H     0.10469   0.19211   0.38796   0.00000  Uiso   1.00
H42    H     0.22864   0.14122   0.11204   0.00000  Uiso   1.00
H43    H     0.21211   0.04231   0.30084   0.00000  Uiso   1.00
H44    H     0.12122   0.29102   0.19916   0.00000  Uiso   1.00
H45    H     0.12130   0.04186   0.19912   0.00000  Uiso   1.00
H46    H     0.21203   0.29147   0.30088   0.00000  Uiso   1.00
N47    N     0.16667   0.28573   0.25000   0.00000  Uiso   1.00
N48    N     0.16667   0.04760   0.25000   0.00000  Uiso   1.00
N49    N     0.06305   0.09702   0.15457   0.00000  Uiso   1.00
N50    N     0.27028   0.23631   0.34543   0.00000  Uiso   1.00
N51    N     0.27315   0.08582   0.16314   0.00000  Uiso   1.00
N52    N     0.06018   0.24751   0.33686   0.00000  Uiso   1.00
O53    O     0.10559   0.20487   0.24999   0.00000  Uiso   1.00
O54    O     0.22774   0.12846   0.25000   0.00000  Uiso   1.00
O55    O     0.22774   0.20487   0.25000   0.00000  Uiso   1.00
O56    O     0.10559   0.12846   0.24999   0.00000  Uiso   1.00
O57    O     0.16666   0.20489   0.18392   0.00000  Uiso   1.00
O58    O     0.16667   0.12844   0.31607   0.00000  Uiso   1.00
O59    O     0.16667   0.20489   0.31607   0.00000  Uiso   1.00
O60    O     0.16666   0.12844   0.18392   0.00000  Uiso   1.00
Zn61   Zn    0.16667   0.21771   0.25000   0.00000  Uiso   1.00
Zn62   Zn    0.16667   0.11563   0.25000   0.00000  Uiso   1.00
Br63   Br    0.37781   0.21401   0.44699   0.00000  Uiso   1.00
Br64   Br    0.62219   0.11932   0.05301   0.00000  Uiso   1.00
Br65   Br    0.37817   0.21438   0.05712   0.00000  Uiso   1.00
Br66   Br    0.62183   0.11895   0.44288   0.00000  Uiso   1.00
C67    C     0.42015   0.16683   0.24989   0.00000  Uiso   1.00
C68    C     0.37597   0.16736   0.24948   0.00000  Uiso   1.00
C69    C     0.52524   0.02409   0.27825   0.00000  Uiso   1.00
C70    C     0.47476   0.30925   0.22175   0.00000  Uiso   1.00
C71    C     0.47478   0.02384   0.22174   0.00000  Uiso   1.00
C72    C     0.52522   0.30949   0.27826   0.00000  Uiso   1.00
C73    C     0.50012   0.16654   0.16353   0.00000  Uiso   1.00
C74    C     0.49988   0.16679   0.33647   0.00000  Uiso   1.00
C75    C     0.53522   0.15214   0.40595   0.00000  Uiso   1.00
C76    C     0.46478   0.18119   0.09405   0.00000  Uiso   1.00
C77    C     0.49996   0.16700   0.38410   0.00000  Uiso   1.00
C78    C     0.57985   0.16650   0.25011   0.00000  Uiso   1.00
C79    C     0.50004   0.16633   0.11590   0.00000  Uiso   1.00
C80    C     0.46466   0.18153   0.40712   0.00000  Uiso   1.00
C81    C     0.53534   0.15180   0.09288   0.00000  Uiso   1.00
C82    C     0.46382   0.18134   0.45375   0.00000  Uiso   1.00
C83    C     0.53618   0.15199   0.04625   0.00000  Uiso   1.00
C84    C     0.49999   0.16673   0.47663   0.00000  Uiso   1.00
C85    C     0.50001   0.16660   0.02337   0.00000  Uiso   1.00
C86    C     0.53611   0.15217   0.45257   0.00000  Uiso   1.00
C87    C     0.46389   0.18117   0.04743   0.00000  Uiso   1.00
C88    C     0.42778   0.19523   0.47770   0.00000  Uiso   1.00
C89    C     0.42785   0.19523   0.02466   0.00000  Uiso   1.00
C90    C     0.57222   0.13811   0.02230   0.00000  Uiso   1.00
C91    C     0.37826   0.11617   0.18262   0.00000  Uiso   1.00
C92    C     0.62174   0.21716   0.31738   0.00000  Uiso   1.00
C93    C     0.62376   0.10964   0.18761   0.00000  Uiso   1.00
C94    C     0.37624   0.22369   0.31239   0.00000  Uiso   1.00
C95    C     0.57215   0.13810   0.47534   0.00000  Uiso   1.00
C96    C     0.35536   0.14043   0.21771   0.00000  Uiso   1.00
C97    C     0.64464   0.19290   0.28229   0.00000  Uiso   1.00
C98    C     0.64560   0.13902   0.21878   0.00000  Uiso   1.00
C99    C     0.35440   0.19431   0.28122   0.00000  Uiso   1.00
C100   C     0.62403   0.16597   0.25052   0.00000  Uiso   1.00
H101   H     0.56170   0.14117   0.38586   0.00000  Uiso   1.00
H102   H     0.43830   0.19216   0.11414   0.00000  Uiso   1.00
H103   H     0.43803   0.19211   0.38796   0.00000  Uiso   1.00
H104   H     0.56197   0.14122   0.11204   0.00000  Uiso   1.00
H105   H     0.54545   0.04231   0.30084   0.00000  Uiso   1.00
H106   H     0.45455   0.29102   0.19916   0.00000  Uiso   1.00
H107   H     0.45463   0.04186   0.19912   0.00000  Uiso   1.00
H108   H     0.54537   0.29147   0.30088   0.00000  Uiso   1.00
N109   N     0.50000   0.28573   0.25000   0.00000  Uiso   1.00
N110   N     0.50000   0.04760   0.25000   0.00000  Uiso   1.00
N111   N     0.39639   0.09702   0.15457   0.00000  Uiso   1.00
N112   N     0.60361   0.23631   0.34543   0.00000  Uiso   1.00
N113   N     0.60649   0.08582   0.16314   0.00000  Uiso   1.00
N114   N     0.39351   0.24751   0.33686   0.00000  Uiso   1.00
O115   O     0.43892   0.20487   0.24999   0.00000  Uiso   1.00
O116   O     0.56108   0.12846   0.25000   0.00000  Uiso   1.00
O117   O     0.56108   0.20487   0.25000   0.00000  Uiso   1.00
O118   O     0.43892   0.12846   0.24999   0.00000  Uiso   1.00
O119   O     0.49999   0.20489   0.18392   0.00000  Uiso   1.00
O120   O     0.50001   0.12844   0.31607   0.00000  Uiso   1.00
O121   O     0.50001   0.20489   0.31607   0.00000  Uiso   1.00
O122   O     0.49999   0.12844   0.18392   0.00000  Uiso   1.00
Zn123  Zn    0.50000   0.21771   0.25000   0.00000  Uiso   1.00
Zn124  Zn    0.50000   0.11563   0.25000   0.00000  Uiso   1.00
Br125  Br    0.71115   0.21401   0.44699   0.00000  Uiso   1.00
Br126  Br    0.95552   0.11932   0.05301   0.00000  Uiso   1.00
Br127  Br    0.71150   0.21438   0.05712   0.00000  Uiso   1.00
Br128  Br    0.95517   0.11895   0.44288   0.00000  Uiso   1.00
C129   C     0.75349   0.16683   0.24989   0.00000  Uiso   1.00
C130   C     0.70930   0.16736   0.24948   0.00000  Uiso   1.00
C131   C     0.85858   0.02409   0.27825   0.00000  Uiso   1.00
C132   C     0.80809   0.30925   0.22175   0.00000  Uiso   1.00
C133   C     0.80811   0.02384   0.22174   0.00000  Uiso   1.00
C134   C     0.85856   0.30949   0.27826   0.00000  Uiso   1.00
C135   C     0.83345   0.16654   0.16353   0.00000  Uiso   1.00
C136   C     0.83321   0.16679   0.33647   0.00000  Uiso   1.00
C137   C     0.86856   0.15214   0.40595   0.00000  Uiso   1.00
C138   C     0.79811   0.18119   0.09405   0.00000  Uiso   1.00
C139   C     0.83330   0.16700   0.38410   0.00000  Uiso   1.00
C140   C     0.91318   0.16650   0.25011   0.00000  Uiso   1.00
C141   C     0.83337   0.16633   0.11590   0.00000  Uiso   1.00
C142   C     0.79800   0.18153   0.40712   0.00000  Uiso   1.00
C143   C     0.86867   0.15180   0.09288   0.00000  Uiso   1.00
C144   C     0.79715   0.18134   0.45375   0.00000  Uiso   1.00
C145   C     0.86952   0.15199   0.04625   0.00000  Uiso   1.00
C146   C     0.83332   0.16673   0.47663   0.00000  Uiso   1.00
C147   C     0.83334   0.16660   0.02337   0.00000  Uiso   1.00
C148   C     0.86944   0.15217   0.45257   0.00000  Uiso   1.00
C149   C     0.79722   0.18117   0.04743   0.00000  Uiso   1.00
C150   C     0.76111   0.19523   0.47770   0.00000  Uiso   1.00
C151   C     0.76119   0.19523   0.02466   0.00000  Uiso   1.00
C152   C     0.90556   0.13811   0.02230   0.00000  Uiso   1.00
C153   C     0.71159   0.11617   0.18262   0.00000  Uiso   1.00
C154   C     0.95508   0.21716   0.31738   0.00000  Uiso   1.00
C155   C     0.95710   0.10964   0.18761   0.00000  Uiso   1.00
C156   C     0.70957   0.22369   0.31239   0.00000  Uiso   1.00
C157   C     0.90548   0.13810   0.47534   0.00000  Uiso   1.00
C158   C     0.68870   0.14043   0.21771   0.00000  Uiso   1.00
C159   C     0.97797   0.19290   0.28229   0.00000  Uiso   1.00
C160   C     0.97893   0.13902   0.21878   0.00000  Uiso   1.00
C161   C     0.68774   0.19431   0.28122   0.00000  Uiso   1.00
C162   C     0.95737   0.16597   0.25052   0.00000  Uiso   1.00
H163   H     0.89503   0.14117   0.38586   0.00000  Uiso   1.00
H164   H     0.77163   0.19216   0.11414   0.00000  Uiso   1.00
H165   H     0.77136   0.19211   0.38796   0.00000  Uiso   1.00
H166   H     0.89531   0.14122   0.11204   0.00000  Uiso   1.00
H167   H     0.87878   0.04231   0.30084   0.00000  Uiso   1.00
H168   H     0.78789   0.29102   0.19916   0.00000  Uiso   1.00
H169   H     0.78797   0.04186   0.19912   0.00000  Uiso   1.00
H170   H     0.87870   0.29147   0.30088   0.00000  Uiso   1.00
N171   N     0.83333   0.28573   0.25000   0.00000  Uiso   1.00
N172   N     0.83333   0.04760   0.25000   0.00000  Uiso   1.00
N173   N     0.72972   0.09702   0.15457   0.00000  Uiso   1.00
N174   N     0.93695   0.23631   0.34543   0.00000  Uiso   1.00
N175   N     0.93982   0.08582   0.16314   0.00000  Uiso   1.00
N176   N     0.72684   0.24751   0.33686   0.00000  Uiso   1.00
O177   O     0.77226   0.20487   0.24999   0.00000  Uiso   1.00
O178   O     0.89441   0.12846   0.25000   0.00000  Uiso   1.00
O179   O     0.89441   0.20487   0.25000   0.00000  Uiso   1.00
O180   O     0.77226   0.12846   0.24999   0.00000  Uiso   1.00
O181   O     0.83333   0.20489   0.18392   0.00000  Uiso   1.00
O182   O     0.83334   0.12844   0.31607   0.00000  Uiso   1.00
O183   O     0.83334   0.20489   0.31607   0.00000  Uiso   1.00
O184   O     0.83333   0.12844   0.18392   0.00000  Uiso   1.00
Zn185  Zn    0.83333   0.21771   0.25000   0.00000  Uiso   1.00
Zn186  Zn    0.83333   0.11563   0.25000   0.00000  Uiso   1.00
Br187  Br    0.04448   0.54734   0.44699   0.00000  Uiso   1.00
Br188  Br    0.28885   0.45266   0.05301   0.00000  Uiso   1.00
Br189  Br    0.04483   0.54771   0.05712   0.00000  Uiso   1.00
Br190  Br    0.28850   0.45229   0.44288   0.00000  Uiso   1.00
C191   C     0.08682   0.50016   0.24989   0.00000  Uiso   1.00
C192   C     0.04263   0.50070   0.24948   0.00000  Uiso   1.00
C193   C     0.19191   0.35742   0.27825   0.00000  Uiso   1.00
C194   C     0.14142   0.64258   0.22175   0.00000  Uiso   1.00
C195   C     0.14144   0.35718   0.22174   0.00000  Uiso   1.00
C196   C     0.19189   0.64282   0.27826   0.00000  Uiso   1.00
C197   C     0.16679   0.49988   0.16353   0.00000  Uiso   1.00
C198   C     0.16655   0.50012   0.33647   0.00000  Uiso   1.00
C199   C     0.20189   0.48548   0.40595   0.00000  Uiso   1.00
C200   C     0.13144   0.51452   0.09405   0.00000  Uiso   1.00
C201   C     0.16663   0.50034   0.38410   0.00000  Uiso   1.00
C202   C     0.24651   0.49984   0.25011   0.00000  Uiso   1.00
C203   C     0.16670   0.49966   0.11590   0.00000  Uiso   1.00
C204   C     0.13133   0.51486   0.40712   0.00000  Uiso   1.00
C205   C     0.20200   0.48513   0.09288   0.00000  Uiso   1.00
C206   C     0.13048   0.51467   0.45375   0.00000  Uiso   1.00
C207   C     0.20285   0.48533   0.04625   0.00000  Uiso   1.00
C208   C     0.16666   0.50006   0.47663   0.00000  Uiso   1.00
C209   C     0.16668   0.49994   0.02337   0.00000  Uiso   1.00
C210   C     0.20278   0.48550   0.45257   0.00000  Uiso   1.00
C211   C     0.13056   0.51450   0.04743   0.00000  Uiso   1.00
C212   C     0.09444   0.52856   0.47770   0.00000  Uiso   1.00
C213   C     0.09452   0.52857   0.02466   0.00000  Uiso   1.00
C214   C     0.23889   0.47144   0.02230   0.00000  Uiso   1.00
C215   C     0.04492   0.44951   0.18262   0.00000  Uiso   1.00
C216   C     0.28841   0.55049   0.31738   0.00000  Uiso   1.00
C217   C     0.29043   0.44297   0.18761   0.00000  Uiso   1.00
C218   C     0.04290   0.55703   0.31239   0.00000  Uiso   1.00
C219   C     0.23881   0.47143   0.47534   0.00000  Uiso   1.00
C220   C     0.02203   0.47377   0.21771   0.00000  Uiso   1.00
C221   C     0.31130   0.52623   0.28229   0.00000  Uiso   1.00
C222   C     0.31226   0.47235   0.21878   0.00000  Uiso   1.00
C223   C     0.02107   0.52765   0.28122   0.00000  Uiso   1.00
C224   C     0.29070   0.49930   0.25052   0.00000  Uiso   1.00
H225   H     0.22837   0.47451   0.38586   0.00000  Uiso   1.00
H226   H     0.10497   0.52549   0.11414   0.00000  Uiso   1.00
H227   H     0.10469   0.52544   0.38796   0.00000  Uiso   1.00
H228   H     0.22864   0.47456   0.11204   0.00000  Uiso   1.00
H229   H     0.21211   0.37565   0.30084   0.00000  Uiso   1.00
H230   H     0.12122   0.62435   0.19916   0.00000  Uiso   1.00
H231   H     0.12130   0.37519   0.19912   0.00000  Uiso   1.00
H232   H     0.21203   0.62481   0.30088   0.00000  Uiso   1.00
N233   N     0.16667   0.61907   0.25000   0.00000  Uiso   1.00
N234   N     0.16667   0.38093   0.25000   0.00000  Uiso   1.00
N235   N     0.06305   0.43036   0.15457   0.00000  Uiso   1.00
N236   N     0.27028   0.56964   0.34543   0.00000  Uiso   1.00
N237   N     0.27315   0.41915   0.16314   0.00000  Uiso   1.00
N238   N     0.06018   0.58085   0.33686   0.00000  Uiso   1.00
O239   O     0.10559   0.53821   0.24999   0.00000  Uiso   1.00
O240   O     0.22774   0.46179   0.25000   0.00000  Uiso   1.00
O241   O     0.22774   0.53821   0.25000   0.00000  Uiso   1.00
O242   O     0.10559   0.46179   0.24999   0.00000  Uiso   1.00
O243   O     0.16666   0.53823   0.18392   0.00000  Uiso   1.00
O244   O     0.16667   0.46177   0.31607   0.00000  Uiso   1.00
O245   O     0.16667   0.53823   0.31607   0.00000  Uiso   1.00
O246   O     0.16666   0.46177   0.18392   0.00000  Uiso   1.00
Zn247  Zn    0.16667   0.55104   0.25000   0.00000  Uiso   1.00
Zn248  Zn    0.16667   0.44896   0.25000   0.00000  Uiso   1.00
Br249  Br    0.37781   0.54734   0.44699   0.00000  Uiso   1.00
Br250  Br    0.62219   0.45266   0.05301   0.00000  Uiso   1.00
Br251  Br    0.37817   0.54771   0.05712   0.00000  Uiso   1.00
Br252  Br    0.62183   0.45229   0.44288   0.00000  Uiso   1.00
C253   C     0.42015   0.50016   0.24989   0.00000  Uiso   1.00
C254   C     0.37597   0.50070   0.24948   0.00000  Uiso   1.00
C255   C     0.52524   0.35742   0.27825   0.00000  Uiso   1.00
C256   C     0.47476   0.64258   0.22175   0.00000  Uiso   1.00
C257   C     0.47478   0.35718   0.22174   0.00000  Uiso   1.00
C258   C     0.52522   0.64282   0.27826   0.00000  Uiso   1.00
C259   C     0.50012   0.49988   0.16353   0.00000  Uiso   1.00
C260   C     0.49988   0.50012   0.33647   0.00000  Uiso   1.00
C261   C     0.53522   0.48548   0.40595   0.00000  Uiso   1.00
C262   C     0.46478   0.51452   0.09405   0.00000  Uiso   1.00
C263   C     0.49996   0.50034   0.38410   0.00000  Uiso   1.00
C264   C     0.57985   0.49984   0.25011   0.00000  Uiso   1.00
C265   C     0.50004   0.49966   0.11590   0.00000  Uiso   1.00
C266   C     0.46466   0.51486   0.40712   0.00000  Uiso   1.00
C267   C     0.53534   0.48513   0.09288   0.00000  Uiso   1.00
C268   C     0.46382   0.51467   0.45375   0.00000  Uiso   1.00
C269   C     0.53618   0.48533   0.04625   0.00000  Uiso   1.00
C270   C     0.49999   0.50006   0.47663   0.00000  Uiso   1.00
C271   C     0.50001   0.49994   0.02337   0.00000  Uiso   1.00
C272   C     0.53611   0.48550   0.45257   0.00000  Uiso   1.00
C273   C     0.46389   0.51450   0.04743   0.00000  Uiso   1.00
C274   C     0.42778   0.52856   0.47770   0.00000  Uiso   1.00
C275   C     0.42785   0.52857   0.02466   0.00000  Uiso   1.00
C276   C     0.57222   0.47144   0.02230   0.00000  Uiso   1.00
C277   C     0.37826   0.44951   0.18262   0.00000  Uiso   1.00
C278   C     0.62174   0.55049   0.31738   0.00000  Uiso   1.00
C279   C     0.62376   0.44297   0.18761   0.00000  Uiso   1.00
C280   C     0.37624   0.55703   0.31239   0.00000  Uiso   1.00
C281   C     0.57215   0.47143   0.47534   0.00000  Uiso   1.00
C282   C     0.35536   0.47377   0.21771   0.00000  Uiso   1.00
C283   C     0.64464   0.52623   0.28229   0.00000  Uiso   1.00
C284   C     0.64560   0.47235   0.21878   0.00000  Uiso   1.00
C285   C     0.35440   0.52765   0.28122   0.00000  Uiso   1.00
C286   C     0.62403   0.49930   0.25052   0.00000  Uiso   1.00
H287   H     0.56170   0.47451   0.38586   0.00000  Uiso   1.00
H288   H     0.43830   0.52549   0.11414   0.00000  Uiso   1.00
H289   H     0.43803   0.52544   0.38796   0.00000  Uiso   1.00
H290   H     0.56197   0.47456   0.11204   0.00000  Uiso   1.00
H291   H     0.54545   0.37565   0.30084   0.00000  Uiso   1.00
H292   H     0.45455   0.62435   0.19916   0.00000  Uiso   1.00
H293   H     0.45463   0.37519   0.19912   0.00000  Uiso   1.00
H294   H     0.54537   0.62481   0.30088   0.00000  Uiso   1.00
N295   N     0.50000   0.61907   0.25000   0.00000  Uiso   1.00
N296   N     0.50000   0.38093   0.25000   0.00000  Uiso   1.00
N297   N     0.39639   0.43036   0.15457   0.00000  Uiso   1.00
N298   N     0.60361   0.56964   0.34543   0.00000  Uiso   1.00
N299   N     0.60649   0.41915   0.16314   0.00000  Uiso   1.00
N300   N     0.39351   0.58085   0.33686   0.00000  Uiso   1.00
O301   O     0.43892   0.53821   0.24999   0.00000  Uiso   1.00
O302   O     0.56108   0.46179   0.25000   0.00000  Uiso   1.00
O303   O     0.56108   0.53821   0.25000   0.00000  Uiso   1.00
O304   O     0.43892   0.46179   0.24999   0.00000  Uiso   1.00
O305   O     0.49999   0.53823   0.18392   0.00000  Uiso   1.00
O306   O     0.50001   0.46177   0.31607   0.00000  Uiso   1.00
O307   O     0.50001   0.53823   0.31607   0.00000  Uiso   1.00
O308   O     0.49999   0.46177   0.18392   0.00000  Uiso   1.00
Zn309  Zn    0.50000   0.55104   0.25000   0.00000  Uiso   1.00
Zn310  Zn    0.50000   0.44896   0.25000   0.00000  Uiso   1.00
Br311  Br    0.71115   0.54734   0.44699   0.00000  Uiso   1.00
Br312  Br    0.95552   0.45266   0.05301   0.00000  Uiso   1.00
Br313  Br    0.71150   0.54771   0.05712   0.00000  Uiso   1.00
Br314  Br    0.95517   0.45229   0.44288   0.00000  Uiso   1.00
C315   C     0.75349   0.50016   0.24989   0.00000  Uiso   1.00
C316   C     0.70930   0.50070   0.24948   0.00000  Uiso   1.00
C317   C     0.85858   0.35742   0.27825   0.00000  Uiso   1.00
C318   C     0.80809   0.64258   0.22175   0.00000  Uiso   1.00
C319   C     0.80811   0.35718   0.22174   0.00000  Uiso   1.00
C320   C     0.85856   0.64282   0.27826   0.00000  Uiso   1.00
C321   C     0.83345   0.49988   0.16353   0.00000  Uiso   1.00
C322   C     0.83321   0.50012   0.33647   0.00000  Uiso   1.00
C323   C     0.86856   0.48548   0.40595   0.00000  Uiso   1.00
C324   C     0.79811   0.51452   0.09405   0.00000  Uiso   1.00
C325   C     0.83330   0.50034   0.38410   0.00000  Uiso   1.00
C326   C     0.91318   0.49984   0.25011   0.00000  Uiso   1.00
C327   C     0.83337   0.49966   0.11590   0.00000  Uiso   1.00
C328   C     0.79800   0.51486   0.40712   0.00000  Uiso   1.00
C329   C     0.86867   0.48513   0.09288   0.00000  Uiso   1.00
C330   C     0.79715   0.51467   0.45375   0.00000  Uiso   1.00
C331   C     0.86952   0.48533   0.04625   0.00000  Uiso   1.00
C332   C     0.83332   0.50006   0.47663   0.00000  Uiso   1.00
C333   C     0.83334   0.49994   0.02337   0.00000  Uiso   1.00
C334   C     0.86944   0.48550   0.45257   0.00000  Uiso   1.00
C335   C     0.79722   0.51450   0.04743   0.00000  Uiso   1.00
C336   C     0.76111   0.52856   0.47770   0.00000  Uiso   1.00
C337   C     0.76119   0.52857   0.02466   0.00000  Uiso   1.00
C338   C     0.90556   0.47144   0.02230   0.00000  Uiso   1.00
C339   C     0.71159   0.44951   0.18262   0.00000  Uiso   1.00
C340   C     0.95508   0.55049   0.31738   0.00000  Uiso   1.00
C341   C     0.95710   0.44297   0.18761   0.00000  Uiso   1.00
C342   C     0.70957   0.55703   0.31239   0.00000  Uiso   1.00
C343   C     0.90548   0.47143   0.47534   0.00000  Uiso   1.00
C344   C     0.68870   0.47377   0.21771   0.00000  Uiso   1.00
C345   C     0.97797   0.52623   0.28229   0.00000  Uiso   1.00
C346   C     0.97893   0.47235   0.21878   0.00000  Uiso   1.00
C347   C     0.68774   0.52765   0.28122   0.00000  Uiso   1.00
C348   C     0.95737   0.49930   0.25052   0.00000  Uiso   1.00
H349   H     0.89503   0.47451   0.38586   0.00000  Uiso   1.00
H350   H     0.77163   0.52549   0.11414   0.00000  Uiso   1.00
H351   H     0.77136   0.52544   0.38796   0.00000  Uiso   1.00
H352   H     0.89531   0.47456   0.11204   0.00000  Uiso   1.00
H353   H     0.87878   0.37565   0.30084   0.00000  Uiso   1.00
H354   H     0.78789   0.62435   0.19916   0.00000  Uiso   1.00
H355   H     0.78797   0.37519   0.19912   0.00000  Uiso   1.00
H356   H     0.87870   0.62481   0.30088   0.00000  Uiso   1.00
N357   N     0.83333   0.61907   0.25000   0.00000  Uiso   1.00
N358   N     0.83333   0.38093   0.25000   0.00000  Uiso   1.00
N359   N     0.72972   0.43036   0.15457   0.00000  Uiso   1.00
N360   N     0.93695   0.56964   0.34543   0.00000  Uiso   1.00
N361   N     0.93982   0.41915   0.16314   0.00000  Uiso   1.00
N362   N     0.72684   0.58085   0.33686   0.00000  Uiso   1.00
O363   O     0.77226   0.53821   0.24999   0.00000  Uiso   1.00
O364   O     0.89441   0.46179   0.25000   0.00000  Uiso   1.00
O365   O     0.89441   0.53821   0.25000   0.00000  Uiso   1.00
O366   O     0.77226   0.46179   0.24999   0.00000  Uiso   1.00
O367   O     0.83333   0.53823   0.18392   0.00000  Uiso   1.00
O368   O     0.83334   0.46177   0.31607   0.00000  Uiso   1.00
O369   O     0.83334   0.53823   0.31607   0.00000  Uiso   1.00
O370   O     0.83333   0.46177   0.18392   0.00000  Uiso   1.00
Zn371  Zn    0.83333   0.55104   0.25000   0.00000  Uiso   1.00
Zn372  Zn    0.83333   0.44896   0.25000   0.00000  Uiso   1.00
Br373  Br    0.04448   0.88068   0.44699   0.00000  Uiso   1.00
Br374  Br    0.28885   0.78599   0.05301   0.00000  Uiso   1.00
Br375  Br    0.04483   0.88105   0.05712   0.00000  Uiso   1.00
Br376  Br    0.28850   0.78562   0.44288   0.00000  Uiso   1.00
C377   C     0.08682   0.83350   0.24989   0.00000  Uiso   1.00
C378   C     0.04263   0.83403   0.24948   0.00000  Uiso   1.00
C379   C     0.19191   0.69075   0.27825   0.00000  Uiso   1.00
C380   C     0.14142   0.97591   0.22175   0.00000  Uiso   1.00
C381   C     0.14144   0.69051   0.22174   0.00000  Uiso   1.00
C382   C     0.19189   0.97616   0.27826   0.00000  Uiso   1.00
C383   C     0.16679   0.83321   0.16353   0.00000  Uiso   1.00
C384   C     0.16655   0.83346   0.33647   0.00000  Uiso   1.00
C385   C     0.20189   0.81881   0.40595   0.00000  Uiso   1.00
C386   C     0.13144   0.84786   0.09405   0.00000  Uiso   1.00
C387   C     0.16663   0.83367   0.38410   0.00000  Uiso   1.00
C388   C     0.24651   0.83317   0.25011   0.00000  Uiso   1.00
C389   C     0.16670   0.83300   0.11590   0.00000  Uiso   1.00
C390   C     0.13133   0.84820   0.40712   0.00000  Uiso   1.00
C391   C     0.20200   0.81847   0.09288   0.00000  Uiso   1.00
C392   C     0.13048   0.84801   0.45375   0.00000  Uiso   1.00
C393   C     0.20285   0.81866   0.04625   0.00000  Uiso   1.00
C394   C     0.16666   0.83340   0.47663   0.00000  Uiso   1.00
C395   C     0.16668   0.83327   0.02337   0.00000  Uiso   1.00
C396   C     0.20278   0.81883   0.45257   0.00000  Uiso   1.00
C397   C     0.13056   0.84783   0.04743   0.00000  Uiso   1.00
C398   C     0.09444   0.86189   0.47770   0.00000  Uiso   1.00
C399   C     0.09452   0.86190   0.02466   0.00000  Uiso   1.00
C400   C     0.23889   0.80477   0.02230   0.00000  Uiso   1.00
C401   C     0.04492   0.78284   0.18262   0.00000  Uiso   1.00
C402   C     0.28841   0.88383   0.31738   0.00000  Uiso   1.00
C403   C     0.29043   0.77631   0.18761   0.00000  Uiso   1.00
C404   C     0.04290   0.89036   0.31239   0.00000  Uiso   1.00
C405   C     0.23881   0.80477   0.47534   0.00000  Uiso   1.00
C406   C     0.02203   0.80710   0.21771   0.00000  Uiso   1.00
C407   C     0.31130   0.85957   0.28229   0.00000  Uiso   1.00
C408   C     0.31226   0.80569   0.21878   0.00000  Uiso   1.00
C409   C     0.02107   0.86098   0.28122   0.00000  Uiso   1.00
C410   C     0.29070   0.83264   0.25052   0.00000  Uiso   1.00
H411   H     0.22837   0.80784   0.38586   0.00000  Uiso   1.00
H412   H     0.10497   0.85883   0.11414   0.00000  Uiso   1.00
H413   H     0.10469   0.85878   0.38796   0.00000  Uiso   1.00
H414   H     0.22864   0.80789   0.11204   0.00000  Uiso   1.00
H415   H     0.21211   0.70898   0.30084   0.00000  Uiso   1.00
H416   H     0.12122   0.95769   0.19916   0.00000  Uiso   1.00
H417   H     0.12130   0.70853   0.19912   0.00000  Uiso   1.00
H418   H     0.21203   0.95814   0.30088   0.00000  Uiso   1.00
N419   N     0.16667   0.95240   0.25000   0.00000  Uiso   1.00
N420   N     0.16667   0.71427   0.25000   0.00000  Uiso   1.00
N421   N     0.06305   0.76369   0.15457   0.00000  Uiso   1.00
N422   N     0.27028   0.90298   0.34543   0.00000  Uiso   1.00
N423   N     0.27315   0.75249   0.16314   0.00000  Uiso   1.00
N424   N     0.06018   0.91418   0.33686   0.00000  Uiso   1.00
O425   O     0.10559   0.87154   0.24999   0.00000  Uiso   1.00
O426   O     0.22774   0.79513   0.25000   0.00000  Uiso   1.00
O427   O     0.22774   0.87154   0.25000   0.00000  Uiso   1.00
O428   O     0.10559   0.79513   0.24999   0.00000  Uiso   1.00
O429   O     0.16666   0.87156   0.18392   0.00000  Uiso   1.00
O430   O     0.16667   0.79511   0.31607   0.00000  Uiso   1.00
O431   O     0.16667   0.87156   0.31607   0.00000  Uiso   1.00
O432   O     0.16666   0.79511   0.18392   0.00000  Uiso   1.00
Zn433  Zn    0.16667   0.88437   0.25000   0.00000  Uiso   1.00
Zn434  Zn    0.16667   0.78229   0.25000   0.00000  Uiso   1.00
Br435  Br    0.37781   0.88068   0.44699   0.00000  Uiso   1.00
Br436  Br    0.62219   0.78599   0.05301   0.00000  Uiso   1.00
Br437  Br    0.37817   0.88105   0.05712   0.00000  Uiso   1.00
Br438  Br    0.62183   0.78562   0.44288   0.00000  Uiso   1.00
C439   C     0.42015   0.83350   0.24989   0.00000  Uiso   1.00
C440   C     0.37597   0.83403   0.24948   0.00000  Uiso   1.00
C441   C     0.52524   0.69075   0.27825   0.00000  Uiso   1.00
C442   C     0.47476   0.97591   0.22175   0.00000  Uiso   1.00
C443   C     0.47478   0.69051   0.22174   0.00000  Uiso   1.00
C444   C     0.52522   0.97616   0.27826   0.00000  Uiso   1.00
C445   C     0.50012   0.83321   0.16353   0.00000  Uiso   1.00
C446   C     0.49988   0.83346   0.33647   0.00000  Uiso   1.00
C447   C     0.53522   0.81881   0.40595   0.00000  Uiso   1.00
C448   C     0.46478   0.84786   0.09405   0.00000  Uiso   1.00
C449   C     0.49996   0.83367   0.38410   0.00000  Uiso   1.00
C450   C     0.57985   0.83317   0.25011   0.00000  Uiso   1.00
C451   C     0.50004   0.83300   0.11590   0.00000  Uiso   1.00
C452   C     0.46466   0.84820   0.40712   0.00000  Uiso   1.00
C453   C     0.53534   0.81847   0.09288   0.00000  Uiso   1.00
C454   C     0.46382   0.84801   0.45375   0.00000  Uiso   1.00
C455   C     0.53618   0.81866   0.04625   0.00000  Uiso   1.00
C456   C     0.49999   0.83340   0.47663   0.00000  Uiso   1.00
C457   C     0.50001   0.83327   0.02337   0.00000  Uiso   1.00
C458   C     0.53611   0.81883   0.45257   0.00000  Uiso   1.00
C459   C     0.46389   0.84783   0.04743   0.00000  Uiso   1.00
C460   C     0.42778   0.86189   0.47770   0.00000  Uiso   1.00
C461   C     0.42785   0.86190   0.02466   0.00000  Uiso   1.00
C462   C     0.57222   0.80477   0.02230   0.00000  Uiso   1.00
C463   C     0.37826   0.78284   0.18262   0.00000  Uiso   1.00
C464   C     0.62174   0.88383   0.31738   0.00000  Uiso   1.00
C465   C     0.62376   0.77631   0.18761   0.00000  Uiso   1.00
C466   C     0.37624   0.89036   0.31239   0.00000  Uiso   1.00
C467   C     0.57215   0.80477   0.47534   0.00000  Uiso   1.00
C468   C     0.35536   0.80710   0.21771   0.00000  Uiso   1.00
C469   C     0.64464   0.85957   0.28229   0.00000  Uiso   1.00
C470   C     0.64560   0.80569   0.21878   0.00000  Uiso   1.00
C471   C     0.35440   0.86098   0.28122   0.00000  Uiso   1.00
C472   C     0.62403   0.83264   0.25052   0.00000  Uiso   1.00
H473   H     0.56170   0.80784   0.38586   0.00000  Uiso   1.00
H474   H     0.43830   0.85883   0.11414   0.00000  Uiso   1.00
H475   H     0.43803   0.85878   0.38796   0.00000  Uiso   1.00
H476   H     0.56197   0.80789   0.11204   0.00000  Uiso   1.00
H477   H     0.54545   0.70898   0.30084   0.00000  Uiso   1.00
H478   H     0.45455   0.95769   0.19916   0.00000  Uiso   1.00
H479   H     0.45463   0.70853   0.19912   0.00000  Uiso   1.00
H480   H     0.54537   0.95814   0.30088   0.00000  Uiso   1.00
N481   N     0.50000   0.95240   0.25000   0.00000  Uiso   1.00
N482   N     0.50000   0.71427   0.25000   0.00000  Uiso   1.00
N483   N     0.39639   0.76369   0.15457   0.00000  Uiso   1.00
N484   N     0.60361   0.90298   0.34543   0.00000  Uiso   1.00
N485   N     0.60649   0.75249   0.16314   0.00000  Uiso   1.00
N486   N     0.39351   0.91418   0.33686   0.00000  Uiso   1.00
O487   O     0.43892   0.87154   0.24999   0.00000  Uiso   1.00
O488   O     0.56108   0.79513   0.25000   0.00000  Uiso   1.00
O489   O     0.56108   0.87154   0.25000   0.00000  Uiso   1.00
O490   O     0.43892   0.79513   0.24999   0.00000  Uiso   1.00
O491   O     0.49999   0.87156   0.18392   0.00000  Uiso   1.00
O492   O     0.50001   0.79511   0.31607   0.00000  Uiso   1.00
O493   O     0.50001   0.87156   0.31607   0.00000  Uiso   1.00
O494   O     0.49999   0.79511   0.18392   0.00000  Uiso   1.00
Zn495  Zn    0.50000   0.88437   0.25000   0.00000  Uiso   1.00
Zn496  Zn    0.50000   0.78229   0.25000   0.00000  Uiso   1.00
Br497  Br    0.71115   0.88068   0.44699   0.00000  Uiso   1.00
Br498  Br    0.95552   0.78599   0.05301   0.00000  Uiso   1.00
Br499  Br    0.71150   0.88105   0.05712   0.00000  Uiso   1.00
Br500  Br    0.95517   0.78562   0.44288   0.00000  Uiso   1.00
C501   C     0.75349   0.83350   0.24989   0.00000  Uiso   1.00
C502   C     0.70930   0.83403   0.24948   0.00000  Uiso   1.00
C503   C     0.85858   0.69075   0.27825   0.00000  Uiso   1.00
C504   C     0.80809   0.97591   0.22175   0.00000  Uiso   1.00
C505   C     0.80811   0.69051   0.22174   0.00000  Uiso   1.00
C506   C     0.85856   0.97616   0.27826   0.00000  Uiso   1.00
C507   C     0.83345   0.83321   0.16353   0.00000  Uiso   1.00
C508   C     0.83321   0.83346   0.33647   0.00000  Uiso   1.00
C509   C     0.86856   0.81881   0.40595   0.00000  Uiso   1.00
C510   C     0.79811   0.84786   0.09405   0.00000  Uiso   1.00
C511   C     0.83330   0.83367   0.38410   0.00000  Uiso   1.00
C512   C     0.91318   0.83317   0.25011   0.00000  Uiso   1.00
C513   C     0.83337   0.83300   0.11590   0.00000  Uiso   1.00
C514   C     0.79800   0.84820   0.40712   0.00000  Uiso   1.00
C515   C     0.86867   0.81847   0.09288   0.00000  Uiso   1.00
C516   C     0.79715   0.84801   0.45375   0.00000  Uiso   1.00
C517   C     0.86952   0.81866   0.04625   0.00000  Uiso   1.00
C518   C     0.83332   0.83340   0.47663   0.00000  Uiso   1.00
C519   C     0.83334   0.83327   0.02337   0.00000  Uiso   1.00
C520   C     0.86944   0.81883   0.45257   0.00000  Uiso   1.00
C521   C     0.79722   0.84783   0.04743   0.00000  Uiso   1.00
C522   C     0.76111   0.86189   0.47770   0.00000  Uiso   1.00
C523   C     0.76119   0.86190   0.02466   0.00000  Uiso   1.00
C524   C     0.90556   0.80477   0.02230   0.00000  Uiso   1.00
C525   C     0.71159   0.78284   0.18262   0.00000  Uiso   1.00
C526   C     0.95508   0.88383   0.31738   0.00000  Uiso   1.00
C527   C     0.95710   0.77631   0.18761   0.00000  Uiso   1.00
C528   C     0.70957   0.89036   0.31239   0.00000  Uiso   1.00
C529   C     0.90548   0.80477   0.47534   0.00000  Uiso   1.00
C530   C     0.68870   0.80710   0.21771   0.00000  Uiso   1.00
C531   C     0.97797   0.85957   0.28229   0.00000  Uiso   1.00
C532   C     0.97893   0.80569   0.21878   0.00000  Uiso   1.00
C533   C     0.68774   0.86098   0.28122   0.00000  Uiso   1.00
C534   C     0.95737   0.83264   0.25052   0.00000  Uiso   1.00
H535   H     0.89503   0.80784   0.38586   0.00000  Uiso   1.00
H536   H     0.77163   0.85883   0.11414   0.00000  Uiso   1.00
H537   H     0.77136   0.85878   0.38796   0.00000  Uiso   1.00
H538   H     0.89531   0.80789   0.11204   0.00000  Uiso   1.00
H539   H     0.87878   0.70898   0.30084   0.00000  Uiso   1.00
H540   H     0.78789   0.95769   0.19916   0.00000  Uiso   1.00
H541   H     0.78797   0.70853   0.19912   0.00000  Uiso   1.00
H542   H     0.87870   0.95814   0.30088   0.00000  Uiso   1.00
N543   N     0.83333   0.95240   0.25000   0.00000  Uiso   1.00
N544   N     0.83333   0.71427   0.25000   0.00000  Uiso   1.00
N545   N     0.72972   0.76369   0.15457   0.00000  Uiso   1.00
N546   N     0.93695   0.90298   0.34543   0.00000  Uiso   1.00
N547   N     0.93982   0.75249   0.16314   0.00000  Uiso   1.00
N548   N     0.72684   0.91418   0.33686   0.00000  Uiso   1.00
O549   O     0.77226   0.87154   0.24999   0.00000  Uiso   1.00
O550   O     0.89441   0.79513   0.25000   0.00000  Uiso   1.00
O551   O     0.89441   0.87154   0.25000   0.00000  Uiso   1.00
O552   O     0.77226   0.79513   0.24999   0.00000  Uiso   1.00
O553   O     0.83333   0.87156   0.18392   0.00000  Uiso   1.00
O554   O     0.83334   0.79511   0.31607   0.00000  Uiso   1.00
O555   O     0.83334   0.87156   0.31607   0.00000  Uiso   1.00
O556   O     0.83333   0.79511   0.18392   0.00000  Uiso   1.00
Zn557  Zn    0.83333   0.88437   0.25000   0.00000  Uiso   1.00
Zn558  Zn    0.83333   0.78229   0.25000   0.00000  Uiso   1.00
Br559  Br    0.04448   0.21401   0.94699   0.00000  Uiso   1.00
Br560  Br    0.28885   0.11932   0.55301   0.00000  Uiso   1.00
Br561  Br    0.04483   0.21438   0.55712   0.00000  Uiso   1.00
Br562  Br    0.28850   0.11895   0.94288   0.00000  Uiso   1.00
C563   C     0.08682   0.16683   0.74989   0.00000  Uiso   1.00
C564   C     0.04263   0.16736   0.74948   0.00000  Uiso   1.00
C565   C     0.19191   0.02409   0.77825   0.00000  Uiso   1.00
C566   C     0.14142   0.30925   0.72175   0.00000  Uiso   1.00
C567   C     0.14144   0.02384   0.72174   0.00000  Uiso   1.00
C568   C     0.19189   0.30949   0.77826   0.00000  Uiso   1.00
C569   C     0.16679   0.16654   0.66353   0.00000  Uiso   1.00
C570   C     0.16655   0.16679   0.83647   0.00000  Uiso   1.00
C571   C     0.20189   0.15214   0.90595   0.00000  Uiso   1.00
C572   C     0.13144   0.18119   0.59405   0.00000  Uiso   1.00
C573   C     0.16663   0.16700   0.88410   0.00000  Uiso   1.00
C574   C     0.24651   0.16650   0.75011   0.00000  Uiso   1.00
C575   C     0.16670   0.16633   0.61590   0.00000  Uiso   1.00
C576   C     0.13133   0.18153   0.90712   0.00000  Uiso   1.00
C577   C     0.20200   0.15180   0.59288   0.00000  Uiso   1.00
C578   C     0.13048   0.18134   0.95375   0.00000  Uiso   1.00
C579   C     0.20285   0.15199   0.54625   0.00000  Uiso   1.00
C580   C     0.16666   0.16673   0.97663   0.00000  Uiso   1.00
C581   C     0.16668   0.16660   0.52337   0.00000  Uiso   1.00
C582   C     0.20278   0.15217   0.95257   0.00000  Uiso   1.00
C583   C     0.13056   0.18117   0.54743   0.00000  Uiso   1.00
C584   C     0.09444   0.19523   0.97770   0.00000  Uiso   1.00
C585   C     0.09452   0.19523   0.52466   0.00000  Uiso   1.00
C586   C     0.23889   0.13811   0.52230   0.00000  Uiso   1.00
C587   C     0.04492   0.11617   0.68262   0.00000  Uiso   1.00
C588   C     0.28841   0.21716   0.81738   0.00000  Uiso   1.00
C589   C     0.29043   0.10964   0.68761   0.00000  Uiso   1.00
C590   C     0.04290   0.22369   0.81239   0.00000  Uiso   1.00
C591   C     0.23881   0.13810   0.97534   0.00000  Uiso   1.00
C592   C     0.02203   0.14043   0.71771   0.00000  Uiso   1.00
C593   C     0.31130   0.19290   0.78229   0.00000  Uiso   1.00
C594   C     0.31226   0.13902   0.71878   0.00000  Uiso   1.00
C595   C     0.02107   0.19431   0.78122   0.00000  Uiso   1.00
C596   C     0.29070   0.16597   0.75052   0.00000  Uiso   1.00
H597   H     0.22837   0.14117   0.88586   0.00000  Uiso   1.00
H598   H     0.10497   0.19216   0.61414   0.00000  Uiso   1.00
H599   H     0.10469   0.19211   0.88796   0.00000  Uiso   1.00
H600   H     0.22864   0.14122   0.61204   0.00000  Uiso   1.00
H601   H     0.21211   0.04231   0.80084   0.00000  Uiso   1.00
H602   H     0.12122   0.29102   0.69916   0.00000  Uiso   1.00
H603   H     0.12130   0.04186   0.69912   0.00000  Uiso   1.00
H604   H     0.21203   0.29147   0.80088   0.00000  Uiso   1.00
N605   N     0.16667   0.28573   0.75000   0.00000  Uiso   1.00
N606   N     0.16667   0.04760   0.75000   0.00000  Uiso   1.00
N607   N     0.06305   0.09702   0.65457   0.00000  Uiso   1.00
N608   N     0.27028   0.23631   0.84543   0.00000  Uiso   1.00
N609   N     0.27315   0.08582   0.66314   0.00000  Uiso   1.00
N610   N     0.06018   0.24751   0.83686   0.00000  Uiso   1.00
O611   O     0.10559   0.20487   0.74999   0.00000  Uiso   1.00
O612   O     0.22774   0.12846   0.75000   0.00000  Uiso   1.00
O613   O     0.22774   0.20487   0.75000   0.00000  Uiso   1.00
O614   O     0.10559   0.12846   0.74999   0.00000  Uiso   1.00
O615   O     0.16666   0.20489   0.68392   0.00000  Uiso   1.00
O616   O     0.16667   0.12844   0.81607   0.00000  Uiso   1.00
O617   O     0.16667   0.20489   0.81607   0.00000  Uiso   1.00
O618   O     0.16666   0.12844   0.68392   0.00000  Uiso   1.00
Zn619  Zn    0.16667   0.21771   0.75000   0.00000  Uiso   1.00
Zn620  Zn    0.16667   0.11563   0.75000   0.00000  Uiso   1.00
Br621  Br    0.37781   0.21401   0.94699   0.00000  Uiso   1.00
Br622  Br    0.62219   0.11932   0.55301   0.00000  Uiso   1.00
Br623  Br    0.37817   0.21438   0.55712   0.00000  Uiso   1.00
Br624  Br    0.62183   0.11895   0.94288   0.00000  Uiso   1.00
C625   C     0.42015   0.16683   0.74989   0.00000  Uiso   1.00
C626   C     0.37597   0.16736   0.74948   0.00000  Uiso   1.00
C627   C     0.52524   0.02409   0.77825   0.00000  Uiso   1.00
C628   C     0.47476   0.30925   0.72175   0.00000  Uiso   1.00
C629   C     0.47478   0.02384   0.72174   0.00000  Uiso   1.00
C630   C     0.52522   0.30949   0.77826   0.00000  Uiso   1.00
C631   C     0.50012   0.16654   0.66353   0.00000  Uiso   1.00
C632   C     0.49988   0.16679   0.83647   0.00000  Uiso   1.00
C633   C     0.53522   0.15214   0.90595   0.00000  Uiso   1.00
C634   C     0.46478   0.18119   0.59405   0.00000  Uiso   1.00
C635   C     0.49996   0.16700   0.88410   0.00000  Uiso   1.00
C636   C     0.57985   0.16650   0.75011   0.00000  Uiso   1.00
C637   C     0.50004   0.16633   0.61590   0.00000  Uiso   1.00
C638   C     0.46466   0.18153   0.90712   0.00000  Uiso   1.00
C639   C     0.53534   0.15180   0.59288   0.00000  Uiso   1.00
C640   C     0.46382   0.18134   0.95375   0.00000  Uiso   1.00
C641   C     0.53618   0.15199   0.54625   0.00000  Uiso   1.00
C642   C     0.49999   0.16673   0.97663   0.00000  Uiso   1.00
C643   C     0.50001   0.16660   0.52337   0.00000  Uiso   1.00
C644   C     0.53611   0.15217   0.95257   0.00000  Uiso   1.00
C645   C     0.46389   0.18117   0.54743   0.00000  Uiso   1.00
C646   C     0.42778   0.19523   0.97770   0.00000  Uiso   1.00
C647   C     0.42785   0.19523   0.52466   0.00000  Uiso   1.00
C648   C     0.57222   0.13811   0.52230   0.00000  Uiso   1.00
C649   C     0.37826   0.11617   0.68262   0.00000  Uiso   1.00
C650   C     0.62174   0.21716   0.81738   0.00000  Uiso   1.00
C651   C     0.62376   0.10964   0.68761   0.00000  Uiso   1.00
C652   C     0.37624   0.22369   0.81239   0.00000  Uiso   1.00
C653   C     0.57215   0.13810   0.97534   0.00000  Uiso   1.00
C654   C     0.35536   0.14043   0.71771   0.00000  Uiso   1.00
C655   C     0.64464   0.19290   0.78229   0.00000  Uiso   1.00
C656   C     0.64560   0.13902   0.71878   0.00000  Uiso   1.00
C657   C     0.35440   0.19431   0.78122   0.00000  Uiso   1.00
C658   C     0.62403   0.16597   0.75052   0.00000  Uiso   1.00
H659   H     0.56170   0.14117   0.88586   0.00000  Uiso   1.00
H660   H     0.43830   0.19216   0.61414   0.00000  Uiso   1.00
H661   H     0.43803   0.19211   0.88796   0.00000  Uiso   1.00
H662   H     0.56197   0.14122   0.61204   0.00000  Uiso   1.00
H663   H     0.54545   0.04231   0.80084   0.00000  Uiso   1.00
H664   H     0.45455   0.29102   0.69916   0.00000  Uiso   1.00
H665   H     0.45463   0.04186   0.69912   0.00000  Uiso   1.00
H666   H     0.54537   0.29147   0.80088   0.00000  Uiso   1.00
N667   N     0.50000   0.28573   0.75000   0.00000  Uiso   1.00
N668   N     0.50000   0.04760   0.75000   0.00000  Uiso   1.00
N669   N     0.39639   0.09702   0.65457   0.00000  Uiso   1.00
N670   N     0.60361   0.23631   0.84543   0.00000  Uiso   1.00
N671   N     0.60649   0.08582   0.66314   0.00000  Uiso   1.00
N672   N     0.39351   0.24751   0.83686   0.00000  Uiso   1.00
O673   O     0.43892   0.20487   0.74999   0.00000  Uiso   1.00
O674   O     0.56108   0.12846   0.75000   0.00000  Uiso   1.00
O675   O     0.56108   0.20487   0.75000   0.00000  Uiso   1.00
O676   O     0.43892   0.12846   0.74999   0.00000  Uiso   1.00
O677   O     0.49999   0.20489   0.68392   0.00000  Uiso   1.00
O678   O     0.50001   0.12844   0.81607   0.00000  Uiso   1.00
O679   O     0.50001   0.20489   0.81607   0.00000  Uiso   1.00
O680   O     0.49999   0.12844   0.68392   0.00000  Uiso   1.00
Zn681  Zn    0.50000   0.21771   0.75000   0.00000  Uiso   1.00
Zn682  Zn    0.50000   0.11563   0.75000   0.00000  Uiso   1.00
Br683  Br    0.71115   0.21401   0.94699   0.00000  Uiso   1.00
Br684  Br    0.95552   0.11932   0.55301   0.00000  Uiso   1.00
Br685  Br    0.71150   0.21438   0.55712   0.00000  Uiso   1.00
Br686  Br    0.95517   0.11895   0.94288   0.00000  Uiso   1.00
C687   C     0.75349   0.16683   0.74989   0.00000  Uiso   1.00
C688   C     0.70930   0.16736   0.74948   0.00000  Uiso   1.00
C689   C     0.85858   0.02409   0.77825   0.00000  Uiso   1.00
C690   C     0.80809   0.30925   0.72175   0.00000  Uiso   1.00
C691   C     0.80811   0.02384   0.72174   0.00000  Uiso   1.00
C692   C     0.85856   0.30949   0.77826   0.00000  Uiso   1.00
C693   C     0.83345   0.16654   0.66353   0.00000  Uiso   1.00
C694   C     0.83321   0.16679   0.83647   0.00000  Uiso   1.00
C695   C     0.86856   0.15214   0.90595   0.00000  Uiso   1.00
C696   C     0.79811   0.18119   0.59405   0.00000  Uiso   1.00
C697   C     0.83330   0.16700   0.88410   0.00000  Uiso   1.00
C698   C     0.91318   0.16650   0.75011   0.00000  Uiso   1.00
C699   C     0.83337   0.16633   0.61590   0.00000  Uiso   1.00
C700   C     0.79800   0.18153   0.90712   0.00000  Uiso   1.00
C701   C     0.86867   0.15180   0.59288   0.00000  Uiso   1.00
C702   C     0.79715   0.18134   0.95375   0.00000  Uiso   1.00
C703   C     0.86952   0.15199   0.54625   0.00000  Uiso   1.00
C704   C     0.83332   0.16673   0.97663   0.00000  Uiso   1.00
C705   C     0.83334   0.16660   0.52337   0.00000  Uiso   1.00
C706   C     0.86944   0.15217   0.95257   0.00000  Uiso   1.00
C707   C     0.79722   0.18117   0.54743   0.00000  Uiso   1.00
C708   C     0.76111   0.19523   0.97770   0.00000  Uiso   1.00
C709   C     0.76119   0.19523   0.52466   0.00000  Uiso   1.00
C710   C     0.90556   0.13811   0.52230   0.00000  Uiso   1.00
C711   C     0.71159   0.11617   0.68262   0.00000  Uiso   1.00
C712   C     0.95508   0.21716   0.81738   0.00000  Uiso   1.00
C713   C     0.95710   0.10964   0.68761   0.00000  Uiso   1.00
C714   C     0.70957   0.22369   0.81239   0.00000  Uiso   1.00
C715   C     0.90548   0.13810   0.97534   0.00000  Uiso   1.00
C716   C     0.68870   0.14043   0.71771   0.00000  Uiso   1.00
C717   C     0.97797   0.19290   0.78229   0.00000  Uiso   1.00
C718   C     0.97893   0.13902   0.71878   0.00000  Uiso   1.00
C719   C     0.68774   0.19431   0.78122   0.00000  Uiso   1.00
C720   C     0.95737   0.16597   0.75052   0.00000  Uiso   1.00
H721   H     0.89503   0.14117   0.88586   0.00000  Uiso   1.00
H722   H     0.77163   0.19216   0.61414   0.00000  Uiso   1.00
H723   H     0.77136   0.19211   0.88796   0.00000  Uiso   1.00
H724   H     0.89531   0.14122   0.61204   0.00000  Uiso   1.00
H725   H     0.87878   0.04231   0.80084   0.00000  Uiso   1.00
H726   H     0.78789   0.29102   0.69916   0.00000  Uiso   1.00
H727   H     0.78797   0.04186   0.69912   0.00000  Uiso   1.00
H728   H     0.87870   0.29147   0.80088   0.00000  Uiso   1.00
N729   N     0.83333   0.28573   0.75000   0.00000  Uiso   1.00
N730   N     0.83333   0.04760   0.75000   0.00000  Uiso   1.00
N731   N     0.72972   0.09702   0.65457   0.00000  Uiso   1.00
N732   N     0.93695   0.23631   0.84543   0.00000  Uiso   1.00
N733   N     0.93982   0.08582   0.66314   0.00000  Uiso   1.00
N734   N     0.72684   0.24751   0.83686   0.00000  Uiso   1.00
O735   O     0.77226   0.20487   0.74999   0.00000  Uiso   1.00
O736   O     0.89441   0.12846   0.75000   0.00000  Uiso   1.00
O737   O     0.89441   0.20487   0.75000   0.00000  Uiso   1.00
O738   O     0.77226   0.12846   0.74999   0.00000  Uiso   1.00
O739   O     0.83333   0.20489   0.68392   0.00000  Uiso   1.00
O740   O     0.83334   0.12844   0.81607   0.00000  Uiso   1.00
O741   O     0.83334   0.20489   0.81607   0.00000  Uiso   1.00
O742   O     0.83333   0.12844   0.68392   0.00000  Uiso   1.00
Zn743  Zn    0.83333   0.21771   0.75000   0.00000  Uiso   1.00
Zn744  Zn    0.83333   0.11563   0.75000   0.00000  Uiso   1.00
Br745  Br    0.04448   0.54734   0.94699   0.00000  Uiso   1.00
Br746  Br    0.28885   0.45266   0.55301   0.00000  Uiso   1.00
Br747  Br    0.04483   0.54771   0.55712   0.00000  Uiso   1.00
Br748  Br    0.28850   0.45229   0.94288   0.00000  Uiso   1.00
C749   C     0.08682   0.50016   0.74989   0.00000  Uiso   1.00
C750   C     0.04263   0.50070   0.74948   0.00000  Uiso   1.00
C751   C     0.19191   0.35742   0.77825   0.00000  Uiso   1.00
C752   C     0.14142   0.64258   0.72175   0.00000  Uiso   1.00
C753   C     0.14144   0.35718   0.72174   0.00000  Uiso   1.00
C754   C     0.19189   0.64282   0.77826   0.00000  Uiso   1.00
C755   C     0.16679   0.49988   0.66353   0.00000  Uiso   1.00
C756   C     0.16655   0.50012   0.83647   0.00000  Uiso   1.00
C757   C     0.20189   0.48548   0.90595   0.00000  Uiso   1.00
C758   C     0.13144   0.51452   0.59405   0.00000  Uiso   1.00
C759   C     0.16663   0.50034   0.88410   0.00000  Uiso   1.00
C760   C     0.24651   0.49984   0.75011   0.00000  Uiso   1.00
C761   C     0.16670   0.49966   0.61590   0.00000  Uiso   1.00
C762   C     0.13133   0.51486   0.90712   0.00000  Uiso   1.00
C763   C     0.20200   0.48513   0.59288   0.00000  Uiso   1.00
C764   C     0.13048   0.51467   0.95375   0.00000  Uiso   1.00
C765   C     0.20285   0.48533   0.54625   0.00000  Uiso   1.00
C766   C     0.16666   0.50006   0.97663   0.00000  Uiso   1.00
C767   C     0.16668   0.49994   0.52337   0.00000  Uiso   1.00
C768   C     0.20278   0.48550   0.95257   0.00000  Uiso   1.00
C769   C     0.13056   0.51450   0.54743   0.00000  Uiso   1.00
C770   C     0.09444   0.52856   0.97770   0.00000  Uiso   1.00
C771   C     0.09452   0.52857   0.52466   0.00000  Uiso   1.00
C772   C     0.23889   0.47144   0.52230   0.00000  Uiso   1.00
C773   C     0.04492   0.44951   0.68262   0.00000  Uiso   1.00
C774   C     0.28841   0.55049   0.81738   0.00000  Uiso   1.00
C775   C     0.29043   0.44297   0.68761   0.00000  Uiso   1.00
C776   C     0.04290   0.55703   0.81239   0.00000  Uiso   1.00
C777   C     0.23881   0.47143   0.97534   0.00000  Uiso   1.00
C778   C     0.02203   0.47377   0.71771   0.00000  Uiso   1.00
C779   C     0.31130   0.52623   0.78229   0.00000  Uiso   1.00
C780   C     0.31226   0.47235   0.71878   0.00000  Uiso   1.00
C781   C     0.02107   0.52765   0.78122   0.00000  Uiso   1.00
C782   C     0.29070   0.49930   0.75052   0.00000  Uiso   1.00
H783   H     0.22837   0.47451   0.88586   0.00000  Uiso   1.00
H784   H     0.10497   0.52549   0.61414   0.00000  Uiso   1.00
H785   H     0.10469   0.52544   0.88796   0.00000  Uiso   1.00
H786   H     0.22864   0.47456   0.61204   0.00000  Uiso   1.00
H787   H     0.21211   0.37565   0.80084   0.00000  Uiso   1.00
H788   H     0.12122   0.62435   0.69916   0.00000  Uiso   1.00
H789   H     0.12130   0.37519   0.69912   0.00000  Uiso   1.00
H790   H     0.21203   0.62481   0.80088   0.00000  Uiso   1.00
N791   N     0.16667   0.61907   0.75000   0.00000  Uiso   1.00
N792   N     0.16667   0.38093   0.75000   0.00000  Uiso   1.00
N793   N     0.06305   0.43036   0.65457   0.00000  Uiso   1.00
N794   N     0.27028   0.56964   0.84543   0.00000  Uiso   1.00
N795   N     0.27315   0.41915   0.66314   0.00000  Uiso   1.00
N796   N     0.06018   0.58085   0.83686   0.00000  Uiso   1.00
O797   O     0.10559   0.53821   0.74999   0.00000  Uiso   1.00
O798   O     0.22774   0.46179   0.75000   0.00000  Uiso   1.00
O799   O     0.22774   0.53821   0.75000   0.00000  Uiso   1.00
O800   O     0.10559   0.46179   0.74999   0.00000  Uiso   1.00
O801   O     0.16666   0.53823   0.68392   0.00000  Uiso   1.00
O802   O     0.16667   0.46177   0.81607   0.00000  Uiso   1.00
O803   O     0.16667   0.53823   0.81607   0.00000  Uiso   1.00
O804   O     0.16666   0.46177   0.68392   0.00000  Uiso   1.00
Zn805  Zn    0.16667   0.55104   0.75000   0.00000  Uiso   1.00
Zn806  Zn    0.16667   0.44896   0.75000   0.00000  Uiso   1.00
Br807  Br    0.37781   0.54734   0.94699   0.00000  Uiso   1.00
Br808  Br    0.62219   0.45266   0.55301   0.00000  Uiso   1.00
Br809  Br    0.37817   0.54771   0.55712   0.00000  Uiso   1.00
Br810  Br    0.62183   0.45229   0.94288   0.00000  Uiso   1.00
C811   C     0.42015   0.50016   0.74989   0.00000  Uiso   1.00
C812   C     0.37597   0.50070   0.74948   0.00000  Uiso   1.00
C813   C     0.52524   0.35742   0.77825   0.00000  Uiso   1.00
C814   C     0.47476   0.64258   0.72175   0.00000  Uiso   1.00
C815   C     0.47478   0.35718   0.72174   0.00000  Uiso   1.00
C816   C     0.52522   0.64282   0.77826   0.00000  Uiso   1.00
C817   C     0.50012   0.49988   0.66353   0.00000  Uiso   1.00
C818   C     0.49988   0.50012   0.83647   0.00000  Uiso   1.00
C819   C     0.53522   0.48548   0.90595   0.00000  Uiso   1.00
C820   C     0.46478   0.51452   0.59405   0.00000  Uiso   1.00
C821   C     0.49996   0.50034   0.88410   0.00000  Uiso   1.00
C822   C     0.57985   0.49984   0.75011   0.00000  Uiso   1.00
C823   C     0.50004   0.49966   0.61590   0.00000  Uiso   1.00
C824   C     0.46466   0.51486   0.90712   0.00000  Uiso   1.00
C825   C     0.53534   0.48513   0.59288   0.00000  Uiso   1.00
C826   C     0.46382   0.51467   0.95375   0.00000  Uiso   1.00
C827   C     0.53618   0.48533   0.54625   0.00000  Uiso   1.00
C828   C     0.49999   0.50006   0.97663   0.00000  Uiso   1.00
C829   C     0.50001   0.49994   0.52337   0.00000  Uiso   1.00
C830   C     0.53611   0.48550   0.95257   0.00000  Uiso   1.00
C831   C     0.46389   0.51450   0.54743   0.00000  Uiso   1.00
C832   C     0.42778   0.52856   0.97770   0.00000  Uiso   1.00
C833   C     0.42785   0.52857   0.52466   0.00000  Uiso   1.00
C834   C     0.57222   0.47144   0.52230   0.00000  Uiso   1.00
C835   C     0.37826   0.44951   0.68262   0.00000  Uiso   1.00
C836   C     0.62174   0.55049   0.81738   0.00000  Uiso   1.00
C837   C     0.62376   0.44297   0.68761   0.00000  Uiso   1.00
C838   C     0.37624   0.55703   0.81239   0.00000  Uiso   1.00
C839   C     0.57215   0.47143   0.97534   0.00000  Uiso   1.00
C840   C     0.35536   0.47377   0.71771   0.00000  Uiso   1.00
C841   C     0.64464   0.52623   0.78229   0.00000  Uiso   1.00
C842   C     0.64560   0.47235   0.71878   0.00000  Uiso   1.00
C843   C     0.35440   0.52765   0.78122   0.00000  Uiso   1.00
C844   C     0.62403   0.49930   0.75052   0.00000  Uiso   1.00
H845   H     0.56170   0.47451   0.88586   0.00000  Uiso   1.00
H846   H     0.43830   0.52549   0.61414   0.00000  Uiso   1.00
H847   H     0.43803   0.52544   0.88796   0.00000  Uiso   1.00
H848   H     0.56197   0.47456   0.61204   0.00000  Uiso   1.00
H849   H     0.54545   0.37565   0.80084   0.00000  Uiso   1.00
H850   H     0.45455   0.62435   0.69916   0.00000  Uiso   1.00
H851   H     0.45463   0.37519   0.69912   0.00000  Uiso   1.00
H852   H     0.54537   0.62481   0.80088   0.00000  Uiso   1.00
N853   N     0.50000   0.61907   0.75000   0.00000  Uiso   1.00
N854   N     0.50000   0.38093   0.75000   0.00000  Uiso   1.00
N855   N     0.39639   0.43036   0.65457   0.00000  Uiso   1.00
N856   N     0.60361   0.56964   0.84543   0.00000  Uiso   1.00
N857   N     0.60649   0.41915   0.66314   0.00000  Uiso   1.00
N858   N     0.39351   0.58085   0.83686   0.00000  Uiso   1.00
O859   O     0.43892   0.53821   0.74999   0.00000  Uiso   1.00
O860   O     0.56108   0.46179   0.75000   0.00000  Uiso   1.00
O861   O     0.56108   0.53821   0.75000   0.00000  Uiso   1.00
O862   O     0.43892   0.46179   0.74999   0.00000  Uiso   1.00
O863   O     0.49999   0.53823   0.68392   0.00000  Uiso   1.00
O864   O     0.50001   0.46177   0.81607   0.00000  Uiso   1.00
O865   O     0.50001   0.53823   0.81607   0.00000  Uiso   1.00
O866   O     0.49999   0.46177   0.68392   0.00000  Uiso   1.00
Zn867  Zn    0.50000   0.55104   0.75000   0.00000  Uiso   1.00
Zn868  Zn    0.50000   0.44896   0.75000   0.00000  Uiso   1.00
Br869  Br    0.71115   0.54734   0.94699   0.00000  Uiso   1.00
Br870  Br    0.95552   0.45266   0.55301   0.00000  Uiso   1.00
Br871  Br    0.71150   0.54771   0.55712   0.00000  Uiso   1.00
Br872  Br    0.95517   0.45229   0.94288   0.00000  Uiso   1.00
C873   C     0.75349   0.50016   0.74989   0.00000  Uiso   1.00
C874   C     0.70930   0.50070   0.74948   0.00000  Uiso   1.00
C875   C     0.85858   0.35742   0.77825   0.00000  Uiso   1.00
C876   C     0.80809   0.64258   0.72175   0.00000  Uiso   1.00
C877   C     0.80811   0.35718   0.72174   0.00000  Uiso   1.00
C878   C     0.85856   0.64282   0.77826   0.00000  Uiso   1.00
C879   C     0.83345   0.49988   0.66353   0.00000  Uiso   1.00
C880   C     0.83321   0.50012   0.83647   0.00000  Uiso   1.00
C881   C     0.86856   0.48548   0.90595   0.00000  Uiso   1.00
C882   C     0.79811   0.51452   0.59405   0.00000  Uiso   1.00
C883   C     0.83330   0.50034   0.88410   0.00000  Uiso   1.00
C884   C     0.91318   0.49984   0.75011   0.00000  Uiso   1.00
C885   C     0.83337   0.49966   0.61590   0.00000  Uiso   1.00
C886   C     0.79800   0.51486   0.90712   0.00000  Uiso   1.00
C887   C     0.86867   0.48513   0.59288   0.00000  Uiso   1.00
C888   C     0.79715   0.51467   0.95375   0.00000  Uiso   1.00
C889   C     0.86952   0.48533   0.54625   0.00000  Uiso   1.00
C890   C     0.83332   0.50006   0.97663   0.00000  Uiso   1.00
C891   C     0.83334   0.49994   0.52337   0.00000  Uiso   1.00
C892   C     0.86944   0.48550   0.95257   0.00000  Uiso   1.00
C893   C     0.79722   0.51450   0.54743   0.00000  Uiso   1.00
C894   C     0.76111   0.52856   0.97770   0.00000  Uiso   1.00
C895   C     0.76119   0.52857   0.52466   0.00000  Uiso   1.00
C896   C     0.90556   0.47144   0.52230   0.00000  Uiso   1.00
C897   C     0.71159   0.44951   0.68262   0.00000  Uiso   1.00
C898   C     0.95508   0.55049   0.81738   0.00000  Uiso   1.00
C899   C     0.95710   0.44297   0.68761   0.00000  Uiso   1.00
C900   C     0.70957   0.55703   0.81239   0.00000  Uiso   1.00
C901   C     0.90548   0.47143   0.97534   0.00000  Uiso   1.00
C902   C     0.68870   0.47377   0.71771   0.00000  Uiso   1.00
C903   C     0.97797   0.52623   0.78229   0.00000  Uiso   1.00
C904   C     0.97893   0.47235   0.71878   0.00000  Uiso   1.00
C905   C     0.68774   0.52765   0.78122   0.00000  Uiso   1.00
C906   C     0.95737   0.49930   0.75052   0.00000  Uiso   1.00
H907   H     0.89503   0.47451   0.88586   0.00000  Uiso   1.00
H908   H     0.77163   0.52549   0.61414   0.00000  Uiso   1.00
H909   H     0.77136   0.52544   0.88796   0.00000  Uiso   1.00
H910   H     0.89531   0.47456   0.61204   0.00000  Uiso   1.00
H911   H     0.87878   0.37565   0.80084   0.00000  Uiso   1.00
H912   H     0.78789   0.62435   0.69916   0.00000  Uiso   1.00
H913   H     0.78797   0.37519   0.69912   0.00000  Uiso   1.00
H914   H     0.87870   0.62481   0.80088   0.00000  Uiso   1.00
N915   N     0.83333   0.61907   0.75000   0.00000  Uiso   1.00
N916   N     0.83333   0.38093   0.75000   0.00000  Uiso   1.00
N917   N     0.72972   0.43036   0.65457   0.00000  Uiso   1.00
N918   N     0.93695   0.56964   0.84543   0.00000  Uiso   1.00
N919   N     0.93982   0.41915   0.66314   0.00000  Uiso   1.00
N920   N     0.72684   0.58085   0.83686   0.00000  Uiso   1.00
O921   O     0.77226   0.53821   0.74999   0.00000  Uiso   1.00
O922   O     0.89441   0.46179   0.75000   0.00000  Uiso   1.00
O923   O     0.89441   0.53821   0.75000   0.00000  Uiso   1.00
O924   O     0.77226   0.46179   0.74999   0.00000  Uiso   1.00
O925   O     0.83333   0.53823   0.68392   0.00000  Uiso   1.00
O926   O     0.83334   0.46177   0.81607   0.00000  Uiso   1.00
O927   O     0.83334   0.53823   0.81607   0.00000  Uiso   1.00
O928   O     0.83333   0.46177   0.68392   0.00000  Uiso   1.00
Zn929  Zn    0.83333   0.55104   0.75000   0.00000  Uiso   1.00
Zn930  Zn    0.83333   0.44896   0.75000   0.00000  Uiso   1.00
Br931  Br    0.04448   0.88068   0.94699   0.00000  Uiso   1.00
Br932  Br    0.28885   0.78599   0.55301   0.00000  Uiso   1.00
Br933  Br    0.04483   0.88105   0.55712   0.00000  Uiso   1.00
Br934  Br    0.28850   0.78562   0.94288   0.00000  Uiso   1.00
C935   C     0.08682   0.83350   0.74989   0.00000  Uiso   1.00
C936   C     0.04263   0.83403   0.74948   0.00000  Uiso   1.00
C937   C     0.19191   0.69075   0.77825   0.00000  Uiso   1.00
C938   C     0.14142   0.97591   0.72175   0.00000  Uiso   1.00
C939   C     0.14144   0.69051   0.72174   0.00000  Uiso   1.00
C940   C     0.19189   0.97616   0.77826   0.00000  Uiso   1.00
C941   C     0.16679   0.83321   0.66353   0.00000  Uiso   1.00
C942   C     0.16655   0.83346   0.83647   0.00000  Uiso   1.00
C943   C     0.20189   0.81881   0.90595   0.00000  Uiso   1.00
C944   C     0.13144   0.84786   0.59405   0.00000  Uiso   1.00
C945   C     0.16663   0.83367   0.88410   0.00000  Uiso   1.00
C946   C     0.24651   0.83317   0.75011   0.00000  Uiso   1.00
C947   C     0.16670   0.83300   0.61590   0.00000  Uiso   1.00
C948   C     0.13133   0.84820   0.90712   0.00000  Uiso   1.00
C949   C     0.20200   0.81847   0.59288   0.00000  Uiso   1.00
C950   C     0.13048   0.84801   0.95375   0.00000  Uiso   1.00
C951   C     0.20285   0.81866   0.54625   0.00000  Uiso   1.00
C952   C     0.16666   0.83340   0.97663   0.00000  Uiso   1.00
C953   C     0.16668   0.83327   0.52337   0.00000  Uiso   1.00
C954   C     0.20278   0.81883   0.95257   0.00000  Uiso   1.00
C955   C     0.13056   0.84783   0.54743   0.00000  Uiso   1.00
C956   C     0.09444   0.86189   0.97770   0.00000  Uiso   1.00
C957   C     0.09452   0.86190   0.52466   0.00000  Uiso   1.00
C958   C     0.23889   0.80477   0.52230   0.00000  Uiso   1.00
C959   C     0.04492   0.78284   0.68262   0.00000  Uiso   1.00
C960   C     0.28841   0.88383   0.81738   0.00000  Uiso   1.00
C961   C     0.29043   0.77631   0.68761   0.00000  Uiso   1.00
C962   C     0.04290   0.89036   0.81239   0.00000  Uiso   1.00
C963   C     0.23881   0.80477   0.97534   0.00000  Uiso   1.00
C964   C     0.02203   0.80710   0.71771   0.00000  Uiso   1.00
C965   C     0.31130   0.85957   0.78229   0.00000  Uiso   1.00
C966   C     0.31226   0.80569   0.71878   0.00000  Uiso   1.00
C967   C     0.02107   0.86098   0.78122   0.00000  Uiso   1.00
C968   C     0.29070   0.83264   0.75052   0.00000  Uiso   1.00
H969   H     0.22837   0.80784   0.88586   0.00000  Uiso   1.00
H970   H     0.10497   0.85883   0.61414   0.00000  Uiso   1.00
H971   H     0.10469   0.85878   0.88796   0.00000  Uiso   1.00
H972   H     0.22864   0.80789   0.61204   0.00000  Uiso   1.00
H973   H     0.21211   0.70898   0.80084   0.00000  Uiso   1.00
H974   H     0.12122   0.95769   0.69916   0.00000  Uiso   1.00
H975   H     0.12130   0.70853   0.69912   0.00000  Uiso   1.00
H976   H     0.21203   0.95814   0.80088   0.00000  Uiso   1.00
N977   N     0.16667   0.95240   0.75000   0.00000  Uiso   1.00
N978   N     0.16667   0.71427   0.75000   0.00000  Uiso   1.00
N979   N     0.06305   0.76369   0.65457   0.00000  Uiso   1.00
N980   N     0.27028   0.90298   0.84543   0.00000  Uiso   1.00
N981   N     0.27315   0.75249   0.66314   0.00000  Uiso   1.00
N982   N     0.06018   0.91418   0.83686   0.00000  Uiso   1.00
O983   O     0.10559   0.87154   0.74999   0.00000  Uiso   1.00
O984   O     0.22774   0.79513   0.75000   0.00000  Uiso   1.00
O985   O     0.22774   0.87154   0.75000   0.00000  Uiso   1.00
O986   O     0.10559   0.79513   0.74999   0.00000  Uiso   1.00
O987   O     0.16666   0.87156   0.68392   0.00000  Uiso   1.00
O988   O     0.16667   0.79511   0.81607   0.00000  Uiso   1.00
O989   O     0.16667   0.87156   0.81607   0.00000  Uiso   1.00
O990   O     0.16666   0.79511   0.68392   0.00000  Uiso   1.00
Zn991  Zn    0.16667   0.88437   0.75000   0.00000  Uiso   1.00
Zn992  Zn    0.16667   0.78229   0.75000   0.00000  Uiso   1.00
Br993  Br    0.37781   0.88068   0.94699   0.00000  Uiso   1.00
Br994  Br    0.62219   0.78599   0.55301   0.00000  Uiso   1.00
Br995  Br    0.37817   0.88105   0.55712   0.00000  Uiso   1.00
Br996  Br    0.62183   0.78562   0.94288   0.00000  Uiso   1.00
C997   C     0.42015   0.83350   0.74989   0.00000  Uiso   1.00
C998   C     0.37597   0.83403   0.74948   0.00000  Uiso   1.00
C999   C     0.52524   0.69075   0.77825   0.00000  Uiso   1.00
C1000  C     0.47476   0.97591   0.72175   0.00000  Uiso   1.00
C1001  C     0.47478   0.69051   0.72174   0.00000  Uiso   1.00
C1002  C     0.52522   0.97616   0.77826   0.00000  Uiso   1.00
C1003  C     0.50012   0.83321   0.66353   0.00000  Uiso   1.00
C1004  C     0.49988   0.83346   0.83647   0.00000  Uiso   1.00
C1005  C     0.53522   0.81881   0.90595   0.00000  Uiso   1.00
C1006  C     0.46478   0.84786   0.59405   0.00000  Uiso   1.00
C1007  C     0.49996   0.83367   0.88410   0.00000  Uiso   1.00
C1008  C     0.57985   0.83317   0.75011   0.00000  Uiso   1.00
C1009  C     0.50004   0.83300   0.61590   0.00000  Uiso   1.00
C1010  C     0.46466   0.84820   0.90712   0.00000  Uiso   1.00
C1011  C     0.53534   0.81847   0.59288   0.00000  Uiso   1.00
C1012  C     0.46382   0.84801   0.95375   0.00000  Uiso   1.00
C1013  C     0.53618   0.81866   0.54625   0.00000  Uiso   1.00
C1014  C     0.49999   0.83340   0.97663   0.00000  Uiso   1.00
C1015  C     0.50001   0.83327   0.52337   0.00000  Uiso   1.00
C1016  C     0.53611   0.81883   0.95257   0.00000  Uiso   1.00
C1017  C     0.46389   0.84783   0.54743   0.00000  Uiso   1.00
C1018  C     0.42778   0.86189   0.97770   0.00000  Uiso   1.00
C1019  C     0.42785   0.86190   0.52466   0.00000  Uiso   1.00
C1020  C     0.57222   0.80477   0.52230   0.00000  Uiso   1.00
C1021  C     0.37826   0.78284   0.68262   0.00000  Uiso   1.00
C1022  C     0.62174   0.88383   0.81738   0.00000  Uiso   1.00
C1023  C     0.62376   0.77631   0.68761   0.00000  Uiso   1.00
C1024  C     0.37624   0.89036   0.81239   0.00000  Uiso   1.00
C1025  C     0.57215   0.80477   0.97534   0.00000  Uiso   1.00
C1026  C     0.35536   0.80710   0.71771   0.00000  Uiso   1.00
C1027  C     0.64464   0.85957   0.78229   0.00000  Uiso   1.00
C1028  C     0.64560   0.80569   0.71878   0.00000  Uiso   1.00
C1029  C     0.35440   0.86098   0.78122   0.00000  Uiso   1.00
C1030  C     0.62403   0.83264   0.75052   0.00000  Uiso   1.00
H1031  H     0.56170   0.80784   0.88586   0.00000  Uiso   1.00
H1032  H     0.43830   0.85883   0.61414   0.00000  Uiso   1.00
H1033  H     0.43803   0.85878   0.88796   0.00000  Uiso   1.00
H1034  H     0.56197   0.80789   0.61204   0.00000  Uiso   1.00
H1035  H     0.54545   0.70898   0.80084   0.00000  Uiso   1.00
H1036  H     0.45455   0.95769   0.69916   0.00000  Uiso   1.00
H1037  H     0.45463   0.70853   0.69912   0.00000  Uiso   1.00
H1038  H     0.54537   0.95814   0.80088   0.00000  Uiso   1.00
N1039  N     0.50000   0.95240   0.75000   0.00000  Uiso   1.00
N1040  N     0.50000   0.71427   0.75000   0.00000  Uiso   1.00
N1041  N     0.39639   0.76369   0.65457   0.00000  Uiso   1.00
N1042  N     0.60361   0.90298   0.84543   0.00000  Uiso   1.00
N1043  N     0.60649   0.75249   0.66314   0.00000  Uiso   1.00
N1044  N     0.39351   0.91418   0.83686   0.00000  Uiso   1.00
O1045  O     0.43892   0.87154   0.74999   0.00000  Uiso   1.00
O1046  O     0.56108   0.79513   0.75000   0.00000  Uiso   1.00
O1047  O     0.56108   0.87154   0.75000   0.00000  Uiso   1.00
O1048  O     0.43892   0.79513   0.74999   0.00000  Uiso   1.00
O1049  O     0.49999   0.87156   0.68392   0.00000  Uiso   1.00
O1050  O     0.50001   0.79511   0.81607   0.00000  Uiso   1.00
O1051  O     0.50001   0.87156   0.81607   0.00000  Uiso   1.00
O1052  O     0.49999   0.79511   0.68392   0.00000  Uiso   1.00
Zn1053 Zn    0.50000   0.88437   0.75000   0.00000  Uiso   1.00
Zn1054 Zn    0.50000   0.78229   0.75000   0.00000  Uiso   1.00
Br1055 Br    0.71115   0.88068   0.94699   0.00000  Uiso   1.00
Br1056 Br    0.95552   0.78599   0.55301   0.00000  Uiso   1.00
Br1057 Br    0.71150   0.88105   0.55712   0.00000  Uiso   1.00
Br1058 Br    0.95517   0.78562   0.94288   0.00000  Uiso   1.00
C1059  C     0.75349   0.83350   0.74989   0.00000  Uiso   1.00
C1060  C     0.70930   0.83403   0.74948   0.00000  Uiso   1.00
C1061  C     0.85858   0.69075   0.77825   0.00000  Uiso   1.00
C1062  C     0.80809   0.97591   0.72175   0.00000  Uiso   1.00
C1063  C     0.80811   0.69051   0.72174   0.00000  Uiso   1.00
C1064  C     0.85856   0.97616   0.77826   0.00000  Uiso   1.00
C1065  C     0.83345   0.83321   0.66353   0.00000  Uiso   1.00
C1066  C     0.83321   0.83346   0.83647   0.00000  Uiso   1.00
C1067  C     0.86856   0.81881   0.90595   0.00000  Uiso   1.00
C1068  C     0.79811   0.84786   0.59405   0.00000  Uiso   1.00
C1069  C     0.83330   0.83367   0.88410   0.00000  Uiso   1.00
C1070  C     0.91318   0.83317   0.75011   0.00000  Uiso   1.00
C1071  C     0.83337   0.83300   0.61590   0.00000  Uiso   1.00
C1072  C     0.79800   0.84820   0.90712   0.00000  Uiso   1.00
C1073  C     0.86867   0.81847   0.59288   0.00000  Uiso   1.00
C1074  C     0.79715   0.84801   0.95375   0.00000  Uiso   1.00
C1075  C     0.86952   0.81866   0.54625   0.00000  Uiso   1.00
C1076  C     0.83332   0.83340   0.97663   0.00000  Uiso   1.00
C1077  C     0.83334   0.83327   0.52337   0.00000  Uiso   1.00
C1078  C     0.86944   0.81883   0.95257   0.00000  Uiso   1.00
C1079  C     0.79722   0.84783   0.54743   0.00000  Uiso   1.00
C1080  C     0.76111   0.86189   0.97770   0.00000  Uiso   1.00
C1081  C     0.76119   0.86190   0.52466   0.00000  Uiso   1.00
C1082  C     0.90556   0.80477   0.52230   0.00000  Uiso   1.00
C1083  C     0.71159   0.78284   0.68262   0.00000  Uiso   1.00
C1084  C     0.95508   0.88383   0.81738   0.00000  Uiso   1.00
C1085  C     0.95710   0.77631   0.68761   0.00000  Uiso   1.00
C1086  C     0.70957   0.89036   0.81239   0.00000  Uiso   1.00
C1087  C     0.90548   0.80477   0.97534   0.00000  Uiso   1.00
C1088  C     0.68870   0.80710   0.71771   0.00000  Uiso   1.00
C1089  C     0.97797   0.85957   0.78229   0.00000  Uiso   1.00
C1090  C     0.97893   0.80569   0.71878   0.00000  Uiso   1.00
C1091  C     0.68774   0.86098   0.78122   0.00000  Uiso   1.00
C1092  C     0.95737   0.83264   0.75052   0.00000  Uiso   1.00
H1093  H     0.89503   0.80784   0.88586   0.00000  Uiso   1.00
H1094  H     0.77163   0.85883   0.61414   0.00000  Uiso   1.00
H1095  H     0.77136   0.85878   0.88796   0.00000  Uiso   1.00
H1096  H     0.89531   0.80789   0.61204   0.00000  Uiso   1.00
H1097  H     0.87878   0.70898   0.80084   0.00000  Uiso   1.00
H1098  H     0.78789   0.95769   0.69916   0.00000  Uiso   1.00
H1099  H     0.78797   0.70853   0.69912   0.00000  Uiso   1.00
H1100  H     0.87870   0.95814   0.80088   0.00000  Uiso   1.00
N1101  N     0.83333   0.95240   0.75000   0.00000  Uiso   1.00
N1102  N     0.83333   0.71427   0.75000   0.00000  Uiso   1.00
N1103  N     0.72972   0.76369   0.65457   0.00000  Uiso   1.00
N1104  N     0.93695   0.90298   0.84543   0.00000  Uiso   1.00
N1105  N     0.93982   0.75249   0.66314   0.00000  Uiso   1.00
N1106  N     0.72684   0.91418   0.83686   0.00000  Uiso   1.00
O1107  O     0.77226   0.87154   0.74999   0.00000  Uiso   1.00
O1108  O     0.89441   0.79513   0.75000   0.00000  Uiso   1.00
O1109  O     0.89441   0.87154   0.75000   0.00000  Uiso   1.00
O1110  O     0.77226   0.79513   0.74999   0.00000  Uiso   1.00
O1111  O     0.83333   0.87156   0.68392   0.00000  Uiso   1.00
O1112  O     0.83334   0.79511   0.81607   0.00000  Uiso   1.00
O1113  O     0.83334   0.87156   0.81607   0.00000  Uiso   1.00
O1114  O     0.83333   0.79511   0.68392   0.00000  Uiso   1.00
Zn1115 Zn    0.83333   0.88437   0.75000   0.00000  Uiso   1.00
Zn1116 Zn    0.83333   0.78229   0.75000   0.00000  Uiso   1.00
loop_
_geom_bond_atom_site_label_1
_geom_bond_atom_site_label_2
_geom_bond_distance
_geom_bond_site_symmetry_2
_ccdc_geom_bond_type
Br1    C26     1.936   .     S
Br2    C28     1.936   .     S
Br3    C27     1.937   .     S
Br4    C33     1.937   .     S
C5     O56     1.283   .     A
C5     O53     1.277   .     A
C5     C6      1.418   .     S
C6     C34     1.405   .     A
C6     C37     1.408   .     A
C7     H43     1.082   .     S
C7     N48     1.366   .     A
C7     C382    1.417   1_545 S
C8     N47     1.366   .     A
C8     H44     1.082   .     S
C8     C195    1.417   .     S
C9     H45     1.081   .     S
C9     N48     1.367   .     A
C9     C380    1.417   1_545 S
C10    H46     1.081   .     S
C10    N47     1.367   .     A
C10    C193    1.417   .     S
C11    O57     1.283   .     A
C11    O60     1.284   .     A
C11    C17     1.420   .     S
C12    C15     1.420   .     S
C12    O58     1.283   .     A
C12    O59     1.284   .     A
C13    C15     1.383   .     A
C13    H39     1.082   .     S
C13    C24     1.390   .     A
C14    C25     1.390   .     A
C14    C17     1.383   .     A
C14    H40     1.082   .     S
C15    C18     1.384   .     A
C16    O54     1.277   .     A
C16    O55     1.283   .     A
C16    C38     1.418   .     S
C17    C19     1.384   .     A
C18    C20     1.390   .     A
C18    H41     1.079   .     S
C19    H42     1.079   .     S
C19    C21     1.390   .     A
C20    C26     1.411   .     A
C20    C22     1.420   .     A
C21    C28     1.411   .     A
C21    C23     1.420   .     A
C22    C24     1.421   .     A
C22    C581    1.393   .     S
C23    C25     1.421   .     A
C23    C580    1.393   1_554 S
C24    C33     1.410   .     A
C25    C27     1.410   .     A
C26    C585    1.400   .     S
C27    C584    1.400   1_554 S
C28    C591    1.400   1_554 S
C29    N49     1.157   .     T
C29    C34     1.456   .     S
C30    N50     1.157   .     T
C30    C35     1.456   .     S
C31    N51     1.157   .     T
C31    C36     1.454   .     S
C32    C37     1.454   .     S
C32    N52     1.157   .     T
C33    C586    1.400   .     S
C34    C160    1.384   1_455 S
C35    C38     1.405   .     A
C35    C99     1.384   .     S
C36    C38     1.408   .     A
C36    C96     1.384   .     S
C37    C159    1.384   1_455 S
N47    Zn61    2.011   .     S
N48    Zn62    2.011   .     S
O53    Zn61    1.997   .     S
O54    Zn62    1.997   .     S
O55    Zn61    1.995   .     S
O56    Zn62    1.995   .     S
O57    Zn61    2.003   .     S
O58    Zn62    2.003   .     S
O59    Zn61    2.008   .     S
O60    Zn62    2.008   .     S
Br63   C88     1.936   .     S
Br64   C90     1.936   .     S
Br65   C89     1.937   .     S
Br66   C95     1.937   .     S
C67    O118    1.283   .     A
C67    O115    1.277   .     A
C67    C68     1.418   .     S
C68    C96     1.405   .     A
C68    C99     1.408   .     A
C69    H105    1.082   .     S
C69    N110    1.366   .     A
C69    C444    1.417   1_545 S
C70    N109    1.366   .     A
C70    H106    1.082   .     S
C70    C257    1.417   .     S
C71    H107    1.081   .     S
C71    N110    1.367   .     A
C71    C442    1.417   1_545 S
C72    H108    1.081   .     S
C72    N109    1.367   .     A
C72    C255    1.417   .     S
C73    O119    1.283   .     A
C73    O122    1.284   .     A
C73    C79     1.420   .     S
C74    C77     1.420   .     S
C74    O120    1.283   .     A
C74    O121    1.284   .     A
C75    C77     1.383   .     A
C75    H101    1.082   .     S
C75    C86     1.390   .     A
C76    C87     1.390   .     A
C76    C79     1.383   .     A
C76    H102    1.082   .     S
C77    C80     1.384   .     A
C78    O116    1.277   .     A
C78    O117    1.283   .     A
C78    C100    1.418   .     S
C79    C81     1.384   .     A
C80    C82     1.390   .     A
C80    H103    1.079   .     S
C81    H104    1.079   .     S
C81    C83     1.390   .     A
C82    C88     1.411   .     A
C82    C84     1.420   .     A
C83    C90     1.411   .     A
C83    C85     1.420   .     A
C84    C86     1.421   .     A
C84    C643    1.393   .     S
C85    C87     1.421   .     A
C85    C642    1.393   1_554 S
C86    C95     1.410   .     A
C87    C89     1.410   .     A
C88    C647    1.400   .     S
C89    C646    1.400   1_554 S
C90    C653    1.400   1_554 S
C91    N111    1.157   .     T
C91    C96     1.456   .     S
C92    N112    1.157   .     T
C92    C97     1.456   .     S
C93    N113    1.157   .     T
C93    C98     1.454   .     S
C94    C99     1.454   .     S
C94    N114    1.157   .     T
C95    C648    1.400   .     S
C97    C100    1.405   .     A
C97    C161    1.384   .     S
C98    C100    1.408   .     A
C98    C158    1.384   .     S
N109   Zn123   2.011   .     S
N110   Zn124   2.011   .     S
O115   Zn123   1.997   .     S
O116   Zn124   1.997   .     S
O117   Zn123   1.995   .     S
O118   Zn124   1.995   .     S
O119   Zn123   2.003   .     S
O120   Zn124   2.003   .     S
O121   Zn123   2.008   .     S
O122   Zn124   2.008   .     S
Br125  C150    1.936   .     S
Br126  C152    1.936   .     S
Br127  C151    1.937   .     S
Br128  C157    1.937   .     S
C129   O180    1.283   .     A
C129   O177    1.277   .     A
C129   C130    1.418   .     S
C130   C158    1.405   .     A
C130   C161    1.408   .     A
C131   H167    1.082   .     S
C131   N172    1.366   .     A
C131   C506    1.417   1_545 S
C132   N171    1.366   .     A
C132   H168    1.082   .     S
C132   C319    1.417   .     S
C133   H169    1.081   .     S
C133   N172    1.367   .     A
C133   C504    1.417   1_545 S
C134   H170    1.081   .     S
C134   N171    1.367   .     A
C134   C317    1.417   .     S
C135   O181    1.283   .     A
C135   O184    1.284   .     A
C135   C141    1.420   .     S
C136   C139    1.420   .     S
C136   O182    1.283   .     A
C136   O183    1.284   .     A
C137   C139    1.383   .     A
C137   H163    1.082   .     S
C137   C148    1.390   .     A
C138   C149    1.390   .     A
C138   C141    1.383   .     A
C138   H164    1.082   .     S
C139   C142    1.384   .     A
C140   O178    1.277   .     A
C140   O179    1.283   .     A
C140   C162    1.418   .     S
C141   C143    1.384   .     A
C142   C144    1.390   .     A
C142   H165    1.079   .     S
C143   H166    1.079   .     S
C143   C145    1.390   .     A
C144   C150    1.411   .     A
C144   C146    1.420   .     A
C145   C152    1.411   .     A
C145   C147    1.420   .     A
C146   C148    1.421   .     A
C146   C705    1.393   .     S
C147   C149    1.421   .     A
C147   C704    1.393   1_554 S
C148   C157    1.410   .     A
C149   C151    1.410   .     A
C150   C709    1.400   .     S
C151   C708    1.400   1_554 S
C152   C715    1.400   1_554 S
C153   N173    1.157   .     T
C153   C158    1.456   .     S
C154   N174    1.157   .     T
C154   C159    1.456   .     S
C155   N175    1.157   .     T
C155   C160    1.454   .     S
C156   C161    1.454   .     S
C156   N176    1.157   .     T
C157   C710    1.400   .     S
C159   C162    1.405   .     A
C159   C37     1.384   1_655 S
C160   C162    1.408   .     A
C160   C34     1.384   1_655 S
N171   Zn185   2.011   .     S
N172   Zn186   2.011   .     S
O177   Zn185   1.997   .     S
O178   Zn186   1.997   .     S
O179   Zn185   1.995   .     S
O180   Zn186   1.995   .     S
O181   Zn185   2.003   .     S
O182   Zn186   2.003   .     S
O183   Zn185   2.008   .     S
O184   Zn186   2.008   .     S
Br187  C212    1.936   .     S
Br188  C214    1.936   .     S
Br189  C213    1.937   .     S
Br190  C219    1.937   .     S
C191   O242    1.283   .     A
C191   O239    1.277   .     A
C191   C192    1.418   .     S
C192   C220    1.405   .     A
C192   C223    1.408   .     A
C193   H229    1.082   .     S
C193   N234    1.366   .     A
C194   N233    1.366   .     A
C194   H230    1.082   .     S
C194   C381    1.417   .     S
C195   H231    1.081   .     S
C195   N234    1.367   .     A
C196   H232    1.081   .     S
C196   N233    1.367   .     A
C196   C379    1.417   .     S
C197   O243    1.283   .     A
C197   O246    1.284   .     A
C197   C203    1.420   .     S
C198   C201    1.420   .     S
C198   O244    1.283   .     A
C198   O245    1.284   .     A
C199   C201    1.383   .     A
C199   H225    1.082   .     S
C199   C210    1.390   .     A
C200   C211    1.390   .     A
C200   C203    1.383   .     A
C200   H226    1.082   .     S
C201   C204    1.384   .     A
C202   O240    1.277   .     A
C202   O241    1.283   .     A
C202   C224    1.418   .     S
C203   C205    1.384   .     A
C204   C206    1.390   .     A
C204   H227    1.079   .     S
C205   H228    1.079   .     S
C205   C207    1.390   .     A
C206   C212    1.411   .     A
C206   C208    1.420   .     A
C207   C214    1.411   .     A
C207   C209    1.420   .     A
C208   C210    1.421   .     A
C208   C767    1.393   .     S
C209   C211    1.421   .     A
C209   C766    1.393   1_554 S
C210   C219    1.410   .     A
C211   C213    1.410   .     A
C212   C771    1.400   .     S
C213   C770    1.400   1_554 S
C214   C777    1.400   1_554 S
C215   N235    1.157   .     T
C215   C220    1.456   .     S
C216   N236    1.157   .     T
C216   C221    1.456   .     S
C217   N237    1.157   .     T
C217   C222    1.454   .     S
C218   C223    1.454   .     S
C218   N238    1.157   .     T
C219   C772    1.400   .     S
C220   C346    1.384   1_455 S
C221   C224    1.405   .     A
C221   C285    1.384   .     S
C222   C224    1.408   .     A
C222   C282    1.384   .     S
C223   C345    1.384   1_455 S
N233   Zn247   2.011   .     S
N234   Zn248   2.011   .     S
O239   Zn247   1.997   .     S
O240   Zn248   1.997   .     S
O241   Zn247   1.995   .     S
O242   Zn248   1.995   .     S
O243   Zn247   2.003   .     S
O244   Zn248   2.003   .     S
O245   Zn247   2.008   .     S
O246   Zn248   2.008   .     S
Br249  C274    1.936   .     S
Br250  C276    1.936   .     S
Br251  C275    1.937   .     S
Br252  C281    1.937   .     S
C253   O304    1.283   .     A
C253   O301    1.277   .     A
C253   C254    1.418   .     S
C254   C282    1.405   .     A
C254   C285    1.408   .     A
C255   H291    1.082   .     S
C255   N296    1.366   .     A
C256   N295    1.366   .     A
C256   H292    1.082   .     S
C256   C443    1.417   .     S
C257   H293    1.081   .     S
C257   N296    1.367   .     A
C258   H294    1.081   .     S
C258   N295    1.367   .     A
C258   C441    1.417   .     S
C259   O305    1.283   .     A
C259   O308    1.284   .     A
C259   C265    1.420   .     S
C260   C263    1.420   .     S
C260   O306    1.283   .     A
C260   O307    1.284   .     A
C261   C263    1.383   .     A
C261   H287    1.082   .     S
C261   C272    1.390   .     A
C262   C273    1.390   .     A
C262   C265    1.383   .     A
C262   H288    1.082   .     S
C263   C266    1.384   .     A
C264   O302    1.277   .     A
C264   O303    1.283   .     A
C264   C286    1.418   .     S
C265   C267    1.384   .     A
C266   C268    1.390   .     A
C266   H289    1.079   .     S
C267   H290    1.079   .     S
C267   C269    1.390   .     A
C268   C274    1.411   .     A
C268   C270    1.420   .     A
C269   C276    1.411   .     A
C269   C271    1.420   .     A
C270   C272    1.421   .     A
C270   C829    1.393   .     S
C271   C273    1.421   .     A
C271   C828    1.393   1_554 S
C272   C281    1.410   .     A
C273   C275    1.410   .     A
C274   C833    1.400   .     S
C275   C832    1.400   1_554 S
C276   C839    1.400   1_554 S
C277   N297    1.157   .     T
C277   C282    1.456   .     S
C278   N298    1.157   .     T
C278   C283    1.456   .     S
C279   N299    1.157   .     T
C279   C284    1.454   .     S
C280   C285    1.454   .     S
C280   N300    1.157   .     T
C281   C834    1.400   .     S
C283   C286    1.405   .     A
C283   C347    1.384   .     S
C284   C286    1.408   .     A
C284   C344    1.384   .     S
N295   Zn309   2.011   .     S
N296   Zn310   2.011   .     S
O301   Zn309   1.997   .     S
O302   Zn310   1.997   .     S
O303   Zn309   1.995   .     S
O304   Zn310   1.995   .     S
O305   Zn309   2.003   .     S
O306   Zn310   2.003   .     S
O307   Zn309   2.008   .     S
O308   Zn310   2.008   .     S
Br311  C336    1.936   .     S
Br312  C338    1.936   .     S
Br313  C337    1.937   .     S
Br314  C343    1.937   .     S
C315   O366    1.283   .     A
C315   O363    1.277   .     A
C315   C316    1.418   .     S
C316   C344    1.405   .     A
C316   C347    1.408   .     A
C317   H353    1.082   .     S
C317   N358    1.366   .     A
C318   N357    1.366   .     A
C318   H354    1.082   .     S
C318   C505    1.417   .     S
C319   H355    1.081   .     S
C319   N358    1.367   .     A
C320   H356    1.081   .     S
C320   N357    1.367   .     A
C320   C503    1.417   .     S
C321   O367    1.283   .     A
C321   O370    1.284   .     A
C321   C327    1.420   .     S
C322   C325    1.420   .     S
C322   O368    1.283   .     A
C322   O369    1.284   .     A
C323   C325    1.383   .     A
C323   H349    1.082   .     S
C323   C334    1.390   .     A
C324   C335    1.390   .     A
C324   C327    1.383   .     A
C324   H350    1.082   .     S
C325   C328    1.384   .     A
C326   O364    1.277   .     A
C326   O365    1.283   .     A
C326   C348    1.418   .     S
C327   C329    1.384   .     A
C328   C330    1.390   .     A
C328   H351    1.079   .     S
C329   H352    1.079   .     S
C329   C331    1.390   .     A
C330   C336    1.411   .     A
C330   C332    1.420   .     A
C331   C338    1.411   .     A
C331   C333    1.420   .     A
C332   C334    1.421   .     A
C332   C891    1.393   .     S
C333   C335    1.421   .     A
C333   C890    1.393   1_554 S
C334   C343    1.410   .     A
C335   C337    1.410   .     A
C336   C895    1.400   .     S
C337   C894    1.400   1_554 S
C338   C901    1.400   1_554 S
C339   N359    1.157   .     T
C339   C344    1.456   .     S
C340   N360    1.157   .     T
C340   C345    1.456   .     S
C341   N361    1.157   .     T
C341   C346    1.454   .     S
C342   C347    1.454   .     S
C342   N362    1.157   .     T
C343   C896    1.400   .     S
C345   C348    1.405   .     A
C345   C223    1.384   1_655 S
C346   C348    1.408   .     A
C346   C220    1.384   1_655 S
N357   Zn371   2.011   .     S
N358   Zn372   2.011   .     S
O363   Zn371   1.997   .     S
O364   Zn372   1.997   .     S
O365   Zn371   1.995   .     S
O366   Zn372   1.995   .     S
O367   Zn371   2.003   .     S
O368   Zn372   2.003   .     S
O369   Zn371   2.008   .     S
O370   Zn372   2.008   .     S
Br373  C398    1.936   .     S
Br374  C400    1.936   .     S
Br375  C399    1.937   .     S
Br376  C405    1.937   .     S
C377   O428    1.283   .     A
C377   O425    1.277   .     A
C377   C378    1.418   .     S
C378   C406    1.405   .     A
C378   C409    1.408   .     A
C379   H415    1.082   .     S
C379   N420    1.366   .     A
C380   N419    1.366   .     A
C380   H416    1.082   .     S
C380   C9      1.417   1_565 S
C381   H417    1.081   .     S
C381   N420    1.367   .     A
C382   H418    1.081   .     S
C382   N419    1.367   .     A
C382   C7      1.417   1_565 S
C383   O429    1.283   .     A
C383   O432    1.284   .     A
C383   C389    1.420   .     S
C384   C387    1.420   .     S
C384   O430    1.283   .     A
C384   O431    1.284   .     A
C385   C387    1.383   .     A
C385   H411    1.082   .     S
C385   C396    1.390   .     A
C386   C397    1.390   .     A
C386   C389    1.383   .     A
C386   H412    1.082   .     S
C387   C390    1.384   .     A
C388   O426    1.277   .     A
C388   O427    1.283   .     A
C388   C410    1.418   .     S
C389   C391    1.384   .     A
C390   C392    1.390   .     A
C390   H413    1.079   .     S
C391   H414    1.079   .     S
C391   C393    1.390   .     A
C392   C398    1.411   .     A
C392   C394    1.420   .     A
C393   C400    1.411   .     A
C393   C395    1.420   .     A
C394   C396    1.421   .     A
C394   C953    1.393   .     S
C395   C397    1.421   .     A
C395   C952    1.393   1_554 S
C396   C405    1.410   .     A
C397   C399    1.410   .     A
C398   C957    1.400   .     S
C399   C956    1.400   1_554 S
C400   C963    1.400   1_554 S
C401   N421    1.157   .     T
C401   C406    1.456   .     S
C402   N422    1.157   .     T
C402   C407    1.456   .     S
C403   N423    1.157   .     T
C403   C408    1.454   .     S
C404   C409    1.454   .     S
C404   N424    1.157   .     T
C405   C958    1.400   .     S
C406   C532    1.384   1_455 S
C407   C410    1.405   .     A
C407   C471    1.384   .     S
C408   C410    1.408   .     A
C408   C468    1.384   .     S
C409   C531    1.384   1_455 S
N419   Zn433   2.011   .     S
N420   Zn434   2.011   .     S
O425   Zn433   1.997   .     S
O426   Zn434   1.997   .     S
O427   Zn433   1.995   .     S
O428   Zn434   1.995   .     S
O429   Zn433   2.003   .     S
O430   Zn434   2.003   .     S
O431   Zn433   2.008   .     S
O432   Zn434   2.008   .     S
Br435  C460    1.936   .     S
Br436  C462    1.936   .     S
Br437  C461    1.937   .     S
Br438  C467    1.937   .     S
C439   O490    1.283   .     A
C439   O487    1.277   .     A
C439   C440    1.418   .     S
C440   C468    1.405   .     A
C440   C471    1.408   .     A
C441   H477    1.082   .     S
C441   N482    1.366   .     A
C442   N481    1.366   .     A
C442   H478    1.082   .     S
C442   C71     1.417   1_565 S
C443   H479    1.081   .     S
C443   N482    1.367   .     A
C444   H480    1.081   .     S
C444   N481    1.367   .     A
C444   C69     1.417   1_565 S
C445   O491    1.283   .     A
C445   O494    1.284   .     A
C445   C451    1.420   .     S
C446   C449    1.420   .     S
C446   O492    1.283   .     A
C446   O493    1.284   .     A
C447   C449    1.383   .     A
C447   H473    1.082   .     S
C447   C458    1.390   .     A
C448   C459    1.390   .     A
C448   C451    1.383   .     A
C448   H474    1.082   .     S
C449   C452    1.384   .     A
C450   O488    1.277   .     A
C450   O489    1.283   .     A
C450   C472    1.418   .     S
C451   C453    1.384   .     A
C452   C454    1.390   .     A
C452   H475    1.079   .     S
C453   H476    1.079   .     S
C453   C455    1.390   .     A
C454   C460    1.411   .     A
C454   C456    1.420   .     A
C455   C462    1.411   .     A
C455   C457    1.420   .     A
C456   C458    1.421   .     A
C456   C1015   1.393   .     S
C457   C459    1.421   .     A
C457   C1014   1.393   1_554 S
C458   C467    1.410   .     A
C459   C461    1.410   .     A
C460   C1019   1.400   .     S
C461   C1018   1.400   1_554 S
C462   C1025   1.400   1_554 S
C463   N483    1.157   .     T
C463   C468    1.456   .     S
C464   N484    1.157   .     T
C464   C469    1.456   .     S
C465   N485    1.157   .     T
C465   C470    1.454   .     S
C466   C471    1.454   .     S
C466   N486    1.157   .     T
C467   C1020   1.400   .     S
C469   C472    1.405   .     A
C469   C533    1.384   .     S
C470   C472    1.408   .     A
C470   C530    1.384   .     S
N481   Zn495   2.011   .     S
N482   Zn496   2.011   .     S
O487   Zn495   1.997   .     S
O488   Zn496   1.997   .     S
O489   Zn495   1.995   .     S
O490   Zn496   1.995   .     S
O491   Zn495   2.003   .     S
O492   Zn496   2.003   .     S
O493   Zn495   2.008   .     S
O494   Zn496   2.008   .     S
Br497  C522    1.936   .     S
Br498  C524    1.936   .     S
Br499  C523    1.937   .     S
Br500  C529    1.937   .     S
C501   O552    1.283   .     A
C501   O549    1.277   .     A
C501   C502    1.418   .     S
C502   C530    1.405   .     A
C502   C533    1.408   .     A
C503   H539    1.082   .     S
C503   N544    1.366   .     A
C504   N543    1.366   .     A
C504   H540    1.082   .     S
C504   C133    1.417   1_565 S
C505   H541    1.081   .     S
C505   N544    1.367   .     A
C506   H542    1.081   .     S
C506   N543    1.367   .     A
C506   C131    1.417   1_565 S
C507   O553    1.283   .     A
C507   O556    1.284   .     A
C507   C513    1.420   .     S
C508   C511    1.420   .     S
C508   O554    1.283   .     A
C508   O555    1.284   .     A
C509   C511    1.383   .     A
C509   H535    1.082   .     S
C509   C520    1.390   .     A
C510   C521    1.390   .     A
C510   C513    1.383   .     A
C510   H536    1.082   .     S
C511   C514    1.384   .     A
C512   O550    1.277   .     A
C512   O551    1.283   .     A
C512   C534    1.418   .     S
C513   C515    1.384   .     A
C514   C516    1.390   .     A
C514   H537    1.079   .     S
C515   H538    1.079   .     S
C515   C517    1.390   .     A
C516   C522    1.411   .     A
C516   C518    1.420   .     A
C517   C524    1.411   .     A
C517   C519    1.420   .     A
C518   C520    1.421   .     A
C518   C1077   1.393   .     S
C519   C521    1.421   .     A
C519   C1076   1.393   1_554 S
C520   C529    1.410   .     A
C521   C523    1.410   .     A
C522   C1081   1.400   .     S
C523   C1080   1.400   1_554 S
C524   C1087   1.400   1_554 S
C525   N545    1.157   .     T
C525   C530    1.456   .     S
C526   N546    1.157   .     T
C526   C531    1.456   .     S
C527   N547    1.157   .     T
C527   C532    1.454   .     S
C528   C533    1.454   .     S
C528   N548    1.157   .     T
C529   C1082   1.400   .     S
C531   C534    1.405   .     A
C531   C409    1.384   1_655 S
C532   C534    1.408   .     A
C532   C406    1.384   1_655 S
N543   Zn557   2.011   .     S
N544   Zn558   2.011   .     S
O549   Zn557   1.997   .     S
O550   Zn558   1.997   .     S
O551   Zn557   1.995   .     S
O552   Zn558   1.995   .     S
O553   Zn557   2.003   .     S
O554   Zn558   2.003   .     S
O555   Zn557   2.008   .     S
O556   Zn558   2.008   .     S
Br559  C584    1.936   .     S
Br560  C586    1.936   .     S
Br561  C585    1.937   .     S
Br562  C591    1.937   .     S
C563   O614    1.283   .     A
C563   O611    1.277   .     A
C563   C564    1.418   .     S
C564   C592    1.405   .     A
C564   C595    1.408   .     A
C565   H601    1.082   .     S
C565   N606    1.366   .     A
C565   C940    1.417   1_545 S
C566   N605    1.366   .     A
C566   H602    1.082   .     S
C566   C753    1.417   .     S
C567   H603    1.081   .     S
C567   N606    1.367   .     A
C567   C938    1.417   1_545 S
C568   H604    1.081   .     S
C568   N605    1.367   .     A
C568   C751    1.417   .     S
C569   O615    1.283   .     A
C569   O618    1.284   .     A
C569   C575    1.420   .     S
C570   C573    1.420   .     S
C570   O616    1.283   .     A
C570   O617    1.284   .     A
C571   C573    1.383   .     A
C571   H597    1.082   .     S
C571   C582    1.390   .     A
C572   C583    1.390   .     A
C572   C575    1.383   .     A
C572   H598    1.082   .     S
C573   C576    1.384   .     A
C574   O612    1.277   .     A
C574   O613    1.283   .     A
C574   C596    1.418   .     S
C575   C577    1.384   .     A
C576   C578    1.390   .     A
C576   H599    1.079   .     S
C577   H600    1.079   .     S
C577   C579    1.390   .     A
C578   C584    1.411   .     A
C578   C580    1.420   .     A
C579   C586    1.411   .     A
C579   C581    1.420   .     A
C580   C582    1.421   .     A
C580   C23     1.393   1_556 S
C581   C583    1.421   .     A
C582   C591    1.410   .     A
C583   C585    1.410   .     A
C584   C27     1.400   1_556 S
C587   N607    1.157   .     T
C587   C592    1.456   .     S
C588   N608    1.157   .     T
C588   C593    1.456   .     S
C589   N609    1.157   .     T
C589   C594    1.454   .     S
C590   C595    1.454   .     S
C590   N610    1.157   .     T
C591   C28     1.400   1_556 S
C592   C718    1.384   1_455 S
C593   C596    1.405   .     A
C593   C657    1.384   .     S
C594   C596    1.408   .     A
C594   C654    1.384   .     S
C595   C717    1.384   1_455 S
N605   Zn619   2.011   .     S
N606   Zn620   2.011   .     S
O611   Zn619   1.997   .     S
O612   Zn620   1.997   .     S
O613   Zn619   1.995   .     S
O614   Zn620   1.995   .     S
O615   Zn619   2.003   .     S
O616   Zn620   2.003   .     S
O617   Zn619   2.008   .     S
O618   Zn620   2.008   .     S
Br621  C646    1.936   .     S
Br622  C648    1.936   .     S
Br623  C647    1.937   .     S
Br624  C653    1.937   .     S
C625   O676    1.283   .     A
C625   O673    1.277   .     A
C625   C626    1.418   .     S
C626   C654    1.405   .     A
C626   C657    1.408   .     A
C627   H663    1.082   .     S
C627   N668    1.366   .     A
C627   C1002   1.417   1_545 S
C628   N667    1.366   .     A
C628   H664    1.082   .     S
C628   C815    1.417   .     S
C629   H665    1.081   .     S
C629   N668    1.367   .     A
C629   C1000   1.417   1_545 S
C630   H666    1.081   .     S
C630   N667    1.367   .     A
C630   C813    1.417   .     S
C631   O677    1.283   .     A
C631   O680    1.284   .     A
C631   C637    1.420   .     S
C632   C635    1.420   .     S
C632   O678    1.283   .     A
C632   O679    1.284   .     A
C633   C635    1.383   .     A
C633   H659    1.082   .     S
C633   C644    1.390   .     A
C634   C645    1.390   .     A
C634   C637    1.383   .     A
C634   H660    1.082   .     S
C635   C638    1.384   .     A
C636   O674    1.277   .     A
C636   O675    1.283   .     A
C636   C658    1.418   .     S
C637   C639    1.384   .     A
C638   C640    1.390   .     A
C638   H661    1.079   .     S
C639   H662    1.079   .     S
C639   C641    1.390   .     A
C640   C646    1.411   .     A
C640   C642    1.420   .     A
C641   C648    1.411   .     A
C641   C643    1.420   .     A
C642   C644    1.421   .     A
C642   C85     1.393   1_556 S
C643   C645    1.421   .     A
C644   C653    1.410   .     A
C645   C647    1.410   .     A
C646   C89     1.400   1_556 S
C649   N669    1.157   .     T
C649   C654    1.456   .     S
C650   N670    1.157   .     T
C650   C655    1.456   .     S
C651   N671    1.157   .     T
C651   C656    1.454   .     S
C652   C657    1.454   .     S
C652   N672    1.157   .     T
C653   C90     1.400   1_556 S
C655   C658    1.405   .     A
C655   C719    1.384   .     S
C656   C658    1.408   .     A
C656   C716    1.384   .     S
N667   Zn681   2.011   .     S
N668   Zn682   2.011   .     S
O673   Zn681   1.997   .     S
O674   Zn682   1.997   .     S
O675   Zn681   1.995   .     S
O676   Zn682   1.995   .     S
O677   Zn681   2.003   .     S
O678   Zn682   2.003   .     S
O679   Zn681   2.008   .     S
O680   Zn682   2.008   .     S
Br683  C708    1.936   .     S
Br684  C710    1.936   .     S
Br685  C709    1.937   .     S
Br686  C715    1.937   .     S
C687   O738    1.283   .     A
C687   O735    1.277   .     A
C687   C688    1.418   .     S
C688   C716    1.405   .     A
C688   C719    1.408   .     A
C689   H725    1.082   .     S
C689   N730    1.366   .     A
C689   C1064   1.417   1_545 S
C690   N729    1.366   .     A
C690   H726    1.082   .     S
C690   C877    1.417   .     S
C691   H727    1.081   .     S
C691   N730    1.367   .     A
C691   C1062   1.417   1_545 S
C692   H728    1.081   .     S
C692   N729    1.367   .     A
C692   C875    1.417   .     S
C693   O739    1.283   .     A
C693   O742    1.284   .     A
C693   C699    1.420   .     S
C694   C697    1.420   .     S
C694   O740    1.283   .     A
C694   O741    1.284   .     A
C695   C697    1.383   .     A
C695   H721    1.082   .     S
C695   C706    1.390   .     A
C696   C707    1.390   .     A
C696   C699    1.383   .     A
C696   H722    1.082   .     S
C697   C700    1.384   .     A
C698   O736    1.277   .     A
C698   O737    1.283   .     A
C698   C720    1.418   .     S
C699   C701    1.384   .     A
C700   C702    1.390   .     A
C700   H723    1.079   .     S
C701   H724    1.079   .     S
C701   C703    1.390   .     A
C702   C708    1.411   .     A
C702   C704    1.420   .     A
C703   C710    1.411   .     A
C703   C705    1.420   .     A
C704   C706    1.421   .     A
C704   C147    1.393   1_556 S
C705   C707    1.421   .     A
C706   C715    1.410   .     A
C707   C709    1.410   .     A
C708   C151    1.400   1_556 S
C711   N731    1.157   .     T
C711   C716    1.456   .     S
C712   N732    1.157   .     T
C712   C717    1.456   .     S
C713   N733    1.157   .     T
C713   C718    1.454   .     S
C714   C719    1.454   .     S
C714   N734    1.157   .     T
C715   C152    1.400   1_556 S
C717   C720    1.405   .     A
C717   C595    1.384   1_655 S
C718   C720    1.408   .     A
C718   C592    1.384   1_655 S
N729   Zn743   2.011   .     S
N730   Zn744   2.011   .     S
O735   Zn743   1.997   .     S
O736   Zn744   1.997   .     S
O737   Zn743   1.995   .     S
O738   Zn744   1.995   .     S
O739   Zn743   2.003   .     S
O740   Zn744   2.003   .     S
O741   Zn743   2.008   .     S
O742   Zn744   2.008   .     S
Br745  C770    1.936   .     S
Br746  C772    1.936   .     S
Br747  C771    1.937   .     S
Br748  C777    1.937   .     S
C749   O800    1.283   .     A
C749   O797    1.277   .     A
C749   C750    1.418   .     S
C750   C778    1.405   .     A
C750   C781    1.408   .     A
C751   H787    1.082   .     S
C751   N792    1.366   .     A
C752   N791    1.366   .     A
C752   H788    1.082   .     S
C752   C939    1.417   .     S
C753   H789    1.081   .     S
C753   N792    1.367   .     A
C754   H790    1.081   .     S
C754   N791    1.367   .     A
C754   C937    1.417   .     S
C755   O801    1.283   .     A
C755   O804    1.284   .     A
C755   C761    1.420   .     S
C756   C759    1.420   .     S
C756   O802    1.283   .     A
C756   O803    1.284   .     A
C757   C759    1.383   .     A
C757   H783    1.082   .     S
C757   C768    1.390   .     A
C758   C769    1.390   .     A
C758   C761    1.383   .     A
C758   H784    1.082   .     S
C759   C762    1.384   .     A
C760   O798    1.277   .     A
C760   O799    1.283   .     A
C760   C782    1.418   .     S
C761   C763    1.384   .     A
C762   C764    1.390   .     A
C762   H785    1.079   .     S
C763   H786    1.079   .     S
C763   C765    1.390   .     A
C764   C770    1.411   .     A
C764   C766    1.420   .     A
C765   C772    1.411   .     A
C765   C767    1.420   .     A
C766   C768    1.421   .     A
C766   C209    1.393   1_556 S
C767   C769    1.421   .     A
C768   C777    1.410   .     A
C769   C771    1.410   .     A
C770   C213    1.400   1_556 S
C773   N793    1.157   .     T
C773   C778    1.456   .     S
C774   N794    1.157   .     T
C774   C779    1.456   .     S
C775   N795    1.157   .     T
C775   C780    1.454   .     S
C776   C781    1.454   .     S
C776   N796    1.157   .     T
C777   C214    1.400   1_556 S
C778   C904    1.384   1_455 S
C779   C782    1.405   .     A
C779   C843    1.384   .     S
C780   C782    1.408   .     A
C780   C840    1.384   .     S
C781   C903    1.384   1_455 S
N791   Zn805   2.011   .     S
N792   Zn806   2.011   .     S
O797   Zn805   1.997   .     S
O798   Zn806   1.997   .     S
O799   Zn805   1.995   .     S
O800   Zn806   1.995   .     S
O801   Zn805   2.003   .     S
O802   Zn806   2.003   .     S
O803   Zn805   2.008   .     S
O804   Zn806   2.008   .     S
Br807  C832    1.936   .     S
Br808  C834    1.936   .     S
Br809  C833    1.937   .     S
Br810  C839    1.937   .     S
C811   O862    1.283   .     A
C811   O859    1.277   .     A
C811   C812    1.418   .     S
C812   C840    1.405   .     A
C812   C843    1.408   .     A
C813   H849    1.082   .     S
C813   N854    1.366   .     A
C814   N853    1.366   .     A
C814   H850    1.082   .     S
C814   C1001   1.417   .     S
C815   H851    1.081   .     S
C815   N854    1.367   .     A
C816   H852    1.081   .     S
C816   N853    1.367   .     A
C816   C999    1.417   .     S
C817   O863    1.283   .     A
C817   O866    1.284   .     A
C817   C823    1.420   .     S
C818   C821    1.420   .     S
C818   O864    1.283   .     A
C818   O865    1.284   .     A
C819   C821    1.383   .     A
C819   H845    1.082   .     S
C819   C830    1.390   .     A
C820   C831    1.390   .     A
C820   C823    1.383   .     A
C820   H846    1.082   .     S
C821   C824    1.384   .     A
C822   O860    1.277   .     A
C822   O861    1.283   .     A
C822   C844    1.418   .     S
C823   C825    1.384   .     A
C824   C826    1.390   .     A
C824   H847    1.079   .     S
C825   H848    1.079   .     S
C825   C827    1.390   .     A
C826   C832    1.411   .     A
C826   C828    1.420   .     A
C827   C834    1.411   .     A
C827   C829    1.420   .     A
C828   C830    1.421   .     A
C828   C271    1.393   1_556 S
C829   C831    1.421   .     A
C830   C839    1.410   .     A
C831   C833    1.410   .     A
C832   C275    1.400   1_556 S
C835   N855    1.157   .     T
C835   C840    1.456   .     S
C836   N856    1.157   .     T
C836   C841    1.456   .     S
C837   N857    1.157   .     T
C837   C842    1.454   .     S
C838   C843    1.454   .     S
C838   N858    1.157   .     T
C839   C276    1.400   1_556 S
C841   C844    1.405   .     A
C841   C905    1.384   .     S
C842   C844    1.408   .     A
C842   C902    1.384   .     S
N853   Zn867   2.011   .     S
N854   Zn868   2.011   .     S
O859   Zn867   1.997   .     S
O860   Zn868   1.997   .     S
O861   Zn867   1.995   .     S
O862   Zn868   1.995   .     S
O863   Zn867   2.003   .     S
O864   Zn868   2.003   .     S
O865   Zn867   2.008   .     S
O866   Zn868   2.008   .     S
Br869  C894    1.936   .     S
Br870  C896    1.936   .     S
Br871  C895    1.937   .     S
Br872  C901    1.937   .     S
C873   O924    1.283   .     A
C873   O921    1.277   .     A
C873   C874    1.418   .     S
C874   C902    1.405   .     A
C874   C905    1.408   .     A
C875   H911    1.082   .     S
C875   N916    1.366   .     A
C876   N915    1.366   .     A
C876   H912    1.082   .     S
C876   C1063   1.417   .     S
C877   H913    1.081   .     S
C877   N916    1.367   .     A
C878   H914    1.081   .     S
C878   N915    1.367   .     A
C878   C1061   1.417   .     S
C879   O925    1.283   .     A
C879   O928    1.284   .     A
C879   C885    1.420   .     S
C880   C883    1.420   .     S
C880   O926    1.283   .     A
C880   O927    1.284   .     A
C881   C883    1.383   .     A
C881   H907    1.082   .     S
C881   C892    1.390   .     A
C882   C893    1.390   .     A
C882   C885    1.383   .     A
C882   H908    1.082   .     S
C883   C886    1.384   .     A
C884   O922    1.277   .     A
C884   O923    1.283   .     A
C884   C906    1.418   .     S
C885   C887    1.384   .     A
C886   C888    1.390   .     A
C886   H909    1.079   .     S
C887   H910    1.079   .     S
C887   C889    1.390   .     A
C888   C894    1.411   .     A
C888   C890    1.420   .     A
C889   C896    1.411   .     A
C889   C891    1.420   .     A
C890   C892    1.421   .     A
C890   C333    1.393   1_556 S
C891   C893    1.421   .     A
C892   C901    1.410   .     A
C893   C895    1.410   .     A
C894   C337    1.400   1_556 S
C897   N917    1.157   .     T
C897   C902    1.456   .     S
C898   N918    1.157   .     T
C898   C903    1.456   .     S
C899   N919    1.157   .     T
C899   C904    1.454   .     S
C900   C905    1.454   .     S
C900   N920    1.157   .     T
C901   C338    1.400   1_556 S
C903   C906    1.405   .     A
C903   C781    1.384   1_655 S
C904   C906    1.408   .     A
C904   C778    1.384   1_655 S
N915   Zn929   2.011   .     S
N916   Zn930   2.011   .     S
O921   Zn929   1.997   .     S
O922   Zn930   1.997   .     S
O923   Zn929   1.995   .     S
O924   Zn930   1.995   .     S
O925   Zn929   2.003   .     S
O926   Zn930   2.003   .     S
O927   Zn929   2.008   .     S
O928   Zn930   2.008   .     S
Br931  C956    1.936   .     S
Br932  C958    1.936   .     S
Br933  C957    1.937   .     S
Br934  C963    1.937   .     S
C935   O986    1.283   .     A
C935   O983    1.277   .     A
C935   C936    1.418   .     S
C936   C964    1.405   .     A
C936   C967    1.408   .     A
C937   H973    1.082   .     S
C937   N978    1.366   .     A
C938   N977    1.366   .     A
C938   H974    1.082   .     S
C938   C567    1.417   1_565 S
C939   H975    1.081   .     S
C939   N978    1.367   .     A
C940   H976    1.081   .     S
C940   N977    1.367   .     A
C940   C565    1.417   1_565 S
C941   O987    1.283   .     A
C941   O990    1.284   .     A
C941   C947    1.420   .     S
C942   C945    1.420   .     S
C942   O988    1.283   .     A
C942   O989    1.284   .     A
C943   C945    1.383   .     A
C943   H969    1.082   .     S
C943   C954    1.390   .     A
C944   C955    1.390   .     A
C944   C947    1.383   .     A
C944   H970    1.082   .     S
C945   C948    1.384   .     A
C946   O984    1.277   .     A
C946   O985    1.283   .     A
C946   C968    1.418   .     S
C947   C949    1.384   .     A
C948   C950    1.390   .     A
C948   H971    1.079   .     S
C949   H972    1.079   .     S
C949   C951    1.390   .     A
C950   C956    1.411   .     A
C950   C952    1.420   .     A
C951   C958    1.411   .     A
C951   C953    1.420   .     A
C952   C954    1.421   .     A
C952   C395    1.393   1_556 S
C953   C955    1.421   .     A
C954   C963    1.410   .     A
C955   C957    1.410   .     A
C956   C399    1.400   1_556 S
C959   N979    1.157   .     T
C959   C964    1.456   .     S
C960   N980    1.157   .     T
C960   C965    1.456   .     S
C961   N981    1.157   .     T
C961   C966    1.454   .     S
C962   C967    1.454   .     S
C962   N982    1.157   .     T
C963   C400    1.400   1_556 S
C964   C1090   1.384   1_455 S
C965   C968    1.405   .     A
C965   C1029   1.384   .     S
C966   C968    1.408   .     A
C966   C1026   1.384   .     S
C967   C1089   1.384   1_455 S
N977   Zn991   2.011   .     S
N978   Zn992   2.011   .     S
O983   Zn991   1.997   .     S
O984   Zn992   1.997   .     S
O985   Zn991   1.995   .     S
O986   Zn992   1.995   .     S
O987   Zn991   2.003   .     S
O988   Zn992   2.003   .     S
O989   Zn991   2.008   .     S
O990   Zn992   2.008   .     S
Br993  C1018   1.936   .     S
Br994  C1020   1.936   .     S
Br995  C1019   1.937   .     S
Br996  C1025   1.937   .     S
C997   O1048   1.283   .     A
C997   O1045   1.277   .     A
C997   C998    1.418   .     S
C998   C1026   1.405   .     A
C998   C1029   1.408   .     A
C999   H1035   1.082   .     S
C999   N1040   1.366   .     A
C1000  N1039   1.366   .     A
C1000  H1036   1.082   .     S
C1000  C629    1.417   1_565 S
C1001  H1037   1.081   .     S
C1001  N1040   1.367   .     A
C1002  H1038   1.081   .     S
C1002  N1039   1.367   .     A
C1002  C627    1.417   1_565 S
C1003  O1049   1.283   .     A
C1003  O1052   1.284   .     A
C1003  C1009   1.420   .     S
C1004  C1007   1.420   .     S
C1004  O1050   1.283   .     A
C1004  O1051   1.284   .     A
C1005  C1007   1.383   .     A
C1005  H1031   1.082   .     S
C1005  C1016   1.390   .     A
C1006  C1017   1.390   .     A
C1006  C1009   1.383   .     A
C1006  H1032   1.082   .     S
C1007  C1010   1.384   .     A
C1008  O1046   1.277   .     A
C1008  O1047   1.283   .     A
C1008  C1030   1.418   .     S
C1009  C1011   1.384   .     A
C1010  C1012   1.390   .     A
C1010  H1033   1.079   .     S
C1011  H1034   1.079   .     S
C1011  C1013   1.390   .     A
C1012  C1018   1.411   .     A
C1012  C1014   1.420   .     A
C1013  C1020   1.411   .     A
C1013  C1015   1.420   .     A
C1014  C1016   1.421   .     A
C1014  C457    1.393   1_556 S
C1015  C1017   1.421   .     A
C1016  C1025   1.410   .     A
C1017  C1019   1.410   .     A
C1018  C461    1.400   1_556 S
C1021  N1041   1.157   .     T
C1021  C1026   1.456   .     S
C1022  N1042   1.157   .     T
C1022  C1027   1.456   .     S
C1023  N1043   1.157   .     T
C1023  C1028   1.454   .     S
C1024  C1029   1.454   .     S
C1024  N1044   1.157   .     T
C1025  C462    1.400   1_556 S
C1027  C1030   1.405   .     A
C1027  C1091   1.384   .     S
C1028  C1030   1.408   .     A
C1028  C1088   1.384   .     S
N1039  Zn1053  2.011   .     S
N1040  Zn1054  2.011   .     S
O1045  Zn1053  1.997   .     S
O1046  Zn1054  1.997   .     S
O1047  Zn1053  1.995   .     S
O1048  Zn1054  1.995   .     S
O1049  Zn1053  2.003   .     S
O1050  Zn1054  2.003   .     S
O1051  Zn1053  2.008   .     S
O1052  Zn1054  2.008   .     S
Br1055 C1080   1.936   .     S
Br1056 C1082   1.936   .     S
Br1057 C1081   1.937   .     S
Br1058 C1087   1.937   .     S
C1059  O1110   1.283   .     A
C1059  O1107   1.277   .     A
C1059  C1060   1.418   .     S
C1060  C1088   1.405   .     A
C1060  C1091   1.408   .     A
C1061  H1097   1.082   .     S
C1061  N1102   1.366   .     A
C1062  N1101   1.366   .     A
C1062  H1098   1.082   .     S
C1062  C691    1.417   1_565 S
C1063  H1099   1.081   .     S
C1063  N1102   1.367   .     A
C1064  H1100   1.081   .     S
C1064  N1101   1.367   .     A
C1064  C689    1.417   1_565 S
C1065  O1111   1.283   .     A
C1065  O1114   1.284   .     A
C1065  C1071   1.420   .     S
C1066  C1069   1.420   .     S
C1066  O1112   1.283   .     A
C1066  O1113   1.284   .     A
C1067  C1069   1.383   .     A
C1067  H1093   1.082   .     S
C1067  C1078   1.390   .     A
C1068  C1079   1.390   .     A
C1068  C1071   1.383   .     A
C1068  H1094   1.082   .     S
C1069  C1072   1.384   .     A
C1070  O1108   1.277   .     A
C1070  O1109   1.283   .     A
C1070  C1092   1.418   .     S
C1071  C1073   1.384   .     A
C1072  C1074   1.390   .     A
C1072  H1095   1.079   .     S
C1073  H1096   1.079   .     S
C1073  C1075   1.390   .     A
C1074  C1080   1.411   .     A
C1074  C1076   1.420   .     A
C1075  C1082   1.411   .     A
C1075  C1077   1.420   .     A
C1076  C1078   1.421   .     A
C1076  C519    1.393   1_556 S
C1077  C1079   1.421   .     A
C1078  C1087   1.410   .     A
C1079  C1081   1.410   .     A
C1080  C523    1.400   1_556 S
C1083  N1103   1.157   .     T
C1083  C1088   1.456   .     S
C1084  N1104   1.157   .     T
C1084  C1089   1.456   .     S
C1085  N1105   1.157   .     T
C1085  C1090   1.454   .     S
C1086  C1091   1.454   .     S
C1086  N1106   1.157   .     T
C1087  C524    1.400   1_556 S
C1089  C1092   1.405   .     A
C1089  C967    1.384   1_655 S
C1090  C1092   1.408   .     A
C1090  C964    1.384   1_655 S
N1101  Zn1115  2.011   .     S
N1102  Zn1116  2.011   .     S
O1107  Zn1115  1.997   .     S
O1108  Zn1116  1.997   .     S
O1109  Zn1115  1.995   .     S
O1110  Zn1116  1.995   .     S
O1111  Zn1115  2.003   .     S
O1112  Zn1116  2.003   .     S
O1113  Zn1115  2.008   .     S
O1114  Zn1116  2.008   .     S
