data_str_m3_o1_o10_pcu_sym.183
_audit_creation_date              2020-01-03
_audit_creation_method            'Materials Studio'
_symmetry_space_group_name_H-M    'P1'
_symmetry_Int_Tables_number       1
_symmetry_cell_setting            triclinic
loop_
_symmetry_equiv_pos_as_xyz
  x,y,z
_cell_length_a                    25.7803
_cell_length_b                    32.1849
_cell_length_c                    29.5602
_cell_angle_alpha                 90.0011
_cell_angle_beta                  98.6458
_cell_angle_gamma                 90.2134
loop_
_atom_site_label
_atom_site_type_symbol
_atom_site_fract_x
_atom_site_fract_y
_atom_site_fract_z
_atom_site_U_iso_or_equiv
_atom_site_adp_type
_atom_site_occupancy
C1     C     0.16662   0.08663   0.16664   0.00000  Uiso   1.00
C2     C     0.16672   0.24670   0.16669   0.00000  Uiso   1.00
C3     C     0.06704   0.16665   0.15469   0.00000  Uiso   1.00
C4     C     0.26629   0.16668   0.17864   0.00000  Uiso   1.00
C5     C     0.01200   0.16668   0.14825   0.00000  Uiso   1.00
C6     C     0.32134   0.16665   0.18508   0.00000  Uiso   1.00
C7     C     0.16725   0.02127   0.12548   0.00000  Uiso   1.00
C8     C     0.16608   0.31206   0.20785   0.00000  Uiso   1.00
C9     C     0.16733   0.31205   0.12550   0.00000  Uiso   1.00
C10    C     0.16600   0.02128   0.20783   0.00000  Uiso   1.00
C11    C     0.16673   0.29086   0.16669   0.00000  Uiso   1.00
C12    C     0.16660   0.04247   0.16665   0.00000  Uiso   1.00
C13    C     0.19899   0.19281   0.02819   0.00000  Uiso   1.00
C14    C     0.13434   0.14052   0.30514   0.00000  Uiso   1.00
C15    C     0.19898   0.19280   0.31358   0.00000  Uiso   1.00
C16    C     0.13435   0.14054   0.01975   0.00000  Uiso   1.00
H17    H     0.32470   0.16673   0.11332   0.00000  Uiso   1.00
H18    H     0.00863   0.16660   0.22001   0.00000  Uiso   1.00
H19    H     0.16773   0.03740   0.09337   0.00000  Uiso   1.00
H20    H     0.16560   0.29593   0.23997   0.00000  Uiso   1.00
H21    H     0.16788   0.29592   0.09340   0.00000  Uiso   1.00
H22    H     0.16545   0.03741   0.23993   0.00000  Uiso   1.00
N23    N     0.16665   0.16666   0.28573   0.00000  Uiso   1.00
N24    N     0.16668   0.16668   0.04760   0.00000  Uiso   1.00
O25    O     0.16666   0.10558   0.20487   0.00000  Uiso   1.00
O26    O     0.16667   0.22775   0.12846   0.00000  Uiso   1.00
O27    O     0.16666   0.10559   0.12843   0.00000  Uiso   1.00
O28    O     0.16667   0.22774   0.20490   0.00000  Uiso   1.00
O29    O     0.09058   0.16666   0.19595   0.00000  Uiso   1.00
O30    O     0.24275   0.16667   0.13739   0.00000  Uiso   1.00
O31    O     0.09058   0.16667   0.11950   0.00000  Uiso   1.00
O32    O     0.24275   0.16666   0.21383   0.00000  Uiso   1.00
Zn33   Zn    0.16667   0.16666   0.21771   0.00000  Uiso   1.00
Zn34   Zn    0.16667   0.16667   0.11563   0.00000  Uiso   1.00
F35    F     0.23140   0.21903   0.05508   0.00000  Uiso   1.00
F36    F     0.10193   0.11431   0.27825   0.00000  Uiso   1.00
F37    F     0.23139   0.21897   0.29514   0.00000  Uiso   1.00
F38    F     0.10194   0.11436   0.03819   0.00000  Uiso   1.00
C39    C     0.49995   0.08663   0.16664   0.00000  Uiso   1.00
C40    C     0.50005   0.24670   0.16669   0.00000  Uiso   1.00
C41    C     0.40037   0.16665   0.15469   0.00000  Uiso   1.00
C42    C     0.59963   0.16668   0.17864   0.00000  Uiso   1.00
C43    C     0.34533   0.16668   0.14825   0.00000  Uiso   1.00
C44    C     0.65467   0.16665   0.18508   0.00000  Uiso   1.00
C45    C     0.50059   0.02127   0.12548   0.00000  Uiso   1.00
C46    C     0.49941   0.31206   0.20785   0.00000  Uiso   1.00
C47    C     0.50067   0.31205   0.12550   0.00000  Uiso   1.00
C48    C     0.49933   0.02128   0.20783   0.00000  Uiso   1.00
C49    C     0.50006   0.29086   0.16669   0.00000  Uiso   1.00
C50    C     0.49994   0.04247   0.16665   0.00000  Uiso   1.00
C51    C     0.53233   0.19281   0.02819   0.00000  Uiso   1.00
C52    C     0.46767   0.14052   0.30514   0.00000  Uiso   1.00
C53    C     0.53231   0.19280   0.31358   0.00000  Uiso   1.00
C54    C     0.46769   0.14054   0.01975   0.00000  Uiso   1.00
H55    H     0.65804   0.16673   0.11332   0.00000  Uiso   1.00
H56    H     0.34196   0.16660   0.22001   0.00000  Uiso   1.00
H57    H     0.50106   0.03740   0.09337   0.00000  Uiso   1.00
H58    H     0.49894   0.29593   0.23997   0.00000  Uiso   1.00
H59    H     0.50121   0.29592   0.09340   0.00000  Uiso   1.00
H60    H     0.49879   0.03741   0.23993   0.00000  Uiso   1.00
N61    N     0.49999   0.16666   0.28573   0.00000  Uiso   1.00
N62    N     0.50001   0.16668   0.04760   0.00000  Uiso   1.00
O63    O     0.50000   0.10558   0.20487   0.00000  Uiso   1.00
O64    O     0.50000   0.22775   0.12846   0.00000  Uiso   1.00
O65    O     0.50000   0.10559   0.12843   0.00000  Uiso   1.00
O66    O     0.50000   0.22774   0.20490   0.00000  Uiso   1.00
O67    O     0.42392   0.16666   0.19595   0.00000  Uiso   1.00
O68    O     0.57608   0.16667   0.13739   0.00000  Uiso   1.00
O69    O     0.42392   0.16667   0.11950   0.00000  Uiso   1.00
O70    O     0.57608   0.16666   0.21383   0.00000  Uiso   1.00
Zn71   Zn    0.50000   0.16666   0.21771   0.00000  Uiso   1.00
Zn72   Zn    0.50000   0.16667   0.11563   0.00000  Uiso   1.00
F73    F     0.56473   0.21903   0.05508   0.00000  Uiso   1.00
F74    F     0.43527   0.11431   0.27825   0.00000  Uiso   1.00
F75    F     0.56473   0.21897   0.29514   0.00000  Uiso   1.00
F76    F     0.43527   0.11436   0.03819   0.00000  Uiso   1.00
C77    C     0.83328   0.08663   0.16664   0.00000  Uiso   1.00
C78    C     0.83338   0.24670   0.16669   0.00000  Uiso   1.00
C79    C     0.73371   0.16665   0.15469   0.00000  Uiso   1.00
C80    C     0.93296   0.16668   0.17864   0.00000  Uiso   1.00
C81    C     0.67866   0.16668   0.14825   0.00000  Uiso   1.00
C82    C     0.98800   0.16665   0.18508   0.00000  Uiso   1.00
C83    C     0.83392   0.02127   0.12548   0.00000  Uiso   1.00
C84    C     0.83275   0.31206   0.20785   0.00000  Uiso   1.00
C85    C     0.83400   0.31205   0.12550   0.00000  Uiso   1.00
C86    C     0.83267   0.02128   0.20783   0.00000  Uiso   1.00
C87    C     0.83340   0.29086   0.16669   0.00000  Uiso   1.00
C88    C     0.83327   0.04247   0.16665   0.00000  Uiso   1.00
C89    C     0.86566   0.19281   0.02819   0.00000  Uiso   1.00
C90    C     0.80101   0.14052   0.30514   0.00000  Uiso   1.00
C91    C     0.86565   0.19280   0.31358   0.00000  Uiso   1.00
C92    C     0.80102   0.14054   0.01975   0.00000  Uiso   1.00
H93    H     0.99137   0.16673   0.11332   0.00000  Uiso   1.00
H94    H     0.67530   0.16660   0.22001   0.00000  Uiso   1.00
H95    H     0.83440   0.03740   0.09337   0.00000  Uiso   1.00
H96    H     0.83227   0.29593   0.23997   0.00000  Uiso   1.00
H97    H     0.83455   0.29592   0.09340   0.00000  Uiso   1.00
H98    H     0.83212   0.03741   0.23993   0.00000  Uiso   1.00
N99    N     0.83332   0.16666   0.28573   0.00000  Uiso   1.00
N100   N     0.83335   0.16668   0.04760   0.00000  Uiso   1.00
O101   O     0.83333   0.10558   0.20487   0.00000  Uiso   1.00
O102   O     0.83334   0.22775   0.12846   0.00000  Uiso   1.00
O103   O     0.83333   0.10559   0.12843   0.00000  Uiso   1.00
O104   O     0.83334   0.22774   0.20490   0.00000  Uiso   1.00
O105   O     0.75725   0.16666   0.19595   0.00000  Uiso   1.00
O106   O     0.90942   0.16667   0.13739   0.00000  Uiso   1.00
O107   O     0.75725   0.16667   0.11950   0.00000  Uiso   1.00
O108   O     0.90942   0.16666   0.21383   0.00000  Uiso   1.00
Zn109  Zn    0.83333   0.16666   0.21771   0.00000  Uiso   1.00
Zn110  Zn    0.83333   0.16667   0.11563   0.00000  Uiso   1.00
F111   F     0.89807   0.21903   0.05508   0.00000  Uiso   1.00
F112   F     0.76860   0.11431   0.27825   0.00000  Uiso   1.00
F113   F     0.89806   0.21897   0.29514   0.00000  Uiso   1.00
F114   F     0.76861   0.11436   0.03819   0.00000  Uiso   1.00
C115   C     0.16662   0.41996   0.16664   0.00000  Uiso   1.00
C116   C     0.16672   0.58004   0.16669   0.00000  Uiso   1.00
C117   C     0.06704   0.49999   0.15469   0.00000  Uiso   1.00
C118   C     0.26629   0.50001   0.17864   0.00000  Uiso   1.00
C119   C     0.01200   0.50001   0.14825   0.00000  Uiso   1.00
C120   C     0.32134   0.49999   0.18508   0.00000  Uiso   1.00
C121   C     0.16725   0.35461   0.12548   0.00000  Uiso   1.00
C122   C     0.16608   0.64539   0.20785   0.00000  Uiso   1.00
C123   C     0.16733   0.64539   0.12550   0.00000  Uiso   1.00
C124   C     0.16600   0.35461   0.20783   0.00000  Uiso   1.00
C125   C     0.16673   0.62420   0.16669   0.00000  Uiso   1.00
C126   C     0.16660   0.37580   0.16665   0.00000  Uiso   1.00
C127   C     0.19899   0.52614   0.02819   0.00000  Uiso   1.00
C128   C     0.13434   0.47386   0.30514   0.00000  Uiso   1.00
C129   C     0.19898   0.52613   0.31358   0.00000  Uiso   1.00
C130   C     0.13435   0.47387   0.01975   0.00000  Uiso   1.00
H131   H     0.32470   0.50007   0.11332   0.00000  Uiso   1.00
H132   H     0.00863   0.49993   0.22001   0.00000  Uiso   1.00
H133   H     0.16773   0.37073   0.09337   0.00000  Uiso   1.00
H134   H     0.16560   0.62927   0.23997   0.00000  Uiso   1.00
H135   H     0.16788   0.62925   0.09340   0.00000  Uiso   1.00
H136   H     0.16545   0.37075   0.23993   0.00000  Uiso   1.00
N137   N     0.16665   0.49999   0.28573   0.00000  Uiso   1.00
N138   N     0.16668   0.50001   0.04760   0.00000  Uiso   1.00
O139   O     0.16666   0.43892   0.20487   0.00000  Uiso   1.00
O140   O     0.16667   0.56108   0.12846   0.00000  Uiso   1.00
O141   O     0.16666   0.43893   0.12843   0.00000  Uiso   1.00
O142   O     0.16667   0.56107   0.20490   0.00000  Uiso   1.00
O143   O     0.09058   0.50000   0.19595   0.00000  Uiso   1.00
O144   O     0.24275   0.50000   0.13739   0.00000  Uiso   1.00
O145   O     0.09058   0.50000   0.11950   0.00000  Uiso   1.00
O146   O     0.24275   0.50000   0.21383   0.00000  Uiso   1.00
Zn147  Zn    0.16667   0.49999   0.21771   0.00000  Uiso   1.00
Zn148  Zn    0.16667   0.50001   0.11563   0.00000  Uiso   1.00
F149   F     0.23140   0.55236   0.05508   0.00000  Uiso   1.00
F150   F     0.10193   0.44764   0.27825   0.00000  Uiso   1.00
F151   F     0.23139   0.55230   0.29514   0.00000  Uiso   1.00
F152   F     0.10194   0.44769   0.03819   0.00000  Uiso   1.00
C153   C     0.49995   0.41996   0.16664   0.00000  Uiso   1.00
C154   C     0.50005   0.58004   0.16669   0.00000  Uiso   1.00
C155   C     0.40037   0.49999   0.15469   0.00000  Uiso   1.00
C156   C     0.59963   0.50001   0.17864   0.00000  Uiso   1.00
C157   C     0.34533   0.50001   0.14825   0.00000  Uiso   1.00
C158   C     0.65467   0.49999   0.18508   0.00000  Uiso   1.00
C159   C     0.50059   0.35461   0.12548   0.00000  Uiso   1.00
C160   C     0.49941   0.64539   0.20785   0.00000  Uiso   1.00
C161   C     0.50067   0.64539   0.12550   0.00000  Uiso   1.00
C162   C     0.49933   0.35461   0.20783   0.00000  Uiso   1.00
C163   C     0.50006   0.62420   0.16669   0.00000  Uiso   1.00
C164   C     0.49994   0.37580   0.16665   0.00000  Uiso   1.00
C165   C     0.53233   0.52614   0.02819   0.00000  Uiso   1.00
C166   C     0.46767   0.47386   0.30514   0.00000  Uiso   1.00
C167   C     0.53231   0.52613   0.31358   0.00000  Uiso   1.00
C168   C     0.46769   0.47387   0.01975   0.00000  Uiso   1.00
H169   H     0.65804   0.50007   0.11332   0.00000  Uiso   1.00
H170   H     0.34196   0.49993   0.22001   0.00000  Uiso   1.00
H171   H     0.50106   0.37073   0.09337   0.00000  Uiso   1.00
H172   H     0.49894   0.62927   0.23997   0.00000  Uiso   1.00
H173   H     0.50121   0.62925   0.09340   0.00000  Uiso   1.00
H174   H     0.49879   0.37075   0.23993   0.00000  Uiso   1.00
N175   N     0.49999   0.49999   0.28573   0.00000  Uiso   1.00
N176   N     0.50001   0.50001   0.04760   0.00000  Uiso   1.00
O177   O     0.50000   0.43892   0.20487   0.00000  Uiso   1.00
O178   O     0.50000   0.56108   0.12846   0.00000  Uiso   1.00
O179   O     0.50000   0.43893   0.12843   0.00000  Uiso   1.00
O180   O     0.50000   0.56107   0.20490   0.00000  Uiso   1.00
O181   O     0.42392   0.50000   0.19595   0.00000  Uiso   1.00
O182   O     0.57608   0.50000   0.13739   0.00000  Uiso   1.00
O183   O     0.42392   0.50000   0.11950   0.00000  Uiso   1.00
O184   O     0.57608   0.50000   0.21383   0.00000  Uiso   1.00
Zn185  Zn    0.50000   0.49999   0.21771   0.00000  Uiso   1.00
Zn186  Zn    0.50000   0.50001   0.11563   0.00000  Uiso   1.00
F187   F     0.56473   0.55236   0.05508   0.00000  Uiso   1.00
F188   F     0.43527   0.44764   0.27825   0.00000  Uiso   1.00
F189   F     0.56473   0.55230   0.29514   0.00000  Uiso   1.00
F190   F     0.43527   0.44769   0.03819   0.00000  Uiso   1.00
C191   C     0.83328   0.41996   0.16664   0.00000  Uiso   1.00
C192   C     0.83338   0.58004   0.16669   0.00000  Uiso   1.00
C193   C     0.73371   0.49999   0.15469   0.00000  Uiso   1.00
C194   C     0.93296   0.50001   0.17864   0.00000  Uiso   1.00
C195   C     0.67866   0.50001   0.14825   0.00000  Uiso   1.00
C196   C     0.98800   0.49999   0.18508   0.00000  Uiso   1.00
C197   C     0.83392   0.35461   0.12548   0.00000  Uiso   1.00
C198   C     0.83275   0.64539   0.20785   0.00000  Uiso   1.00
C199   C     0.83400   0.64539   0.12550   0.00000  Uiso   1.00
C200   C     0.83267   0.35461   0.20783   0.00000  Uiso   1.00
C201   C     0.83340   0.62420   0.16669   0.00000  Uiso   1.00
C202   C     0.83327   0.37580   0.16665   0.00000  Uiso   1.00
C203   C     0.86566   0.52614   0.02819   0.00000  Uiso   1.00
C204   C     0.80101   0.47386   0.30514   0.00000  Uiso   1.00
C205   C     0.86565   0.52613   0.31358   0.00000  Uiso   1.00
C206   C     0.80102   0.47387   0.01975   0.00000  Uiso   1.00
H207   H     0.99137   0.50007   0.11332   0.00000  Uiso   1.00
H208   H     0.67530   0.49993   0.22001   0.00000  Uiso   1.00
H209   H     0.83440   0.37073   0.09337   0.00000  Uiso   1.00
H210   H     0.83227   0.62927   0.23997   0.00000  Uiso   1.00
H211   H     0.83455   0.62925   0.09340   0.00000  Uiso   1.00
H212   H     0.83212   0.37075   0.23993   0.00000  Uiso   1.00
N213   N     0.83332   0.49999   0.28573   0.00000  Uiso   1.00
N214   N     0.83335   0.50001   0.04760   0.00000  Uiso   1.00
O215   O     0.83333   0.43892   0.20487   0.00000  Uiso   1.00
O216   O     0.83334   0.56108   0.12846   0.00000  Uiso   1.00
O217   O     0.83333   0.43893   0.12843   0.00000  Uiso   1.00
O218   O     0.83334   0.56107   0.20490   0.00000  Uiso   1.00
O219   O     0.75725   0.50000   0.19595   0.00000  Uiso   1.00
O220   O     0.90942   0.50000   0.13739   0.00000  Uiso   1.00
O221   O     0.75725   0.50000   0.11950   0.00000  Uiso   1.00
O222   O     0.90942   0.50000   0.21383   0.00000  Uiso   1.00
Zn223  Zn    0.83333   0.49999   0.21771   0.00000  Uiso   1.00
Zn224  Zn    0.83333   0.50001   0.11563   0.00000  Uiso   1.00
F225   F     0.89807   0.55236   0.05508   0.00000  Uiso   1.00
F226   F     0.76860   0.44764   0.27825   0.00000  Uiso   1.00
F227   F     0.89806   0.55230   0.29514   0.00000  Uiso   1.00
F228   F     0.76861   0.44769   0.03819   0.00000  Uiso   1.00
C229   C     0.16662   0.75330   0.16664   0.00000  Uiso   1.00
C230   C     0.16672   0.91337   0.16669   0.00000  Uiso   1.00
C231   C     0.06704   0.83332   0.15469   0.00000  Uiso   1.00
C232   C     0.26629   0.83335   0.17864   0.00000  Uiso   1.00
C233   C     0.01200   0.83335   0.14825   0.00000  Uiso   1.00
C234   C     0.32134   0.83332   0.18508   0.00000  Uiso   1.00
C235   C     0.16725   0.68794   0.12548   0.00000  Uiso   1.00
C236   C     0.16608   0.97873   0.20785   0.00000  Uiso   1.00
C237   C     0.16733   0.97872   0.12550   0.00000  Uiso   1.00
C238   C     0.16600   0.68795   0.20783   0.00000  Uiso   1.00
C239   C     0.16673   0.95753   0.16669   0.00000  Uiso   1.00
C240   C     0.16660   0.70914   0.16665   0.00000  Uiso   1.00
C241   C     0.19899   0.85948   0.02819   0.00000  Uiso   1.00
C242   C     0.13434   0.80719   0.30514   0.00000  Uiso   1.00
C243   C     0.19898   0.85946   0.31358   0.00000  Uiso   1.00
C244   C     0.13435   0.80720   0.01975   0.00000  Uiso   1.00
H245   H     0.32470   0.83340   0.11332   0.00000  Uiso   1.00
H246   H     0.00863   0.83327   0.22001   0.00000  Uiso   1.00
H247   H     0.16773   0.70407   0.09337   0.00000  Uiso   1.00
H248   H     0.16560   0.96260   0.23997   0.00000  Uiso   1.00
H249   H     0.16788   0.96259   0.09340   0.00000  Uiso   1.00
H250   H     0.16545   0.70408   0.23993   0.00000  Uiso   1.00
N251   N     0.16665   0.83332   0.28573   0.00000  Uiso   1.00
N252   N     0.16668   0.83334   0.04760   0.00000  Uiso   1.00
O253   O     0.16666   0.77225   0.20487   0.00000  Uiso   1.00
O254   O     0.16667   0.89442   0.12846   0.00000  Uiso   1.00
O255   O     0.16666   0.77226   0.12843   0.00000  Uiso   1.00
O256   O     0.16667   0.89441   0.20490   0.00000  Uiso   1.00
O257   O     0.09058   0.83333   0.19595   0.00000  Uiso   1.00
O258   O     0.24275   0.83334   0.13739   0.00000  Uiso   1.00
O259   O     0.09058   0.83334   0.11950   0.00000  Uiso   1.00
O260   O     0.24275   0.83333   0.21383   0.00000  Uiso   1.00
Zn261  Zn    0.16667   0.83333   0.21771   0.00000  Uiso   1.00
Zn262  Zn    0.16667   0.83334   0.11563   0.00000  Uiso   1.00
F263   F     0.23140   0.88569   0.05508   0.00000  Uiso   1.00
F264   F     0.10193   0.78097   0.27825   0.00000  Uiso   1.00
F265   F     0.23139   0.88564   0.29514   0.00000  Uiso   1.00
F266   F     0.10194   0.78103   0.03819   0.00000  Uiso   1.00
C267   C     0.49995   0.75330   0.16664   0.00000  Uiso   1.00
C268   C     0.50005   0.91337   0.16669   0.00000  Uiso   1.00
C269   C     0.40037   0.83332   0.15469   0.00000  Uiso   1.00
C270   C     0.59963   0.83335   0.17864   0.00000  Uiso   1.00
C271   C     0.34533   0.83335   0.14825   0.00000  Uiso   1.00
C272   C     0.65467   0.83332   0.18508   0.00000  Uiso   1.00
C273   C     0.50059   0.68794   0.12548   0.00000  Uiso   1.00
C274   C     0.49941   0.97873   0.20785   0.00000  Uiso   1.00
C275   C     0.50067   0.97872   0.12550   0.00000  Uiso   1.00
C276   C     0.49933   0.68795   0.20783   0.00000  Uiso   1.00
C277   C     0.50006   0.95753   0.16669   0.00000  Uiso   1.00
C278   C     0.49994   0.70914   0.16665   0.00000  Uiso   1.00
C279   C     0.53233   0.85948   0.02819   0.00000  Uiso   1.00
C280   C     0.46767   0.80719   0.30514   0.00000  Uiso   1.00
C281   C     0.53231   0.85946   0.31358   0.00000  Uiso   1.00
C282   C     0.46769   0.80720   0.01975   0.00000  Uiso   1.00
H283   H     0.65804   0.83340   0.11332   0.00000  Uiso   1.00
H284   H     0.34196   0.83327   0.22001   0.00000  Uiso   1.00
H285   H     0.50106   0.70407   0.09337   0.00000  Uiso   1.00
H286   H     0.49894   0.96260   0.23997   0.00000  Uiso   1.00
H287   H     0.50121   0.96259   0.09340   0.00000  Uiso   1.00
H288   H     0.49879   0.70408   0.23993   0.00000  Uiso   1.00
N289   N     0.49999   0.83332   0.28573   0.00000  Uiso   1.00
N290   N     0.50001   0.83334   0.04760   0.00000  Uiso   1.00
O291   O     0.50000   0.77225   0.20487   0.00000  Uiso   1.00
O292   O     0.50000   0.89442   0.12846   0.00000  Uiso   1.00
O293   O     0.50000   0.77226   0.12843   0.00000  Uiso   1.00
O294   O     0.50000   0.89441   0.20490   0.00000  Uiso   1.00
O295   O     0.42392   0.83333   0.19595   0.00000  Uiso   1.00
O296   O     0.57608   0.83334   0.13739   0.00000  Uiso   1.00
O297   O     0.42392   0.83334   0.11950   0.00000  Uiso   1.00
O298   O     0.57608   0.83333   0.21383   0.00000  Uiso   1.00
Zn299  Zn    0.50000   0.83333   0.21771   0.00000  Uiso   1.00
Zn300  Zn    0.50000   0.83334   0.11563   0.00000  Uiso   1.00
F301   F     0.56473   0.88569   0.05508   0.00000  Uiso   1.00
F302   F     0.43527   0.78097   0.27825   0.00000  Uiso   1.00
F303   F     0.56473   0.88564   0.29514   0.00000  Uiso   1.00
F304   F     0.43527   0.78103   0.03819   0.00000  Uiso   1.00
C305   C     0.83328   0.75330   0.16664   0.00000  Uiso   1.00
C306   C     0.83338   0.91337   0.16669   0.00000  Uiso   1.00
C307   C     0.73371   0.83332   0.15469   0.00000  Uiso   1.00
C308   C     0.93296   0.83335   0.17864   0.00000  Uiso   1.00
C309   C     0.67866   0.83335   0.14825   0.00000  Uiso   1.00
C310   C     0.98800   0.83332   0.18508   0.00000  Uiso   1.00
C311   C     0.83392   0.68794   0.12548   0.00000  Uiso   1.00
C312   C     0.83275   0.97873   0.20785   0.00000  Uiso   1.00
C313   C     0.83400   0.97872   0.12550   0.00000  Uiso   1.00
C314   C     0.83267   0.68795   0.20783   0.00000  Uiso   1.00
C315   C     0.83340   0.95753   0.16669   0.00000  Uiso   1.00
C316   C     0.83327   0.70914   0.16665   0.00000  Uiso   1.00
C317   C     0.86566   0.85948   0.02819   0.00000  Uiso   1.00
C318   C     0.80101   0.80719   0.30514   0.00000  Uiso   1.00
C319   C     0.86565   0.85946   0.31358   0.00000  Uiso   1.00
C320   C     0.80102   0.80720   0.01975   0.00000  Uiso   1.00
H321   H     0.99137   0.83340   0.11332   0.00000  Uiso   1.00
H322   H     0.67530   0.83327   0.22001   0.00000  Uiso   1.00
H323   H     0.83440   0.70407   0.09337   0.00000  Uiso   1.00
H324   H     0.83227   0.96260   0.23997   0.00000  Uiso   1.00
H325   H     0.83455   0.96259   0.09340   0.00000  Uiso   1.00
H326   H     0.83212   0.70408   0.23993   0.00000  Uiso   1.00
N327   N     0.83332   0.83332   0.28573   0.00000  Uiso   1.00
N328   N     0.83335   0.83334   0.04760   0.00000  Uiso   1.00
O329   O     0.83333   0.77225   0.20487   0.00000  Uiso   1.00
O330   O     0.83334   0.89442   0.12846   0.00000  Uiso   1.00
O331   O     0.83333   0.77226   0.12843   0.00000  Uiso   1.00
O332   O     0.83334   0.89441   0.20490   0.00000  Uiso   1.00
O333   O     0.75725   0.83333   0.19595   0.00000  Uiso   1.00
O334   O     0.90942   0.83334   0.13739   0.00000  Uiso   1.00
O335   O     0.75725   0.83334   0.11950   0.00000  Uiso   1.00
O336   O     0.90942   0.83333   0.21383   0.00000  Uiso   1.00
Zn337  Zn    0.83333   0.83333   0.21771   0.00000  Uiso   1.00
Zn338  Zn    0.83333   0.83334   0.11563   0.00000  Uiso   1.00
F339   F     0.89807   0.88569   0.05508   0.00000  Uiso   1.00
F340   F     0.76860   0.78097   0.27825   0.00000  Uiso   1.00
F341   F     0.89806   0.88564   0.29514   0.00000  Uiso   1.00
F342   F     0.76861   0.78103   0.03819   0.00000  Uiso   1.00
C343   C     0.16662   0.08663   0.49998   0.00000  Uiso   1.00
C344   C     0.16672   0.24670   0.50002   0.00000  Uiso   1.00
C345   C     0.06704   0.16665   0.48803   0.00000  Uiso   1.00
C346   C     0.26629   0.16668   0.51197   0.00000  Uiso   1.00
C347   C     0.01200   0.16668   0.48159   0.00000  Uiso   1.00
C348   C     0.32134   0.16665   0.51841   0.00000  Uiso   1.00
C349   C     0.16725   0.02127   0.45881   0.00000  Uiso   1.00
C350   C     0.16608   0.31206   0.54119   0.00000  Uiso   1.00
C351   C     0.16733   0.31205   0.45883   0.00000  Uiso   1.00
C352   C     0.16600   0.02128   0.54117   0.00000  Uiso   1.00
C353   C     0.16673   0.29086   0.50002   0.00000  Uiso   1.00
C354   C     0.16660   0.04247   0.49998   0.00000  Uiso   1.00
C355   C     0.19899   0.19281   0.36153   0.00000  Uiso   1.00
C356   C     0.13434   0.14052   0.63847   0.00000  Uiso   1.00
C357   C     0.19898   0.19280   0.64691   0.00000  Uiso   1.00
C358   C     0.13435   0.14054   0.35309   0.00000  Uiso   1.00
H359   H     0.32470   0.16673   0.44666   0.00000  Uiso   1.00
H360   H     0.00863   0.16660   0.55334   0.00000  Uiso   1.00
H361   H     0.16773   0.03740   0.42670   0.00000  Uiso   1.00
H362   H     0.16560   0.29593   0.57330   0.00000  Uiso   1.00
H363   H     0.16788   0.29592   0.42674   0.00000  Uiso   1.00
H364   H     0.16545   0.03741   0.57326   0.00000  Uiso   1.00
N365   N     0.16665   0.16666   0.61907   0.00000  Uiso   1.00
N366   N     0.16668   0.16668   0.38093   0.00000  Uiso   1.00
O367   O     0.16666   0.10558   0.53821   0.00000  Uiso   1.00
O368   O     0.16667   0.22775   0.46179   0.00000  Uiso   1.00
O369   O     0.16666   0.10559   0.46176   0.00000  Uiso   1.00
O370   O     0.16667   0.22774   0.53824   0.00000  Uiso   1.00
O371   O     0.09058   0.16666   0.52928   0.00000  Uiso   1.00
O372   O     0.24275   0.16667   0.47072   0.00000  Uiso   1.00
O373   O     0.09058   0.16667   0.45284   0.00000  Uiso   1.00
O374   O     0.24275   0.16666   0.54716   0.00000  Uiso   1.00
Zn375  Zn    0.16667   0.16666   0.55104   0.00000  Uiso   1.00
Zn376  Zn    0.16667   0.16667   0.44896   0.00000  Uiso   1.00
F377   F     0.23140   0.21903   0.38842   0.00000  Uiso   1.00
F378   F     0.10193   0.11431   0.61158   0.00000  Uiso   1.00
F379   F     0.23139   0.21897   0.62848   0.00000  Uiso   1.00
F380   F     0.10194   0.11436   0.37152   0.00000  Uiso   1.00
C381   C     0.49995   0.08663   0.49998   0.00000  Uiso   1.00
C382   C     0.50005   0.24670   0.50002   0.00000  Uiso   1.00
C383   C     0.40037   0.16665   0.48803   0.00000  Uiso   1.00
C384   C     0.59963   0.16668   0.51197   0.00000  Uiso   1.00
C385   C     0.34533   0.16668   0.48159   0.00000  Uiso   1.00
C386   C     0.65467   0.16665   0.51841   0.00000  Uiso   1.00
C387   C     0.50059   0.02127   0.45881   0.00000  Uiso   1.00
C388   C     0.49941   0.31206   0.54119   0.00000  Uiso   1.00
C389   C     0.50067   0.31205   0.45883   0.00000  Uiso   1.00
C390   C     0.49933   0.02128   0.54117   0.00000  Uiso   1.00
C391   C     0.50006   0.29086   0.50002   0.00000  Uiso   1.00
C392   C     0.49994   0.04247   0.49998   0.00000  Uiso   1.00
C393   C     0.53233   0.19281   0.36153   0.00000  Uiso   1.00
C394   C     0.46767   0.14052   0.63847   0.00000  Uiso   1.00
C395   C     0.53231   0.19280   0.64691   0.00000  Uiso   1.00
C396   C     0.46769   0.14054   0.35309   0.00000  Uiso   1.00
H397   H     0.65804   0.16673   0.44666   0.00000  Uiso   1.00
H398   H     0.34196   0.16660   0.55334   0.00000  Uiso   1.00
H399   H     0.50106   0.03740   0.42670   0.00000  Uiso   1.00
H400   H     0.49894   0.29593   0.57330   0.00000  Uiso   1.00
H401   H     0.50121   0.29592   0.42674   0.00000  Uiso   1.00
H402   H     0.49879   0.03741   0.57326   0.00000  Uiso   1.00
N403   N     0.49999   0.16666   0.61907   0.00000  Uiso   1.00
N404   N     0.50001   0.16668   0.38093   0.00000  Uiso   1.00
O405   O     0.50000   0.10558   0.53821   0.00000  Uiso   1.00
O406   O     0.50000   0.22775   0.46179   0.00000  Uiso   1.00
O407   O     0.50000   0.10559   0.46176   0.00000  Uiso   1.00
O408   O     0.50000   0.22774   0.53824   0.00000  Uiso   1.00
O409   O     0.42392   0.16666   0.52928   0.00000  Uiso   1.00
O410   O     0.57608   0.16667   0.47072   0.00000  Uiso   1.00
O411   O     0.42392   0.16667   0.45284   0.00000  Uiso   1.00
O412   O     0.57608   0.16666   0.54716   0.00000  Uiso   1.00
Zn413  Zn    0.50000   0.16666   0.55104   0.00000  Uiso   1.00
Zn414  Zn    0.50000   0.16667   0.44896   0.00000  Uiso   1.00
F415   F     0.56473   0.21903   0.38842   0.00000  Uiso   1.00
F416   F     0.43527   0.11431   0.61158   0.00000  Uiso   1.00
F417   F     0.56473   0.21897   0.62848   0.00000  Uiso   1.00
F418   F     0.43527   0.11436   0.37152   0.00000  Uiso   1.00
C419   C     0.83328   0.08663   0.49998   0.00000  Uiso   1.00
C420   C     0.83338   0.24670   0.50002   0.00000  Uiso   1.00
C421   C     0.73371   0.16665   0.48803   0.00000  Uiso   1.00
C422   C     0.93296   0.16668   0.51197   0.00000  Uiso   1.00
C423   C     0.67866   0.16668   0.48159   0.00000  Uiso   1.00
C424   C     0.98800   0.16665   0.51841   0.00000  Uiso   1.00
C425   C     0.83392   0.02127   0.45881   0.00000  Uiso   1.00
C426   C     0.83275   0.31206   0.54119   0.00000  Uiso   1.00
C427   C     0.83400   0.31205   0.45883   0.00000  Uiso   1.00
C428   C     0.83267   0.02128   0.54117   0.00000  Uiso   1.00
C429   C     0.83340   0.29086   0.50002   0.00000  Uiso   1.00
C430   C     0.83327   0.04247   0.49998   0.00000  Uiso   1.00
C431   C     0.86566   0.19281   0.36153   0.00000  Uiso   1.00
C432   C     0.80101   0.14052   0.63847   0.00000  Uiso   1.00
C433   C     0.86565   0.19280   0.64691   0.00000  Uiso   1.00
C434   C     0.80102   0.14054   0.35309   0.00000  Uiso   1.00
H435   H     0.99137   0.16673   0.44666   0.00000  Uiso   1.00
H436   H     0.67530   0.16660   0.55334   0.00000  Uiso   1.00
H437   H     0.83440   0.03740   0.42670   0.00000  Uiso   1.00
H438   H     0.83227   0.29593   0.57330   0.00000  Uiso   1.00
H439   H     0.83455   0.29592   0.42674   0.00000  Uiso   1.00
H440   H     0.83212   0.03741   0.57326   0.00000  Uiso   1.00
N441   N     0.83332   0.16666   0.61907   0.00000  Uiso   1.00
N442   N     0.83335   0.16668   0.38093   0.00000  Uiso   1.00
O443   O     0.83333   0.10558   0.53821   0.00000  Uiso   1.00
O444   O     0.83334   0.22775   0.46179   0.00000  Uiso   1.00
O445   O     0.83333   0.10559   0.46176   0.00000  Uiso   1.00
O446   O     0.83334   0.22774   0.53824   0.00000  Uiso   1.00
O447   O     0.75725   0.16666   0.52928   0.00000  Uiso   1.00
O448   O     0.90942   0.16667   0.47072   0.00000  Uiso   1.00
O449   O     0.75725   0.16667   0.45284   0.00000  Uiso   1.00
O450   O     0.90942   0.16666   0.54716   0.00000  Uiso   1.00
Zn451  Zn    0.83333   0.16666   0.55104   0.00000  Uiso   1.00
Zn452  Zn    0.83333   0.16667   0.44896   0.00000  Uiso   1.00
F453   F     0.89807   0.21903   0.38842   0.00000  Uiso   1.00
F454   F     0.76860   0.11431   0.61158   0.00000  Uiso   1.00
F455   F     0.89806   0.21897   0.62848   0.00000  Uiso   1.00
F456   F     0.76861   0.11436   0.37152   0.00000  Uiso   1.00
C457   C     0.16662   0.41996   0.49998   0.00000  Uiso   1.00
C458   C     0.16672   0.58004   0.50002   0.00000  Uiso   1.00
C459   C     0.06704   0.49999   0.48803   0.00000  Uiso   1.00
C460   C     0.26629   0.50001   0.51197   0.00000  Uiso   1.00
C461   C     0.01200   0.50001   0.48159   0.00000  Uiso   1.00
C462   C     0.32134   0.49999   0.51841   0.00000  Uiso   1.00
C463   C     0.16725   0.35461   0.45881   0.00000  Uiso   1.00
C464   C     0.16608   0.64539   0.54119   0.00000  Uiso   1.00
C465   C     0.16733   0.64539   0.45883   0.00000  Uiso   1.00
C466   C     0.16600   0.35461   0.54117   0.00000  Uiso   1.00
C467   C     0.16673   0.62420   0.50002   0.00000  Uiso   1.00
C468   C     0.16660   0.37580   0.49998   0.00000  Uiso   1.00
C469   C     0.19899   0.52614   0.36153   0.00000  Uiso   1.00
C470   C     0.13434   0.47386   0.63847   0.00000  Uiso   1.00
C471   C     0.19898   0.52613   0.64691   0.00000  Uiso   1.00
C472   C     0.13435   0.47387   0.35309   0.00000  Uiso   1.00
H473   H     0.32470   0.50007   0.44666   0.00000  Uiso   1.00
H474   H     0.00863   0.49993   0.55334   0.00000  Uiso   1.00
H475   H     0.16773   0.37073   0.42670   0.00000  Uiso   1.00
H476   H     0.16560   0.62927   0.57330   0.00000  Uiso   1.00
H477   H     0.16788   0.62925   0.42674   0.00000  Uiso   1.00
H478   H     0.16545   0.37075   0.57326   0.00000  Uiso   1.00
N479   N     0.16665   0.49999   0.61907   0.00000  Uiso   1.00
N480   N     0.16668   0.50001   0.38093   0.00000  Uiso   1.00
O481   O     0.16666   0.43892   0.53821   0.00000  Uiso   1.00
O482   O     0.16667   0.56108   0.46179   0.00000  Uiso   1.00
O483   O     0.16666   0.43893   0.46176   0.00000  Uiso   1.00
O484   O     0.16667   0.56107   0.53824   0.00000  Uiso   1.00
O485   O     0.09058   0.50000   0.52928   0.00000  Uiso   1.00
O486   O     0.24275   0.50000   0.47072   0.00000  Uiso   1.00
O487   O     0.09058   0.50000   0.45284   0.00000  Uiso   1.00
O488   O     0.24275   0.50000   0.54716   0.00000  Uiso   1.00
Zn489  Zn    0.16667   0.49999   0.55104   0.00000  Uiso   1.00
Zn490  Zn    0.16667   0.50001   0.44896   0.00000  Uiso   1.00
F491   F     0.23140   0.55236   0.38842   0.00000  Uiso   1.00
F492   F     0.10193   0.44764   0.61158   0.00000  Uiso   1.00
F493   F     0.23139   0.55230   0.62848   0.00000  Uiso   1.00
F494   F     0.10194   0.44769   0.37152   0.00000  Uiso   1.00
C495   C     0.49995   0.41996   0.49998   0.00000  Uiso   1.00
C496   C     0.50005   0.58004   0.50002   0.00000  Uiso   1.00
C497   C     0.40037   0.49999   0.48803   0.00000  Uiso   1.00
C498   C     0.59963   0.50001   0.51197   0.00000  Uiso   1.00
C499   C     0.34533   0.50001   0.48159   0.00000  Uiso   1.00
C500   C     0.65467   0.49999   0.51841   0.00000  Uiso   1.00
C501   C     0.50059   0.35461   0.45881   0.00000  Uiso   1.00
C502   C     0.49941   0.64539   0.54119   0.00000  Uiso   1.00
C503   C     0.50067   0.64539   0.45883   0.00000  Uiso   1.00
C504   C     0.49933   0.35461   0.54117   0.00000  Uiso   1.00
C505   C     0.50006   0.62420   0.50002   0.00000  Uiso   1.00
C506   C     0.49994   0.37580   0.49998   0.00000  Uiso   1.00
C507   C     0.53233   0.52614   0.36153   0.00000  Uiso   1.00
C508   C     0.46767   0.47386   0.63847   0.00000  Uiso   1.00
C509   C     0.53231   0.52613   0.64691   0.00000  Uiso   1.00
C510   C     0.46769   0.47387   0.35309   0.00000  Uiso   1.00
H511   H     0.65804   0.50007   0.44666   0.00000  Uiso   1.00
H512   H     0.34196   0.49993   0.55334   0.00000  Uiso   1.00
H513   H     0.50106   0.37073   0.42670   0.00000  Uiso   1.00
H514   H     0.49894   0.62927   0.57330   0.00000  Uiso   1.00
H515   H     0.50121   0.62925   0.42674   0.00000  Uiso   1.00
H516   H     0.49879   0.37075   0.57326   0.00000  Uiso   1.00
N517   N     0.49999   0.49999   0.61907   0.00000  Uiso   1.00
N518   N     0.50001   0.50001   0.38093   0.00000  Uiso   1.00
O519   O     0.50000   0.43892   0.53821   0.00000  Uiso   1.00
O520   O     0.50000   0.56108   0.46179   0.00000  Uiso   1.00
O521   O     0.50000   0.43893   0.46176   0.00000  Uiso   1.00
O522   O     0.50000   0.56107   0.53824   0.00000  Uiso   1.00
O523   O     0.42392   0.50000   0.52928   0.00000  Uiso   1.00
O524   O     0.57608   0.50000   0.47072   0.00000  Uiso   1.00
O525   O     0.42392   0.50000   0.45284   0.00000  Uiso   1.00
O526   O     0.57608   0.50000   0.54716   0.00000  Uiso   1.00
Zn527  Zn    0.50000   0.49999   0.55104   0.00000  Uiso   1.00
Zn528  Zn    0.50000   0.50001   0.44896   0.00000  Uiso   1.00
F529   F     0.56473   0.55236   0.38842   0.00000  Uiso   1.00
F530   F     0.43527   0.44764   0.61158   0.00000  Uiso   1.00
F531   F     0.56473   0.55230   0.62848   0.00000  Uiso   1.00
F532   F     0.43527   0.44769   0.37152   0.00000  Uiso   1.00
C533   C     0.83328   0.41996   0.49998   0.00000  Uiso   1.00
C534   C     0.83338   0.58004   0.50002   0.00000  Uiso   1.00
C535   C     0.73371   0.49999   0.48803   0.00000  Uiso   1.00
C536   C     0.93296   0.50001   0.51197   0.00000  Uiso   1.00
C537   C     0.67866   0.50001   0.48159   0.00000  Uiso   1.00
C538   C     0.98800   0.49999   0.51841   0.00000  Uiso   1.00
C539   C     0.83392   0.35461   0.45881   0.00000  Uiso   1.00
C540   C     0.83275   0.64539   0.54119   0.00000  Uiso   1.00
C541   C     0.83400   0.64539   0.45883   0.00000  Uiso   1.00
C542   C     0.83267   0.35461   0.54117   0.00000  Uiso   1.00
C543   C     0.83340   0.62420   0.50002   0.00000  Uiso   1.00
C544   C     0.83327   0.37580   0.49998   0.00000  Uiso   1.00
C545   C     0.86566   0.52614   0.36153   0.00000  Uiso   1.00
C546   C     0.80101   0.47386   0.63847   0.00000  Uiso   1.00
C547   C     0.86565   0.52613   0.64691   0.00000  Uiso   1.00
C548   C     0.80102   0.47387   0.35309   0.00000  Uiso   1.00
H549   H     0.99137   0.50007   0.44666   0.00000  Uiso   1.00
H550   H     0.67530   0.49993   0.55334   0.00000  Uiso   1.00
H551   H     0.83440   0.37073   0.42670   0.00000  Uiso   1.00
H552   H     0.83227   0.62927   0.57330   0.00000  Uiso   1.00
H553   H     0.83455   0.62925   0.42674   0.00000  Uiso   1.00
H554   H     0.83212   0.37075   0.57326   0.00000  Uiso   1.00
N555   N     0.83332   0.49999   0.61907   0.00000  Uiso   1.00
N556   N     0.83335   0.50001   0.38093   0.00000  Uiso   1.00
O557   O     0.83333   0.43892   0.53821   0.00000  Uiso   1.00
O558   O     0.83334   0.56108   0.46179   0.00000  Uiso   1.00
O559   O     0.83333   0.43893   0.46176   0.00000  Uiso   1.00
O560   O     0.83334   0.56107   0.53824   0.00000  Uiso   1.00
O561   O     0.75725   0.50000   0.52928   0.00000  Uiso   1.00
O562   O     0.90942   0.50000   0.47072   0.00000  Uiso   1.00
O563   O     0.75725   0.50000   0.45284   0.00000  Uiso   1.00
O564   O     0.90942   0.50000   0.54716   0.00000  Uiso   1.00
Zn565  Zn    0.83333   0.49999   0.55104   0.00000  Uiso   1.00
Zn566  Zn    0.83333   0.50001   0.44896   0.00000  Uiso   1.00
F567   F     0.89807   0.55236   0.38842   0.00000  Uiso   1.00
F568   F     0.76860   0.44764   0.61158   0.00000  Uiso   1.00
F569   F     0.89806   0.55230   0.62848   0.00000  Uiso   1.00
F570   F     0.76861   0.44769   0.37152   0.00000  Uiso   1.00
C571   C     0.16662   0.75330   0.49998   0.00000  Uiso   1.00
C572   C     0.16672   0.91337   0.50002   0.00000  Uiso   1.00
C573   C     0.06704   0.83332   0.48803   0.00000  Uiso   1.00
C574   C     0.26629   0.83335   0.51197   0.00000  Uiso   1.00
C575   C     0.01200   0.83335   0.48159   0.00000  Uiso   1.00
C576   C     0.32134   0.83332   0.51841   0.00000  Uiso   1.00
C577   C     0.16725   0.68794   0.45881   0.00000  Uiso   1.00
C578   C     0.16608   0.97873   0.54119   0.00000  Uiso   1.00
C579   C     0.16733   0.97872   0.45883   0.00000  Uiso   1.00
C580   C     0.16600   0.68795   0.54117   0.00000  Uiso   1.00
C581   C     0.16673   0.95753   0.50002   0.00000  Uiso   1.00
C582   C     0.16660   0.70914   0.49998   0.00000  Uiso   1.00
C583   C     0.19899   0.85948   0.36153   0.00000  Uiso   1.00
C584   C     0.13434   0.80719   0.63847   0.00000  Uiso   1.00
C585   C     0.19898   0.85946   0.64691   0.00000  Uiso   1.00
C586   C     0.13435   0.80720   0.35309   0.00000  Uiso   1.00
H587   H     0.32470   0.83340   0.44666   0.00000  Uiso   1.00
H588   H     0.00863   0.83327   0.55334   0.00000  Uiso   1.00
H589   H     0.16773   0.70407   0.42670   0.00000  Uiso   1.00
H590   H     0.16560   0.96260   0.57330   0.00000  Uiso   1.00
H591   H     0.16788   0.96259   0.42674   0.00000  Uiso   1.00
H592   H     0.16545   0.70408   0.57326   0.00000  Uiso   1.00
N593   N     0.16665   0.83332   0.61907   0.00000  Uiso   1.00
N594   N     0.16668   0.83334   0.38093   0.00000  Uiso   1.00
O595   O     0.16666   0.77225   0.53821   0.00000  Uiso   1.00
O596   O     0.16667   0.89442   0.46179   0.00000  Uiso   1.00
O597   O     0.16666   0.77226   0.46176   0.00000  Uiso   1.00
O598   O     0.16667   0.89441   0.53824   0.00000  Uiso   1.00
O599   O     0.09058   0.83333   0.52928   0.00000  Uiso   1.00
O600   O     0.24275   0.83334   0.47072   0.00000  Uiso   1.00
O601   O     0.09058   0.83334   0.45284   0.00000  Uiso   1.00
O602   O     0.24275   0.83333   0.54716   0.00000  Uiso   1.00
Zn603  Zn    0.16667   0.83333   0.55104   0.00000  Uiso   1.00
Zn604  Zn    0.16667   0.83334   0.44896   0.00000  Uiso   1.00
F605   F     0.23140   0.88569   0.38842   0.00000  Uiso   1.00
F606   F     0.10193   0.78097   0.61158   0.00000  Uiso   1.00
F607   F     0.23139   0.88564   0.62848   0.00000  Uiso   1.00
F608   F     0.10194   0.78103   0.37152   0.00000  Uiso   1.00
C609   C     0.49995   0.75330   0.49998   0.00000  Uiso   1.00
C610   C     0.50005   0.91337   0.50002   0.00000  Uiso   1.00
C611   C     0.40037   0.83332   0.48803   0.00000  Uiso   1.00
C612   C     0.59963   0.83335   0.51197   0.00000  Uiso   1.00
C613   C     0.34533   0.83335   0.48159   0.00000  Uiso   1.00
C614   C     0.65467   0.83332   0.51841   0.00000  Uiso   1.00
C615   C     0.50059   0.68794   0.45881   0.00000  Uiso   1.00
C616   C     0.49941   0.97873   0.54119   0.00000  Uiso   1.00
C617   C     0.50067   0.97872   0.45883   0.00000  Uiso   1.00
C618   C     0.49933   0.68795   0.54117   0.00000  Uiso   1.00
C619   C     0.50006   0.95753   0.50002   0.00000  Uiso   1.00
C620   C     0.49994   0.70914   0.49998   0.00000  Uiso   1.00
C621   C     0.53233   0.85948   0.36153   0.00000  Uiso   1.00
C622   C     0.46767   0.80719   0.63847   0.00000  Uiso   1.00
C623   C     0.53231   0.85946   0.64691   0.00000  Uiso   1.00
C624   C     0.46769   0.80720   0.35309   0.00000  Uiso   1.00
H625   H     0.65804   0.83340   0.44666   0.00000  Uiso   1.00
H626   H     0.34196   0.83327   0.55334   0.00000  Uiso   1.00
H627   H     0.50106   0.70407   0.42670   0.00000  Uiso   1.00
H628   H     0.49894   0.96260   0.57330   0.00000  Uiso   1.00
H629   H     0.50121   0.96259   0.42674   0.00000  Uiso   1.00
H630   H     0.49879   0.70408   0.57326   0.00000  Uiso   1.00
N631   N     0.49999   0.83332   0.61907   0.00000  Uiso   1.00
N632   N     0.50001   0.83334   0.38093   0.00000  Uiso   1.00
O633   O     0.50000   0.77225   0.53821   0.00000  Uiso   1.00
O634   O     0.50000   0.89442   0.46179   0.00000  Uiso   1.00
O635   O     0.50000   0.77226   0.46176   0.00000  Uiso   1.00
O636   O     0.50000   0.89441   0.53824   0.00000  Uiso   1.00
O637   O     0.42392   0.83333   0.52928   0.00000  Uiso   1.00
O638   O     0.57608   0.83334   0.47072   0.00000  Uiso   1.00
O639   O     0.42392   0.83334   0.45284   0.00000  Uiso   1.00
O640   O     0.57608   0.83333   0.54716   0.00000  Uiso   1.00
Zn641  Zn    0.50000   0.83333   0.55104   0.00000  Uiso   1.00
Zn642  Zn    0.50000   0.83334   0.44896   0.00000  Uiso   1.00
F643   F     0.56473   0.88569   0.38842   0.00000  Uiso   1.00
F644   F     0.43527   0.78097   0.61158   0.00000  Uiso   1.00
F645   F     0.56473   0.88564   0.62848   0.00000  Uiso   1.00
F646   F     0.43527   0.78103   0.37152   0.00000  Uiso   1.00
C647   C     0.83328   0.75330   0.49998   0.00000  Uiso   1.00
C648   C     0.83338   0.91337   0.50002   0.00000  Uiso   1.00
C649   C     0.73371   0.83332   0.48803   0.00000  Uiso   1.00
C650   C     0.93296   0.83335   0.51197   0.00000  Uiso   1.00
C651   C     0.67866   0.83335   0.48159   0.00000  Uiso   1.00
C652   C     0.98800   0.83332   0.51841   0.00000  Uiso   1.00
C653   C     0.83392   0.68794   0.45881   0.00000  Uiso   1.00
C654   C     0.83275   0.97873   0.54119   0.00000  Uiso   1.00
C655   C     0.83400   0.97872   0.45883   0.00000  Uiso   1.00
C656   C     0.83267   0.68795   0.54117   0.00000  Uiso   1.00
C657   C     0.83340   0.95753   0.50002   0.00000  Uiso   1.00
C658   C     0.83327   0.70914   0.49998   0.00000  Uiso   1.00
C659   C     0.86566   0.85948   0.36153   0.00000  Uiso   1.00
C660   C     0.80101   0.80719   0.63847   0.00000  Uiso   1.00
C661   C     0.86565   0.85946   0.64691   0.00000  Uiso   1.00
C662   C     0.80102   0.80720   0.35309   0.00000  Uiso   1.00
H663   H     0.99137   0.83340   0.44666   0.00000  Uiso   1.00
H664   H     0.67530   0.83327   0.55334   0.00000  Uiso   1.00
H665   H     0.83440   0.70407   0.42670   0.00000  Uiso   1.00
H666   H     0.83227   0.96260   0.57330   0.00000  Uiso   1.00
H667   H     0.83455   0.96259   0.42674   0.00000  Uiso   1.00
H668   H     0.83212   0.70408   0.57326   0.00000  Uiso   1.00
N669   N     0.83332   0.83332   0.61907   0.00000  Uiso   1.00
N670   N     0.83335   0.83334   0.38093   0.00000  Uiso   1.00
O671   O     0.83333   0.77225   0.53821   0.00000  Uiso   1.00
O672   O     0.83334   0.89442   0.46179   0.00000  Uiso   1.00
O673   O     0.83333   0.77226   0.46176   0.00000  Uiso   1.00
O674   O     0.83334   0.89441   0.53824   0.00000  Uiso   1.00
O675   O     0.75725   0.83333   0.52928   0.00000  Uiso   1.00
O676   O     0.90942   0.83334   0.47072   0.00000  Uiso   1.00
O677   O     0.75725   0.83334   0.45284   0.00000  Uiso   1.00
O678   O     0.90942   0.83333   0.54716   0.00000  Uiso   1.00
Zn679  Zn    0.83333   0.83333   0.55104   0.00000  Uiso   1.00
Zn680  Zn    0.83333   0.83334   0.44896   0.00000  Uiso   1.00
F681   F     0.89807   0.88569   0.38842   0.00000  Uiso   1.00
F682   F     0.76860   0.78097   0.61158   0.00000  Uiso   1.00
F683   F     0.89806   0.88564   0.62848   0.00000  Uiso   1.00
F684   F     0.76861   0.78103   0.37152   0.00000  Uiso   1.00
C685   C     0.16662   0.08663   0.83331   0.00000  Uiso   1.00
C686   C     0.16672   0.24670   0.83336   0.00000  Uiso   1.00
C687   C     0.06704   0.16665   0.82136   0.00000  Uiso   1.00
C688   C     0.26629   0.16668   0.84531   0.00000  Uiso   1.00
C689   C     0.01200   0.16668   0.81492   0.00000  Uiso   1.00
C690   C     0.32134   0.16665   0.85175   0.00000  Uiso   1.00
C691   C     0.16725   0.02127   0.79215   0.00000  Uiso   1.00
C692   C     0.16608   0.31206   0.87452   0.00000  Uiso   1.00
C693   C     0.16733   0.31205   0.79217   0.00000  Uiso   1.00
C694   C     0.16600   0.02128   0.87450   0.00000  Uiso   1.00
C695   C     0.16673   0.29086   0.83335   0.00000  Uiso   1.00
C696   C     0.16660   0.04247   0.83331   0.00000  Uiso   1.00
C697   C     0.19899   0.19281   0.69486   0.00000  Uiso   1.00
C698   C     0.13434   0.14052   0.97181   0.00000  Uiso   1.00
C699   C     0.19898   0.19280   0.98025   0.00000  Uiso   1.00
C700   C     0.13435   0.14054   0.68642   0.00000  Uiso   1.00
H701   H     0.32470   0.16673   0.77999   0.00000  Uiso   1.00
H702   H     0.00863   0.16660   0.88668   0.00000  Uiso   1.00
H703   H     0.16773   0.03740   0.76003   0.00000  Uiso   1.00
H704   H     0.16560   0.29593   0.90663   0.00000  Uiso   1.00
H705   H     0.16788   0.29592   0.76007   0.00000  Uiso   1.00
H706   H     0.16545   0.03741   0.90660   0.00000  Uiso   1.00
N707   N     0.16665   0.16666   0.95240   0.00000  Uiso   1.00
N708   N     0.16668   0.16668   0.71427   0.00000  Uiso   1.00
O709   O     0.16666   0.10558   0.87154   0.00000  Uiso   1.00
O710   O     0.16667   0.22775   0.79513   0.00000  Uiso   1.00
O711   O     0.16666   0.10559   0.79510   0.00000  Uiso   1.00
O712   O     0.16667   0.22774   0.87157   0.00000  Uiso   1.00
O713   O     0.09058   0.16666   0.86261   0.00000  Uiso   1.00
O714   O     0.24275   0.16667   0.80405   0.00000  Uiso   1.00
O715   O     0.09058   0.16667   0.78617   0.00000  Uiso   1.00
O716   O     0.24275   0.16666   0.88050   0.00000  Uiso   1.00
Zn717  Zn    0.16667   0.16666   0.88437   0.00000  Uiso   1.00
Zn718  Zn    0.16667   0.16667   0.78229   0.00000  Uiso   1.00
F719   F     0.23140   0.21903   0.72175   0.00000  Uiso   1.00
F720   F     0.10193   0.11431   0.94492   0.00000  Uiso   1.00
F721   F     0.23139   0.21897   0.96181   0.00000  Uiso   1.00
F722   F     0.10194   0.11436   0.70486   0.00000  Uiso   1.00
C723   C     0.49995   0.08663   0.83331   0.00000  Uiso   1.00
C724   C     0.50005   0.24670   0.83336   0.00000  Uiso   1.00
C725   C     0.40037   0.16665   0.82136   0.00000  Uiso   1.00
C726   C     0.59963   0.16668   0.84531   0.00000  Uiso   1.00
C727   C     0.34533   0.16668   0.81492   0.00000  Uiso   1.00
C728   C     0.65467   0.16665   0.85175   0.00000  Uiso   1.00
C729   C     0.50059   0.02127   0.79215   0.00000  Uiso   1.00
C730   C     0.49941   0.31206   0.87452   0.00000  Uiso   1.00
C731   C     0.50067   0.31205   0.79217   0.00000  Uiso   1.00
C732   C     0.49933   0.02128   0.87450   0.00000  Uiso   1.00
C733   C     0.50006   0.29086   0.83335   0.00000  Uiso   1.00
C734   C     0.49994   0.04247   0.83331   0.00000  Uiso   1.00
C735   C     0.53233   0.19281   0.69486   0.00000  Uiso   1.00
C736   C     0.46767   0.14052   0.97181   0.00000  Uiso   1.00
C737   C     0.53231   0.19280   0.98025   0.00000  Uiso   1.00
C738   C     0.46769   0.14054   0.68642   0.00000  Uiso   1.00
H739   H     0.65804   0.16673   0.77999   0.00000  Uiso   1.00
H740   H     0.34196   0.16660   0.88668   0.00000  Uiso   1.00
H741   H     0.50106   0.03740   0.76003   0.00000  Uiso   1.00
H742   H     0.49894   0.29593   0.90663   0.00000  Uiso   1.00
H743   H     0.50121   0.29592   0.76007   0.00000  Uiso   1.00
H744   H     0.49879   0.03741   0.90660   0.00000  Uiso   1.00
N745   N     0.49999   0.16666   0.95240   0.00000  Uiso   1.00
N746   N     0.50001   0.16668   0.71427   0.00000  Uiso   1.00
O747   O     0.50000   0.10558   0.87154   0.00000  Uiso   1.00
O748   O     0.50000   0.22775   0.79513   0.00000  Uiso   1.00
O749   O     0.50000   0.10559   0.79510   0.00000  Uiso   1.00
O750   O     0.50000   0.22774   0.87157   0.00000  Uiso   1.00
O751   O     0.42392   0.16666   0.86261   0.00000  Uiso   1.00
O752   O     0.57608   0.16667   0.80405   0.00000  Uiso   1.00
O753   O     0.42392   0.16667   0.78617   0.00000  Uiso   1.00
O754   O     0.57608   0.16666   0.88050   0.00000  Uiso   1.00
Zn755  Zn    0.50000   0.16666   0.88437   0.00000  Uiso   1.00
Zn756  Zn    0.50000   0.16667   0.78229   0.00000  Uiso   1.00
F757   F     0.56473   0.21903   0.72175   0.00000  Uiso   1.00
F758   F     0.43527   0.11431   0.94492   0.00000  Uiso   1.00
F759   F     0.56473   0.21897   0.96181   0.00000  Uiso   1.00
F760   F     0.43527   0.11436   0.70486   0.00000  Uiso   1.00
C761   C     0.83328   0.08663   0.83331   0.00000  Uiso   1.00
C762   C     0.83338   0.24670   0.83336   0.00000  Uiso   1.00
C763   C     0.73371   0.16665   0.82136   0.00000  Uiso   1.00
C764   C     0.93296   0.16668   0.84531   0.00000  Uiso   1.00
C765   C     0.67866   0.16668   0.81492   0.00000  Uiso   1.00
C766   C     0.98800   0.16665   0.85175   0.00000  Uiso   1.00
C767   C     0.83392   0.02127   0.79215   0.00000  Uiso   1.00
C768   C     0.83275   0.31206   0.87452   0.00000  Uiso   1.00
C769   C     0.83400   0.31205   0.79217   0.00000  Uiso   1.00
C770   C     0.83267   0.02128   0.87450   0.00000  Uiso   1.00
C771   C     0.83340   0.29086   0.83335   0.00000  Uiso   1.00
C772   C     0.83327   0.04247   0.83331   0.00000  Uiso   1.00
C773   C     0.86566   0.19281   0.69486   0.00000  Uiso   1.00
C774   C     0.80101   0.14052   0.97181   0.00000  Uiso   1.00
C775   C     0.86565   0.19280   0.98025   0.00000  Uiso   1.00
C776   C     0.80102   0.14054   0.68642   0.00000  Uiso   1.00
H777   H     0.99137   0.16673   0.77999   0.00000  Uiso   1.00
H778   H     0.67530   0.16660   0.88668   0.00000  Uiso   1.00
H779   H     0.83440   0.03740   0.76003   0.00000  Uiso   1.00
H780   H     0.83227   0.29593   0.90663   0.00000  Uiso   1.00
H781   H     0.83455   0.29592   0.76007   0.00000  Uiso   1.00
H782   H     0.83212   0.03741   0.90660   0.00000  Uiso   1.00
N783   N     0.83332   0.16666   0.95240   0.00000  Uiso   1.00
N784   N     0.83335   0.16668   0.71427   0.00000  Uiso   1.00
O785   O     0.83333   0.10558   0.87154   0.00000  Uiso   1.00
O786   O     0.83334   0.22775   0.79513   0.00000  Uiso   1.00
O787   O     0.83333   0.10559   0.79510   0.00000  Uiso   1.00
O788   O     0.83334   0.22774   0.87157   0.00000  Uiso   1.00
O789   O     0.75725   0.16666   0.86261   0.00000  Uiso   1.00
O790   O     0.90942   0.16667   0.80405   0.00000  Uiso   1.00
O791   O     0.75725   0.16667   0.78617   0.00000  Uiso   1.00
O792   O     0.90942   0.16666   0.88050   0.00000  Uiso   1.00
Zn793  Zn    0.83333   0.16666   0.88437   0.00000  Uiso   1.00
Zn794  Zn    0.83333   0.16667   0.78229   0.00000  Uiso   1.00
F795   F     0.89807   0.21903   0.72175   0.00000  Uiso   1.00
F796   F     0.76860   0.11431   0.94492   0.00000  Uiso   1.00
F797   F     0.89806   0.21897   0.96181   0.00000  Uiso   1.00
F798   F     0.76861   0.11436   0.70486   0.00000  Uiso   1.00
C799   C     0.16662   0.41996   0.83331   0.00000  Uiso   1.00
C800   C     0.16672   0.58004   0.83336   0.00000  Uiso   1.00
C801   C     0.06704   0.49999   0.82136   0.00000  Uiso   1.00
C802   C     0.26629   0.50001   0.84531   0.00000  Uiso   1.00
C803   C     0.01200   0.50001   0.81492   0.00000  Uiso   1.00
C804   C     0.32134   0.49999   0.85175   0.00000  Uiso   1.00
C805   C     0.16725   0.35461   0.79215   0.00000  Uiso   1.00
C806   C     0.16608   0.64539   0.87452   0.00000  Uiso   1.00
C807   C     0.16733   0.64539   0.79217   0.00000  Uiso   1.00
C808   C     0.16600   0.35461   0.87450   0.00000  Uiso   1.00
C809   C     0.16673   0.62420   0.83335   0.00000  Uiso   1.00
C810   C     0.16660   0.37580   0.83331   0.00000  Uiso   1.00
C811   C     0.19899   0.52614   0.69486   0.00000  Uiso   1.00
C812   C     0.13434   0.47386   0.97181   0.00000  Uiso   1.00
C813   C     0.19898   0.52613   0.98025   0.00000  Uiso   1.00
C814   C     0.13435   0.47387   0.68642   0.00000  Uiso   1.00
H815   H     0.32470   0.50007   0.77999   0.00000  Uiso   1.00
H816   H     0.00863   0.49993   0.88668   0.00000  Uiso   1.00
H817   H     0.16773   0.37073   0.76003   0.00000  Uiso   1.00
H818   H     0.16560   0.62927   0.90663   0.00000  Uiso   1.00
H819   H     0.16788   0.62925   0.76007   0.00000  Uiso   1.00
H820   H     0.16545   0.37075   0.90660   0.00000  Uiso   1.00
N821   N     0.16665   0.49999   0.95240   0.00000  Uiso   1.00
N822   N     0.16668   0.50001   0.71427   0.00000  Uiso   1.00
O823   O     0.16666   0.43892   0.87154   0.00000  Uiso   1.00
O824   O     0.16667   0.56108   0.79513   0.00000  Uiso   1.00
O825   O     0.16666   0.43893   0.79510   0.00000  Uiso   1.00
O826   O     0.16667   0.56107   0.87157   0.00000  Uiso   1.00
O827   O     0.09058   0.50000   0.86261   0.00000  Uiso   1.00
O828   O     0.24275   0.50000   0.80405   0.00000  Uiso   1.00
O829   O     0.09058   0.50000   0.78617   0.00000  Uiso   1.00
O830   O     0.24275   0.50000   0.88050   0.00000  Uiso   1.00
Zn831  Zn    0.16667   0.49999   0.88437   0.00000  Uiso   1.00
Zn832  Zn    0.16667   0.50001   0.78229   0.00000  Uiso   1.00
F833   F     0.23140   0.55236   0.72175   0.00000  Uiso   1.00
F834   F     0.10193   0.44764   0.94492   0.00000  Uiso   1.00
F835   F     0.23139   0.55230   0.96181   0.00000  Uiso   1.00
F836   F     0.10194   0.44769   0.70486   0.00000  Uiso   1.00
C837   C     0.49995   0.41996   0.83331   0.00000  Uiso   1.00
C838   C     0.50005   0.58004   0.83336   0.00000  Uiso   1.00
C839   C     0.40037   0.49999   0.82136   0.00000  Uiso   1.00
C840   C     0.59963   0.50001   0.84531   0.00000  Uiso   1.00
C841   C     0.34533   0.50001   0.81492   0.00000  Uiso   1.00
C842   C     0.65467   0.49999   0.85175   0.00000  Uiso   1.00
C843   C     0.50059   0.35461   0.79215   0.00000  Uiso   1.00
C844   C     0.49941   0.64539   0.87452   0.00000  Uiso   1.00
C845   C     0.50067   0.64539   0.79217   0.00000  Uiso   1.00
C846   C     0.49933   0.35461   0.87450   0.00000  Uiso   1.00
C847   C     0.50006   0.62420   0.83335   0.00000  Uiso   1.00
C848   C     0.49994   0.37580   0.83331   0.00000  Uiso   1.00
C849   C     0.53233   0.52614   0.69486   0.00000  Uiso   1.00
C850   C     0.46767   0.47386   0.97181   0.00000  Uiso   1.00
C851   C     0.53231   0.52613   0.98025   0.00000  Uiso   1.00
C852   C     0.46769   0.47387   0.68642   0.00000  Uiso   1.00
H853   H     0.65804   0.50007   0.77999   0.00000  Uiso   1.00
H854   H     0.34196   0.49993   0.88668   0.00000  Uiso   1.00
H855   H     0.50106   0.37073   0.76003   0.00000  Uiso   1.00
H856   H     0.49894   0.62927   0.90663   0.00000  Uiso   1.00
H857   H     0.50121   0.62925   0.76007   0.00000  Uiso   1.00
H858   H     0.49879   0.37075   0.90660   0.00000  Uiso   1.00
N859   N     0.49999   0.49999   0.95240   0.00000  Uiso   1.00
N860   N     0.50001   0.50001   0.71427   0.00000  Uiso   1.00
O861   O     0.50000   0.43892   0.87154   0.00000  Uiso   1.00
O862   O     0.50000   0.56108   0.79513   0.00000  Uiso   1.00
O863   O     0.50000   0.43893   0.79510   0.00000  Uiso   1.00
O864   O     0.50000   0.56107   0.87157   0.00000  Uiso   1.00
O865   O     0.42392   0.50000   0.86261   0.00000  Uiso   1.00
O866   O     0.57608   0.50000   0.80405   0.00000  Uiso   1.00
O867   O     0.42392   0.50000   0.78617   0.00000  Uiso   1.00
O868   O     0.57608   0.50000   0.88050   0.00000  Uiso   1.00
Zn869  Zn    0.50000   0.49999   0.88437   0.00000  Uiso   1.00
Zn870  Zn    0.50000   0.50001   0.78229   0.00000  Uiso   1.00
F871   F     0.56473   0.55236   0.72175   0.00000  Uiso   1.00
F872   F     0.43527   0.44764   0.94492   0.00000  Uiso   1.00
F873   F     0.56473   0.55230   0.96181   0.00000  Uiso   1.00
F874   F     0.43527   0.44769   0.70486   0.00000  Uiso   1.00
C875   C     0.83328   0.41996   0.83331   0.00000  Uiso   1.00
C876   C     0.83338   0.58004   0.83336   0.00000  Uiso   1.00
C877   C     0.73371   0.49999   0.82136   0.00000  Uiso   1.00
C878   C     0.93296   0.50001   0.84531   0.00000  Uiso   1.00
C879   C     0.67866   0.50001   0.81492   0.00000  Uiso   1.00
C880   C     0.98800   0.49999   0.85175   0.00000  Uiso   1.00
C881   C     0.83392   0.35461   0.79215   0.00000  Uiso   1.00
C882   C     0.83275   0.64539   0.87452   0.00000  Uiso   1.00
C883   C     0.83400   0.64539   0.79217   0.00000  Uiso   1.00
C884   C     0.83267   0.35461   0.87450   0.00000  Uiso   1.00
C885   C     0.83340   0.62420   0.83335   0.00000  Uiso   1.00
C886   C     0.83327   0.37580   0.83331   0.00000  Uiso   1.00
C887   C     0.86566   0.52614   0.69486   0.00000  Uiso   1.00
C888   C     0.80101   0.47386   0.97181   0.00000  Uiso   1.00
C889   C     0.86565   0.52613   0.98025   0.00000  Uiso   1.00
C890   C     0.80102   0.47387   0.68642   0.00000  Uiso   1.00
H891   H     0.99137   0.50007   0.77999   0.00000  Uiso   1.00
H892   H     0.67530   0.49993   0.88668   0.00000  Uiso   1.00
H893   H     0.83440   0.37073   0.76003   0.00000  Uiso   1.00
H894   H     0.83227   0.62927   0.90663   0.00000  Uiso   1.00
H895   H     0.83455   0.62925   0.76007   0.00000  Uiso   1.00
H896   H     0.83212   0.37075   0.90660   0.00000  Uiso   1.00
N897   N     0.83332   0.49999   0.95240   0.00000  Uiso   1.00
N898   N     0.83335   0.50001   0.71427   0.00000  Uiso   1.00
O899   O     0.83333   0.43892   0.87154   0.00000  Uiso   1.00
O900   O     0.83334   0.56108   0.79513   0.00000  Uiso   1.00
O901   O     0.83333   0.43893   0.79510   0.00000  Uiso   1.00
O902   O     0.83334   0.56107   0.87157   0.00000  Uiso   1.00
O903   O     0.75725   0.50000   0.86261   0.00000  Uiso   1.00
O904   O     0.90942   0.50000   0.80405   0.00000  Uiso   1.00
O905   O     0.75725   0.50000   0.78617   0.00000  Uiso   1.00
O906   O     0.90942   0.50000   0.88050   0.00000  Uiso   1.00
Zn907  Zn    0.83333   0.49999   0.88437   0.00000  Uiso   1.00
Zn908  Zn    0.83333   0.50001   0.78229   0.00000  Uiso   1.00
F909   F     0.89807   0.55236   0.72175   0.00000  Uiso   1.00
F910   F     0.76860   0.44764   0.94492   0.00000  Uiso   1.00
F911   F     0.89806   0.55230   0.96181   0.00000  Uiso   1.00
F912   F     0.76861   0.44769   0.70486   0.00000  Uiso   1.00
C913   C     0.16662   0.75330   0.83331   0.00000  Uiso   1.00
C914   C     0.16672   0.91337   0.83336   0.00000  Uiso   1.00
C915   C     0.06704   0.83332   0.82136   0.00000  Uiso   1.00
C916   C     0.26629   0.83335   0.84531   0.00000  Uiso   1.00
C917   C     0.01200   0.83335   0.81492   0.00000  Uiso   1.00
C918   C     0.32134   0.83332   0.85175   0.00000  Uiso   1.00
C919   C     0.16725   0.68794   0.79215   0.00000  Uiso   1.00
C920   C     0.16608   0.97873   0.87452   0.00000  Uiso   1.00
C921   C     0.16733   0.97872   0.79217   0.00000  Uiso   1.00
C922   C     0.16600   0.68795   0.87450   0.00000  Uiso   1.00
C923   C     0.16673   0.95753   0.83335   0.00000  Uiso   1.00
C924   C     0.16660   0.70914   0.83331   0.00000  Uiso   1.00
C925   C     0.19899   0.85948   0.69486   0.00000  Uiso   1.00
C926   C     0.13434   0.80719   0.97181   0.00000  Uiso   1.00
C927   C     0.19898   0.85946   0.98025   0.00000  Uiso   1.00
C928   C     0.13435   0.80720   0.68642   0.00000  Uiso   1.00
H929   H     0.32470   0.83340   0.77999   0.00000  Uiso   1.00
H930   H     0.00863   0.83327   0.88668   0.00000  Uiso   1.00
H931   H     0.16773   0.70407   0.76003   0.00000  Uiso   1.00
H932   H     0.16560   0.96260   0.90663   0.00000  Uiso   1.00
H933   H     0.16788   0.96259   0.76007   0.00000  Uiso   1.00
H934   H     0.16545   0.70408   0.90660   0.00000  Uiso   1.00
N935   N     0.16665   0.83332   0.95240   0.00000  Uiso   1.00
N936   N     0.16668   0.83334   0.71427   0.00000  Uiso   1.00
O937   O     0.16666   0.77225   0.87154   0.00000  Uiso   1.00
O938   O     0.16667   0.89442   0.79513   0.00000  Uiso   1.00
O939   O     0.16666   0.77226   0.79510   0.00000  Uiso   1.00
O940   O     0.16667   0.89441   0.87157   0.00000  Uiso   1.00
O941   O     0.09058   0.83333   0.86261   0.00000  Uiso   1.00
O942   O     0.24275   0.83334   0.80405   0.00000  Uiso   1.00
O943   O     0.09058   0.83334   0.78617   0.00000  Uiso   1.00
O944   O     0.24275   0.83333   0.88050   0.00000  Uiso   1.00
Zn945  Zn    0.16667   0.83333   0.88437   0.00000  Uiso   1.00
Zn946  Zn    0.16667   0.83334   0.78229   0.00000  Uiso   1.00
F947   F     0.23140   0.88569   0.72175   0.00000  Uiso   1.00
F948   F     0.10193   0.78097   0.94492   0.00000  Uiso   1.00
F949   F     0.23139   0.88564   0.96181   0.00000  Uiso   1.00
F950   F     0.10194   0.78103   0.70486   0.00000  Uiso   1.00
C951   C     0.49995   0.75330   0.83331   0.00000  Uiso   1.00
C952   C     0.50005   0.91337   0.83336   0.00000  Uiso   1.00
C953   C     0.40037   0.83332   0.82136   0.00000  Uiso   1.00
C954   C     0.59963   0.83335   0.84531   0.00000  Uiso   1.00
C955   C     0.34533   0.83335   0.81492   0.00000  Uiso   1.00
C956   C     0.65467   0.83332   0.85175   0.00000  Uiso   1.00
C957   C     0.50059   0.68794   0.79215   0.00000  Uiso   1.00
C958   C     0.49941   0.97873   0.87452   0.00000  Uiso   1.00
C959   C     0.50067   0.97872   0.79217   0.00000  Uiso   1.00
C960   C     0.49933   0.68795   0.87450   0.00000  Uiso   1.00
C961   C     0.50006   0.95753   0.83335   0.00000  Uiso   1.00
C962   C     0.49994   0.70914   0.83331   0.00000  Uiso   1.00
C963   C     0.53233   0.85948   0.69486   0.00000  Uiso   1.00
C964   C     0.46767   0.80719   0.97181   0.00000  Uiso   1.00
C965   C     0.53231   0.85946   0.98025   0.00000  Uiso   1.00
C966   C     0.46769   0.80720   0.68642   0.00000  Uiso   1.00
H967   H     0.65804   0.83340   0.77999   0.00000  Uiso   1.00
H968   H     0.34196   0.83327   0.88668   0.00000  Uiso   1.00
H969   H     0.50106   0.70407   0.76003   0.00000  Uiso   1.00
H970   H     0.49894   0.96260   0.90663   0.00000  Uiso   1.00
H971   H     0.50121   0.96259   0.76007   0.00000  Uiso   1.00
H972   H     0.49879   0.70408   0.90660   0.00000  Uiso   1.00
N973   N     0.49999   0.83332   0.95240   0.00000  Uiso   1.00
N974   N     0.50001   0.83334   0.71427   0.00000  Uiso   1.00
O975   O     0.50000   0.77225   0.87154   0.00000  Uiso   1.00
O976   O     0.50000   0.89442   0.79513   0.00000  Uiso   1.00
O977   O     0.50000   0.77226   0.79510   0.00000  Uiso   1.00
O978   O     0.50000   0.89441   0.87157   0.00000  Uiso   1.00
O979   O     0.42392   0.83333   0.86261   0.00000  Uiso   1.00
O980   O     0.57608   0.83334   0.80405   0.00000  Uiso   1.00
O981   O     0.42392   0.83334   0.78617   0.00000  Uiso   1.00
O982   O     0.57608   0.83333   0.88050   0.00000  Uiso   1.00
Zn983  Zn    0.50000   0.83333   0.88437   0.00000  Uiso   1.00
Zn984  Zn    0.50000   0.83334   0.78229   0.00000  Uiso   1.00
F985   F     0.56473   0.88569   0.72175   0.00000  Uiso   1.00
F986   F     0.43527   0.78097   0.94492   0.00000  Uiso   1.00
F987   F     0.56473   0.88564   0.96181   0.00000  Uiso   1.00
F988   F     0.43527   0.78103   0.70486   0.00000  Uiso   1.00
C989   C     0.83328   0.75330   0.83331   0.00000  Uiso   1.00
C990   C     0.83338   0.91337   0.83336   0.00000  Uiso   1.00
C991   C     0.73371   0.83332   0.82136   0.00000  Uiso   1.00
C992   C     0.93296   0.83335   0.84531   0.00000  Uiso   1.00
C993   C     0.67866   0.83335   0.81492   0.00000  Uiso   1.00
C994   C     0.98800   0.83332   0.85175   0.00000  Uiso   1.00
C995   C     0.83392   0.68794   0.79215   0.00000  Uiso   1.00
C996   C     0.83275   0.97873   0.87452   0.00000  Uiso   1.00
C997   C     0.83400   0.97872   0.79217   0.00000  Uiso   1.00
C998   C     0.83267   0.68795   0.87450   0.00000  Uiso   1.00
C999   C     0.83340   0.95753   0.83335   0.00000  Uiso   1.00
C1000  C     0.83327   0.70914   0.83331   0.00000  Uiso   1.00
C1001  C     0.86566   0.85948   0.69486   0.00000  Uiso   1.00
C1002  C     0.80101   0.80719   0.97181   0.00000  Uiso   1.00
C1003  C     0.86565   0.85946   0.98025   0.00000  Uiso   1.00
C1004  C     0.80102   0.80720   0.68642   0.00000  Uiso   1.00
H1005  H     0.99137   0.83340   0.77999   0.00000  Uiso   1.00
H1006  H     0.67530   0.83327   0.88668   0.00000  Uiso   1.00
H1007  H     0.83440   0.70407   0.76003   0.00000  Uiso   1.00
H1008  H     0.83227   0.96260   0.90663   0.00000  Uiso   1.00
H1009  H     0.83455   0.96259   0.76007   0.00000  Uiso   1.00
H1010  H     0.83212   0.70408   0.90660   0.00000  Uiso   1.00
N1011  N     0.83332   0.83332   0.95240   0.00000  Uiso   1.00
N1012  N     0.83335   0.83334   0.71427   0.00000  Uiso   1.00
O1013  O     0.83333   0.77225   0.87154   0.00000  Uiso   1.00
O1014  O     0.83334   0.89442   0.79513   0.00000  Uiso   1.00
O1015  O     0.83333   0.77226   0.79510   0.00000  Uiso   1.00
O1016  O     0.83334   0.89441   0.87157   0.00000  Uiso   1.00
O1017  O     0.75725   0.83333   0.86261   0.00000  Uiso   1.00
O1018  O     0.90942   0.83334   0.80405   0.00000  Uiso   1.00
O1019  O     0.75725   0.83334   0.78617   0.00000  Uiso   1.00
O1020  O     0.90942   0.83333   0.88050   0.00000  Uiso   1.00
Zn1021 Zn    0.83333   0.83333   0.88437   0.00000  Uiso   1.00
Zn1022 Zn    0.83333   0.83334   0.78229   0.00000  Uiso   1.00
F1023  F     0.89807   0.88569   0.72175   0.00000  Uiso   1.00
F1024  F     0.76860   0.78097   0.94492   0.00000  Uiso   1.00
F1025  F     0.89806   0.88564   0.96181   0.00000  Uiso   1.00
F1026  F     0.76861   0.78103   0.70486   0.00000  Uiso   1.00
loop_
_geom_bond_atom_site_label_1
_geom_bond_atom_site_label_2
_geom_bond_distance
_geom_bond_site_symmetry_2
_ccdc_geom_bond_type
C1     O25     1.284   .     A
C1     C12     1.421   .     S
C1     O27     1.284   .     A
C2     O26     1.284   .     A
C2     C11     1.421   .     S
C2     O28     1.284   .     A
C3     O31     1.281   .     A
C3     O29     1.278   .     A
C3     C5      1.403   .     S
C4     O32     1.281   .     A
C4     C6      1.403   .     S
C4     O30     1.278   .     A
C5     C82     1.330   1_455 S
C5     H93     1.088   1_455 S
C6     C43     1.330   .     S
C6     H56     1.088   .     S
C7     H19     1.084   .     S
C7     C12     1.397   .     A
C7     C237    1.370   1_545 S
C8     H20     1.084   .     S
C8     C11     1.397   .     A
C8     C124    1.370   .     S
C9     C11     1.398   .     A
C9     H21     1.084   .     S
C9     C121    1.370   .     S
C10    H22     1.084   .     S
C10    C12     1.398   .     A
C10    C236    1.370   1_545 S
C13    F35     1.355   .     S
C13    N24     1.367   .     A
C13    C699    1.417   1_554 S
C14    N23     1.367   .     A
C14    F36     1.355   .     S
C14    C358    1.417   .     S
C15    N23     1.367   .     A
C15    F37     1.355   .     S
C15    C355    1.417   .     S
C16    N24     1.367   .     A
C16    F38     1.355   .     S
C16    C698    1.417   1_554 S
H17    C43     1.088   .     S
H18    C82     1.088   1_455 S
N23    Zn33    2.011   .     S
N24    Zn34    2.011   .     S
O25    Zn33    2.002   .     S
O26    Zn34    2.002   .     S
O27    Zn34    2.002   .     S
O28    Zn33    2.002   .     S
O29    Zn33    1.970   .     S
O30    Zn34    1.970   .     S
O31    Zn34    1.982   .     S
O32    Zn33    1.982   .     S
C39    O63     1.284   .     A
C39    C50     1.421   .     S
C39    O65     1.284   .     A
C40    O64     1.284   .     A
C40    C49     1.421   .     S
C40    O66     1.284   .     A
C41    O69     1.281   .     A
C41    O67     1.278   .     A
C41    C43     1.403   .     S
C42    O70     1.281   .     A
C42    C44     1.403   .     S
C42    O68     1.278   .     A
C44    C81     1.330   .     S
C44    H94     1.088   .     S
C45    H57     1.084   .     S
C45    C50     1.397   .     A
C45    C275    1.370   1_545 S
C46    H58     1.084   .     S
C46    C49     1.397   .     A
C46    C162    1.370   .     S
C47    C49     1.398   .     A
C47    H59     1.084   .     S
C47    C159    1.370   .     S
C48    H60     1.084   .     S
C48    C50     1.398   .     A
C48    C274    1.370   1_545 S
C51    F73     1.355   .     S
C51    N62     1.367   .     A
C51    C737    1.417   1_554 S
C52    N61     1.367   .     A
C52    F74     1.355   .     S
C52    C396    1.417   .     S
C53    N61     1.367   .     A
C53    F75     1.355   .     S
C53    C393    1.417   .     S
C54    N62     1.367   .     A
C54    F76     1.355   .     S
C54    C736    1.417   1_554 S
H55    C81     1.088   .     S
N61    Zn71    2.011   .     S
N62    Zn72    2.011   .     S
O63    Zn71    2.002   .     S
O64    Zn72    2.002   .     S
O65    Zn72    2.002   .     S
O66    Zn71    2.002   .     S
O67    Zn71    1.970   .     S
O68    Zn72    1.970   .     S
O69    Zn72    1.982   .     S
O70    Zn71    1.982   .     S
C77    O101    1.284   .     A
C77    C88     1.421   .     S
C77    O103    1.284   .     A
C78    O102    1.284   .     A
C78    C87     1.421   .     S
C78    O104    1.284   .     A
C79    O107    1.281   .     A
C79    O105    1.278   .     A
C79    C81     1.403   .     S
C80    O108    1.281   .     A
C80    C82     1.403   .     S
C80    O106    1.278   .     A
C82    C5      1.330   1_655 S
C82    H18     1.088   1_655 S
C83    H95     1.084   .     S
C83    C88     1.397   .     A
C83    C313    1.370   1_545 S
C84    H96     1.084   .     S
C84    C87     1.397   .     A
C84    C200    1.370   .     S
C85    C87     1.398   .     A
C85    H97     1.084   .     S
C85    C197    1.370   .     S
C86    H98     1.084   .     S
C86    C88     1.398   .     A
C86    C312    1.370   1_545 S
C89    F111    1.355   .     S
C89    N100    1.367   .     A
C89    C775    1.417   1_554 S
C90    N99     1.367   .     A
C90    F112    1.355   .     S
C90    C434    1.417   .     S
C91    N99     1.367   .     A
C91    F113    1.355   .     S
C91    C431    1.417   .     S
C92    N100    1.367   .     A
C92    F114    1.355   .     S
C92    C774    1.417   1_554 S
H93    C5      1.088   1_655 S
N99    Zn109   2.011   .     S
N100   Zn110   2.011   .     S
O101   Zn109   2.002   .     S
O102   Zn110   2.002   .     S
O103   Zn110   2.002   .     S
O104   Zn109   2.002   .     S
O105   Zn109   1.970   .     S
O106   Zn110   1.970   .     S
O107   Zn110   1.982   .     S
O108   Zn109   1.982   .     S
C115   O139    1.284   .     A
C115   C126    1.421   .     S
C115   O141    1.284   .     A
C116   O140    1.284   .     A
C116   C125    1.421   .     S
C116   O142    1.284   .     A
C117   O145    1.281   .     A
C117   O143    1.278   .     A
C117   C119    1.403   .     S
C118   O146    1.281   .     A
C118   C120    1.403   .     S
C118   O144    1.278   .     A
C119   C196    1.330   1_455 S
C119   H207    1.088   1_455 S
C120   C157    1.330   .     S
C120   H170    1.088   .     S
C121   H133    1.084   .     S
C121   C126    1.397   .     A
C122   H134    1.084   .     S
C122   C125    1.397   .     A
C122   C238    1.370   .     S
C123   C125    1.398   .     A
C123   H135    1.084   .     S
C123   C235    1.370   .     S
C124   H136    1.084   .     S
C124   C126    1.398   .     A
C127   F149    1.355   .     S
C127   N138    1.367   .     A
C127   C813    1.417   1_554 S
C128   N137    1.367   .     A
C128   F150    1.355   .     S
C128   C472    1.417   .     S
C129   N137    1.367   .     A
C129   F151    1.355   .     S
C129   C469    1.417   .     S
C130   N138    1.367   .     A
C130   F152    1.355   .     S
C130   C812    1.417   1_554 S
H131   C157    1.088   .     S
H132   C196    1.088   1_455 S
N137   Zn147   2.011   .     S
N138   Zn148   2.011   .     S
O139   Zn147   2.002   .     S
O140   Zn148   2.002   .     S
O141   Zn148   2.002   .     S
O142   Zn147   2.002   .     S
O143   Zn147   1.970   .     S
O144   Zn148   1.970   .     S
O145   Zn148   1.982   .     S
O146   Zn147   1.982   .     S
C153   O177    1.284   .     A
C153   C164    1.421   .     S
C153   O179    1.284   .     A
C154   O178    1.284   .     A
C154   C163    1.421   .     S
C154   O180    1.284   .     A
C155   O183    1.281   .     A
C155   O181    1.278   .     A
C155   C157    1.403   .     S
C156   O184    1.281   .     A
C156   C158    1.403   .     S
C156   O182    1.278   .     A
C158   C195    1.330   .     S
C158   H208    1.088   .     S
C159   H171    1.084   .     S
C159   C164    1.397   .     A
C160   H172    1.084   .     S
C160   C163    1.397   .     A
C160   C276    1.370   .     S
C161   C163    1.398   .     A
C161   H173    1.084   .     S
C161   C273    1.370   .     S
C162   H174    1.084   .     S
C162   C164    1.398   .     A
C165   F187    1.355   .     S
C165   N176    1.367   .     A
C165   C851    1.417   1_554 S
C166   N175    1.367   .     A
C166   F188    1.355   .     S
C166   C510    1.417   .     S
C167   N175    1.367   .     A
C167   F189    1.355   .     S
C167   C507    1.417   .     S
C168   N176    1.367   .     A
C168   F190    1.355   .     S
C168   C850    1.417   1_554 S
H169   C195    1.088   .     S
N175   Zn185   2.011   .     S
N176   Zn186   2.011   .     S
O177   Zn185   2.002   .     S
O178   Zn186   2.002   .     S
O179   Zn186   2.002   .     S
O180   Zn185   2.002   .     S
O181   Zn185   1.970   .     S
O182   Zn186   1.970   .     S
O183   Zn186   1.982   .     S
O184   Zn185   1.982   .     S
C191   O215    1.284   .     A
C191   C202    1.421   .     S
C191   O217    1.284   .     A
C192   O216    1.284   .     A
C192   C201    1.421   .     S
C192   O218    1.284   .     A
C193   O221    1.281   .     A
C193   O219    1.278   .     A
C193   C195    1.403   .     S
C194   O222    1.281   .     A
C194   C196    1.403   .     S
C194   O220    1.278   .     A
C196   C119    1.330   1_655 S
C196   H132    1.088   1_655 S
C197   H209    1.084   .     S
C197   C202    1.397   .     A
C198   H210    1.084   .     S
C198   C201    1.397   .     A
C198   C314    1.370   .     S
C199   C201    1.398   .     A
C199   H211    1.084   .     S
C199   C311    1.370   .     S
C200   H212    1.084   .     S
C200   C202    1.398   .     A
C203   F225    1.355   .     S
C203   N214    1.367   .     A
C203   C889    1.417   1_554 S
C204   N213    1.367   .     A
C204   F226    1.355   .     S
C204   C548    1.417   .     S
C205   N213    1.367   .     A
C205   F227    1.355   .     S
C205   C545    1.417   .     S
C206   N214    1.367   .     A
C206   F228    1.355   .     S
C206   C888    1.417   1_554 S
H207   C119    1.088   1_655 S
N213   Zn223   2.011   .     S
N214   Zn224   2.011   .     S
O215   Zn223   2.002   .     S
O216   Zn224   2.002   .     S
O217   Zn224   2.002   .     S
O218   Zn223   2.002   .     S
O219   Zn223   1.970   .     S
O220   Zn224   1.970   .     S
O221   Zn224   1.982   .     S
O222   Zn223   1.982   .     S
C229   O253    1.284   .     A
C229   C240    1.421   .     S
C229   O255    1.284   .     A
C230   O254    1.284   .     A
C230   C239    1.421   .     S
C230   O256    1.284   .     A
C231   O259    1.281   .     A
C231   O257    1.278   .     A
C231   C233    1.403   .     S
C232   O260    1.281   .     A
C232   C234    1.403   .     S
C232   O258    1.278   .     A
C233   C310    1.330   1_455 S
C233   H321    1.088   1_455 S
C234   C271    1.330   .     S
C234   H284    1.088   .     S
C235   H247    1.084   .     S
C235   C240    1.397   .     A
C236   H248    1.084   .     S
C236   C239    1.397   .     A
C236   C10     1.370   1_565 S
C237   C239    1.398   .     A
C237   H249    1.084   .     S
C237   C7      1.370   1_565 S
C238   H250    1.084   .     S
C238   C240    1.398   .     A
C241   F263    1.355   .     S
C241   N252    1.367   .     A
C241   C927    1.417   1_554 S
C242   N251    1.367   .     A
C242   F264    1.355   .     S
C242   C586    1.417   .     S
C243   N251    1.367   .     A
C243   F265    1.355   .     S
C243   C583    1.417   .     S
C244   N252    1.367   .     A
C244   F266    1.355   .     S
C244   C926    1.417   1_554 S
H245   C271    1.088   .     S
H246   C310    1.088   1_455 S
N251   Zn261   2.011   .     S
N252   Zn262   2.011   .     S
O253   Zn261   2.002   .     S
O254   Zn262   2.002   .     S
O255   Zn262   2.002   .     S
O256   Zn261   2.002   .     S
O257   Zn261   1.970   .     S
O258   Zn262   1.970   .     S
O259   Zn262   1.982   .     S
O260   Zn261   1.982   .     S
C267   O291    1.284   .     A
C267   C278    1.421   .     S
C267   O293    1.284   .     A
C268   O292    1.284   .     A
C268   C277    1.421   .     S
C268   O294    1.284   .     A
C269   O297    1.281   .     A
C269   O295    1.278   .     A
C269   C271    1.403   .     S
C270   O298    1.281   .     A
C270   C272    1.403   .     S
C270   O296    1.278   .     A
C272   C309    1.330   .     S
C272   H322    1.088   .     S
C273   H285    1.084   .     S
C273   C278    1.397   .     A
C274   H286    1.084   .     S
C274   C277    1.397   .     A
C274   C48     1.370   1_565 S
C275   C277    1.398   .     A
C275   H287    1.084   .     S
C275   C45     1.370   1_565 S
C276   H288    1.084   .     S
C276   C278    1.398   .     A
C279   F301    1.355   .     S
C279   N290    1.367   .     A
C279   C965    1.417   1_554 S
C280   N289    1.367   .     A
C280   F302    1.355   .     S
C280   C624    1.417   .     S
C281   N289    1.367   .     A
C281   F303    1.355   .     S
C281   C621    1.417   .     S
C282   N290    1.367   .     A
C282   F304    1.355   .     S
C282   C964    1.417   1_554 S
H283   C309    1.088   .     S
N289   Zn299   2.011   .     S
N290   Zn300   2.011   .     S
O291   Zn299   2.002   .     S
O292   Zn300   2.002   .     S
O293   Zn300   2.002   .     S
O294   Zn299   2.002   .     S
O295   Zn299   1.970   .     S
O296   Zn300   1.970   .     S
O297   Zn300   1.982   .     S
O298   Zn299   1.982   .     S
C305   O329    1.284   .     A
C305   C316    1.421   .     S
C305   O331    1.284   .     A
C306   O330    1.284   .     A
C306   C315    1.421   .     S
C306   O332    1.284   .     A
C307   O335    1.281   .     A
C307   O333    1.278   .     A
C307   C309    1.403   .     S
C308   O336    1.281   .     A
C308   C310    1.403   .     S
C308   O334    1.278   .     A
C310   C233    1.330   1_655 S
C310   H246    1.088   1_655 S
C311   H323    1.084   .     S
C311   C316    1.397   .     A
C312   H324    1.084   .     S
C312   C315    1.397   .     A
C312   C86     1.370   1_565 S
C313   C315    1.398   .     A
C313   H325    1.084   .     S
C313   C83     1.370   1_565 S
C314   H326    1.084   .     S
C314   C316    1.398   .     A
C317   F339    1.355   .     S
C317   N328    1.367   .     A
C317   C1003   1.417   1_554 S
C318   N327    1.367   .     A
C318   F340    1.355   .     S
C318   C662    1.417   .     S
C319   N327    1.367   .     A
C319   F341    1.355   .     S
C319   C659    1.417   .     S
C320   N328    1.367   .     A
C320   F342    1.355   .     S
C320   C1002   1.417   1_554 S
H321   C233    1.088   1_655 S
N327   Zn337   2.011   .     S
N328   Zn338   2.011   .     S
O329   Zn337   2.002   .     S
O330   Zn338   2.002   .     S
O331   Zn338   2.002   .     S
O332   Zn337   2.002   .     S
O333   Zn337   1.970   .     S
O334   Zn338   1.970   .     S
O335   Zn338   1.982   .     S
O336   Zn337   1.982   .     S
C343   O367    1.284   .     A
C343   C354    1.421   .     S
C343   O369    1.284   .     A
C344   O368    1.284   .     A
C344   C353    1.421   .     S
C344   O370    1.284   .     A
C345   O373    1.281   .     A
C345   O371    1.278   .     A
C345   C347    1.403   .     S
C346   O374    1.281   .     A
C346   C348    1.403   .     S
C346   O372    1.278   .     A
C347   C424    1.330   1_455 S
C347   H435    1.088   1_455 S
C348   C385    1.330   .     S
C348   H398    1.088   .     S
C349   H361    1.084   .     S
C349   C354    1.397   .     A
C349   C579    1.370   1_545 S
C350   H362    1.084   .     S
C350   C353    1.397   .     A
C350   C466    1.370   .     S
C351   C353    1.398   .     A
C351   H363    1.084   .     S
C351   C463    1.370   .     S
C352   H364    1.084   .     S
C352   C354    1.398   .     A
C352   C578    1.370   1_545 S
C355   F377    1.355   .     S
C355   N366    1.367   .     A
C356   N365    1.367   .     A
C356   F378    1.355   .     S
C356   C700    1.417   .     S
C357   N365    1.367   .     A
C357   F379    1.355   .     S
C357   C697    1.417   .     S
C358   N366    1.367   .     A
C358   F380    1.355   .     S
H359   C385    1.088   .     S
H360   C424    1.088   1_455 S
N365   Zn375   2.011   .     S
N366   Zn376   2.011   .     S
O367   Zn375   2.002   .     S
O368   Zn376   2.002   .     S
O369   Zn376   2.002   .     S
O370   Zn375   2.002   .     S
O371   Zn375   1.970   .     S
O372   Zn376   1.970   .     S
O373   Zn376   1.982   .     S
O374   Zn375   1.982   .     S
C381   O405    1.284   .     A
C381   C392    1.421   .     S
C381   O407    1.284   .     A
C382   O406    1.284   .     A
C382   C391    1.421   .     S
C382   O408    1.284   .     A
C383   O411    1.281   .     A
C383   O409    1.278   .     A
C383   C385    1.403   .     S
C384   O412    1.281   .     A
C384   C386    1.403   .     S
C384   O410    1.278   .     A
C386   C423    1.330   .     S
C386   H436    1.088   .     S
C387   H399    1.084   .     S
C387   C392    1.397   .     A
C387   C617    1.370   1_545 S
C388   H400    1.084   .     S
C388   C391    1.397   .     A
C388   C504    1.370   .     S
C389   C391    1.398   .     A
C389   H401    1.084   .     S
C389   C501    1.370   .     S
C390   H402    1.084   .     S
C390   C392    1.398   .     A
C390   C616    1.370   1_545 S
C393   F415    1.355   .     S
C393   N404    1.367   .     A
C394   N403    1.367   .     A
C394   F416    1.355   .     S
C394   C738    1.417   .     S
C395   N403    1.367   .     A
C395   F417    1.355   .     S
C395   C735    1.417   .     S
C396   N404    1.367   .     A
C396   F418    1.355   .     S
H397   C423    1.088   .     S
N403   Zn413   2.011   .     S
N404   Zn414   2.011   .     S
O405   Zn413   2.002   .     S
O406   Zn414   2.002   .     S
O407   Zn414   2.002   .     S
O408   Zn413   2.002   .     S
O409   Zn413   1.970   .     S
O410   Zn414   1.970   .     S
O411   Zn414   1.982   .     S
O412   Zn413   1.982   .     S
C419   O443    1.284   .     A
C419   C430    1.421   .     S
C419   O445    1.284   .     A
C420   O444    1.284   .     A
C420   C429    1.421   .     S
C420   O446    1.284   .     A
C421   O449    1.281   .     A
C421   O447    1.278   .     A
C421   C423    1.403   .     S
C422   O450    1.281   .     A
C422   C424    1.403   .     S
C422   O448    1.278   .     A
C424   C347    1.330   1_655 S
C424   H360    1.088   1_655 S
C425   H437    1.084   .     S
C425   C430    1.397   .     A
C425   C655    1.370   1_545 S
C426   H438    1.084   .     S
C426   C429    1.397   .     A
C426   C542    1.370   .     S
C427   C429    1.398   .     A
C427   H439    1.084   .     S
C427   C539    1.370   .     S
C428   H440    1.084   .     S
C428   C430    1.398   .     A
C428   C654    1.370   1_545 S
C431   F453    1.355   .     S
C431   N442    1.367   .     A
C432   N441    1.367   .     A
C432   F454    1.355   .     S
C432   C776    1.417   .     S
C433   N441    1.367   .     A
C433   F455    1.355   .     S
C433   C773    1.417   .     S
C434   N442    1.367   .     A
C434   F456    1.355   .     S
H435   C347    1.088   1_655 S
N441   Zn451   2.011   .     S
N442   Zn452   2.011   .     S
O443   Zn451   2.002   .     S
O444   Zn452   2.002   .     S
O445   Zn452   2.002   .     S
O446   Zn451   2.002   .     S
O447   Zn451   1.970   .     S
O448   Zn452   1.970   .     S
O449   Zn452   1.982   .     S
O450   Zn451   1.982   .     S
C457   O481    1.284   .     A
C457   C468    1.421   .     S
C457   O483    1.284   .     A
C458   O482    1.284   .     A
C458   C467    1.421   .     S
C458   O484    1.284   .     A
C459   O487    1.281   .     A
C459   O485    1.278   .     A
C459   C461    1.403   .     S
C460   O488    1.281   .     A
C460   C462    1.403   .     S
C460   O486    1.278   .     A
C461   C538    1.330   1_455 S
C461   H549    1.088   1_455 S
C462   C499    1.330   .     S
C462   H512    1.088   .     S
C463   H475    1.084   .     S
C463   C468    1.397   .     A
C464   H476    1.084   .     S
C464   C467    1.397   .     A
C464   C580    1.370   .     S
C465   C467    1.398   .     A
C465   H477    1.084   .     S
C465   C577    1.370   .     S
C466   H478    1.084   .     S
C466   C468    1.398   .     A
C469   F491    1.355   .     S
C469   N480    1.367   .     A
C470   N479    1.367   .     A
C470   F492    1.355   .     S
C470   C814    1.417   .     S
C471   N479    1.367   .     A
C471   F493    1.355   .     S
C471   C811    1.417   .     S
C472   N480    1.367   .     A
C472   F494    1.355   .     S
H473   C499    1.088   .     S
H474   C538    1.088   1_455 S
N479   Zn489   2.011   .     S
N480   Zn490   2.011   .     S
O481   Zn489   2.002   .     S
O482   Zn490   2.002   .     S
O483   Zn490   2.002   .     S
O484   Zn489   2.002   .     S
O485   Zn489   1.970   .     S
O486   Zn490   1.970   .     S
O487   Zn490   1.982   .     S
O488   Zn489   1.982   .     S
C495   O519    1.284   .     A
C495   C506    1.421   .     S
C495   O521    1.284   .     A
C496   O520    1.284   .     A
C496   C505    1.421   .     S
C496   O522    1.284   .     A
C497   O525    1.281   .     A
C497   O523    1.278   .     A
C497   C499    1.403   .     S
C498   O526    1.281   .     A
C498   C500    1.403   .     S
C498   O524    1.278   .     A
C500   C537    1.330   .     S
C500   H550    1.088   .     S
C501   H513    1.084   .     S
C501   C506    1.397   .     A
C502   H514    1.084   .     S
C502   C505    1.397   .     A
C502   C618    1.370   .     S
C503   C505    1.398   .     A
C503   H515    1.084   .     S
C503   C615    1.370   .     S
C504   H516    1.084   .     S
C504   C506    1.398   .     A
C507   F529    1.355   .     S
C507   N518    1.367   .     A
C508   N517    1.367   .     A
C508   F530    1.355   .     S
C508   C852    1.417   .     S
C509   N517    1.367   .     A
C509   F531    1.355   .     S
C509   C849    1.417   .     S
C510   N518    1.367   .     A
C510   F532    1.355   .     S
H511   C537    1.088   .     S
N517   Zn527   2.011   .     S
N518   Zn528   2.011   .     S
O519   Zn527   2.002   .     S
O520   Zn528   2.002   .     S
O521   Zn528   2.002   .     S
O522   Zn527   2.002   .     S
O523   Zn527   1.970   .     S
O524   Zn528   1.970   .     S
O525   Zn528   1.982   .     S
O526   Zn527   1.982   .     S
C533   O557    1.284   .     A
C533   C544    1.421   .     S
C533   O559    1.284   .     A
C534   O558    1.284   .     A
C534   C543    1.421   .     S
C534   O560    1.284   .     A
C535   O563    1.281   .     A
C535   O561    1.278   .     A
C535   C537    1.403   .     S
C536   O564    1.281   .     A
C536   C538    1.403   .     S
C536   O562    1.278   .     A
C538   C461    1.330   1_655 S
C538   H474    1.088   1_655 S
C539   H551    1.084   .     S
C539   C544    1.397   .     A
C540   H552    1.084   .     S
C540   C543    1.397   .     A
C540   C656    1.370   .     S
C541   C543    1.398   .     A
C541   H553    1.084   .     S
C541   C653    1.370   .     S
C542   H554    1.084   .     S
C542   C544    1.398   .     A
C545   F567    1.355   .     S
C545   N556    1.367   .     A
C546   N555    1.367   .     A
C546   F568    1.355   .     S
C546   C890    1.417   .     S
C547   N555    1.367   .     A
C547   F569    1.355   .     S
C547   C887    1.417   .     S
C548   N556    1.367   .     A
C548   F570    1.355   .     S
H549   C461    1.088   1_655 S
N555   Zn565   2.011   .     S
N556   Zn566   2.011   .     S
O557   Zn565   2.002   .     S
O558   Zn566   2.002   .     S
O559   Zn566   2.002   .     S
O560   Zn565   2.002   .     S
O561   Zn565   1.970   .     S
O562   Zn566   1.970   .     S
O563   Zn566   1.982   .     S
O564   Zn565   1.982   .     S
C571   O595    1.284   .     A
C571   C582    1.421   .     S
C571   O597    1.284   .     A
C572   O596    1.284   .     A
C572   C581    1.421   .     S
C572   O598    1.284   .     A
C573   O601    1.281   .     A
C573   O599    1.278   .     A
C573   C575    1.403   .     S
C574   O602    1.281   .     A
C574   C576    1.403   .     S
C574   O600    1.278   .     A
C575   C652    1.330   1_455 S
C575   H663    1.088   1_455 S
C576   C613    1.330   .     S
C576   H626    1.088   .     S
C577   H589    1.084   .     S
C577   C582    1.397   .     A
C578   H590    1.084   .     S
C578   C581    1.397   .     A
C578   C352    1.370   1_565 S
C579   C581    1.398   .     A
C579   H591    1.084   .     S
C579   C349    1.370   1_565 S
C580   H592    1.084   .     S
C580   C582    1.398   .     A
C583   F605    1.355   .     S
C583   N594    1.367   .     A
C584   N593    1.367   .     A
C584   F606    1.355   .     S
C584   C928    1.417   .     S
C585   N593    1.367   .     A
C585   F607    1.355   .     S
C585   C925    1.417   .     S
C586   N594    1.367   .     A
C586   F608    1.355   .     S
H587   C613    1.088   .     S
H588   C652    1.088   1_455 S
N593   Zn603   2.011   .     S
N594   Zn604   2.011   .     S
O595   Zn603   2.002   .     S
O596   Zn604   2.002   .     S
O597   Zn604   2.002   .     S
O598   Zn603   2.002   .     S
O599   Zn603   1.970   .     S
O600   Zn604   1.970   .     S
O601   Zn604   1.982   .     S
O602   Zn603   1.982   .     S
C609   O633    1.284   .     A
C609   C620    1.421   .     S
C609   O635    1.284   .     A
C610   O634    1.284   .     A
C610   C619    1.421   .     S
C610   O636    1.284   .     A
C611   O639    1.281   .     A
C611   O637    1.278   .     A
C611   C613    1.403   .     S
C612   O640    1.281   .     A
C612   C614    1.403   .     S
C612   O638    1.278   .     A
C614   C651    1.330   .     S
C614   H664    1.088   .     S
C615   H627    1.084   .     S
C615   C620    1.397   .     A
C616   H628    1.084   .     S
C616   C619    1.397   .     A
C616   C390    1.370   1_565 S
C617   C619    1.398   .     A
C617   H629    1.084   .     S
C617   C387    1.370   1_565 S
C618   H630    1.084   .     S
C618   C620    1.398   .     A
C621   F643    1.355   .     S
C621   N632    1.367   .     A
C622   N631    1.367   .     A
C622   F644    1.355   .     S
C622   C966    1.417   .     S
C623   N631    1.367   .     A
C623   F645    1.355   .     S
C623   C963    1.417   .     S
C624   N632    1.367   .     A
C624   F646    1.355   .     S
H625   C651    1.088   .     S
N631   Zn641   2.011   .     S
N632   Zn642   2.011   .     S
O633   Zn641   2.002   .     S
O634   Zn642   2.002   .     S
O635   Zn642   2.002   .     S
O636   Zn641   2.002   .     S
O637   Zn641   1.970   .     S
O638   Zn642   1.970   .     S
O639   Zn642   1.982   .     S
O640   Zn641   1.982   .     S
C647   O671    1.284   .     A
C647   C658    1.421   .     S
C647   O673    1.284   .     A
C648   O672    1.284   .     A
C648   C657    1.421   .     S
C648   O674    1.284   .     A
C649   O677    1.281   .     A
C649   O675    1.278   .     A
C649   C651    1.403   .     S
C650   O678    1.281   .     A
C650   C652    1.403   .     S
C650   O676    1.278   .     A
C652   C575    1.330   1_655 S
C652   H588    1.088   1_655 S
C653   H665    1.084   .     S
C653   C658    1.397   .     A
C654   H666    1.084   .     S
C654   C657    1.397   .     A
C654   C428    1.370   1_565 S
C655   C657    1.398   .     A
C655   H667    1.084   .     S
C655   C425    1.370   1_565 S
C656   H668    1.084   .     S
C656   C658    1.398   .     A
C659   F681    1.355   .     S
C659   N670    1.367   .     A
C660   N669    1.367   .     A
C660   F682    1.355   .     S
C660   C1004   1.417   .     S
C661   N669    1.367   .     A
C661   F683    1.355   .     S
C661   C1001   1.417   .     S
C662   N670    1.367   .     A
C662   F684    1.355   .     S
H663   C575    1.088   1_655 S
N669   Zn679   2.011   .     S
N670   Zn680   2.011   .     S
O671   Zn679   2.002   .     S
O672   Zn680   2.002   .     S
O673   Zn680   2.002   .     S
O674   Zn679   2.002   .     S
O675   Zn679   1.970   .     S
O676   Zn680   1.970   .     S
O677   Zn680   1.982   .     S
O678   Zn679   1.982   .     S
C685   O709    1.284   .     A
C685   C696    1.421   .     S
C685   O711    1.284   .     A
C686   O710    1.284   .     A
C686   C695    1.421   .     S
C686   O712    1.284   .     A
C687   O715    1.281   .     A
C687   O713    1.278   .     A
C687   C689    1.403   .     S
C688   O716    1.281   .     A
C688   C690    1.403   .     S
C688   O714    1.278   .     A
C689   C766    1.330   1_455 S
C689   H777    1.088   1_455 S
C690   C727    1.330   .     S
C690   H740    1.088   .     S
C691   H703    1.084   .     S
C691   C696    1.397   .     A
C691   C921    1.370   1_545 S
C692   H704    1.084   .     S
C692   C695    1.397   .     A
C692   C808    1.370   .     S
C693   C695    1.398   .     A
C693   H705    1.084   .     S
C693   C805    1.370   .     S
C694   H706    1.084   .     S
C694   C696    1.398   .     A
C694   C920    1.370   1_545 S
C697   F719    1.355   .     S
C697   N708    1.367   .     A
C698   N707    1.367   .     A
C698   F720    1.355   .     S
C698   C16     1.417   1_556 S
C699   N707    1.367   .     A
C699   F721    1.355   .     S
C699   C13     1.417   1_556 S
C700   N708    1.367   .     A
C700   F722    1.355   .     S
H701   C727    1.088   .     S
H702   C766    1.088   1_455 S
N707   Zn717   2.011   .     S
N708   Zn718   2.011   .     S
O709   Zn717   2.002   .     S
O710   Zn718   2.002   .     S
O711   Zn718   2.002   .     S
O712   Zn717   2.002   .     S
O713   Zn717   1.970   .     S
O714   Zn718   1.970   .     S
O715   Zn718   1.982   .     S
O716   Zn717   1.982   .     S
C723   O747    1.284   .     A
C723   C734    1.421   .     S
C723   O749    1.284   .     A
C724   O748    1.284   .     A
C724   C733    1.421   .     S
C724   O750    1.284   .     A
C725   O753    1.281   .     A
C725   O751    1.278   .     A
C725   C727    1.403   .     S
C726   O754    1.281   .     A
C726   C728    1.403   .     S
C726   O752    1.278   .     A
C728   C765    1.330   .     S
C728   H778    1.088   .     S
C729   H741    1.084   .     S
C729   C734    1.397   .     A
C729   C959    1.370   1_545 S
C730   H742    1.084   .     S
C730   C733    1.397   .     A
C730   C846    1.370   .     S
C731   C733    1.398   .     A
C731   H743    1.084   .     S
C731   C843    1.370   .     S
C732   H744    1.084   .     S
C732   C734    1.398   .     A
C732   C958    1.370   1_545 S
C735   F757    1.355   .     S
C735   N746    1.367   .     A
C736   N745    1.367   .     A
C736   F758    1.355   .     S
C736   C54     1.417   1_556 S
C737   N745    1.367   .     A
C737   F759    1.355   .     S
C737   C51     1.417   1_556 S
C738   N746    1.367   .     A
C738   F760    1.355   .     S
H739   C765    1.088   .     S
N745   Zn755   2.011   .     S
N746   Zn756   2.011   .     S
O747   Zn755   2.002   .     S
O748   Zn756   2.002   .     S
O749   Zn756   2.002   .     S
O750   Zn755   2.002   .     S
O751   Zn755   1.970   .     S
O752   Zn756   1.970   .     S
O753   Zn756   1.982   .     S
O754   Zn755   1.982   .     S
C761   O785    1.284   .     A
C761   C772    1.421   .     S
C761   O787    1.284   .     A
C762   O786    1.284   .     A
C762   C771    1.421   .     S
C762   O788    1.284   .     A
C763   O791    1.281   .     A
C763   O789    1.278   .     A
C763   C765    1.403   .     S
C764   O792    1.281   .     A
C764   C766    1.403   .     S
C764   O790    1.278   .     A
C766   C689    1.330   1_655 S
C766   H702    1.088   1_655 S
C767   H779    1.084   .     S
C767   C772    1.397   .     A
C767   C997    1.370   1_545 S
C768   H780    1.084   .     S
C768   C771    1.397   .     A
C768   C884    1.370   .     S
C769   C771    1.398   .     A
C769   H781    1.084   .     S
C769   C881    1.370   .     S
C770   H782    1.084   .     S
C770   C772    1.398   .     A
C770   C996    1.370   1_545 S
C773   F795    1.355   .     S
C773   N784    1.367   .     A
C774   N783    1.367   .     A
C774   F796    1.355   .     S
C774   C92     1.417   1_556 S
C775   N783    1.367   .     A
C775   F797    1.355   .     S
C775   C89     1.417   1_556 S
C776   N784    1.367   .     A
C776   F798    1.355   .     S
H777   C689    1.088   1_655 S
N783   Zn793   2.011   .     S
N784   Zn794   2.011   .     S
O785   Zn793   2.002   .     S
O786   Zn794   2.002   .     S
O787   Zn794   2.002   .     S
O788   Zn793   2.002   .     S
O789   Zn793   1.970   .     S
O790   Zn794   1.970   .     S
O791   Zn794   1.982   .     S
O792   Zn793   1.982   .     S
C799   O823    1.284   .     A
C799   C810    1.421   .     S
C799   O825    1.284   .     A
C800   O824    1.284   .     A
C800   C809    1.421   .     S
C800   O826    1.284   .     A
C801   O829    1.281   .     A
C801   O827    1.278   .     A
C801   C803    1.403   .     S
C802   O830    1.281   .     A
C802   C804    1.403   .     S
C802   O828    1.278   .     A
C803   C880    1.330   1_455 S
C803   H891    1.088   1_455 S
C804   C841    1.330   .     S
C804   H854    1.088   .     S
C805   H817    1.084   .     S
C805   C810    1.397   .     A
C806   H818    1.084   .     S
C806   C809    1.397   .     A
C806   C922    1.370   .     S
C807   C809    1.398   .     A
C807   H819    1.084   .     S
C807   C919    1.370   .     S
C808   H820    1.084   .     S
C808   C810    1.398   .     A
C811   F833    1.355   .     S
C811   N822    1.367   .     A
C812   N821    1.367   .     A
C812   F834    1.355   .     S
C812   C130    1.417   1_556 S
C813   N821    1.367   .     A
C813   F835    1.355   .     S
C813   C127    1.417   1_556 S
C814   N822    1.367   .     A
C814   F836    1.355   .     S
H815   C841    1.088   .     S
H816   C880    1.088   1_455 S
N821   Zn831   2.011   .     S
N822   Zn832   2.011   .     S
O823   Zn831   2.002   .     S
O824   Zn832   2.002   .     S
O825   Zn832   2.002   .     S
O826   Zn831   2.002   .     S
O827   Zn831   1.970   .     S
O828   Zn832   1.970   .     S
O829   Zn832   1.982   .     S
O830   Zn831   1.982   .     S
C837   O861    1.284   .     A
C837   C848    1.421   .     S
C837   O863    1.284   .     A
C838   O862    1.284   .     A
C838   C847    1.421   .     S
C838   O864    1.284   .     A
C839   O867    1.281   .     A
C839   O865    1.278   .     A
C839   C841    1.403   .     S
C840   O868    1.281   .     A
C840   C842    1.403   .     S
C840   O866    1.278   .     A
C842   C879    1.330   .     S
C842   H892    1.088   .     S
C843   H855    1.084   .     S
C843   C848    1.397   .     A
C844   H856    1.084   .     S
C844   C847    1.397   .     A
C844   C960    1.370   .     S
C845   C847    1.398   .     A
C845   H857    1.084   .     S
C845   C957    1.370   .     S
C846   H858    1.084   .     S
C846   C848    1.398   .     A
C849   F871    1.355   .     S
C849   N860    1.367   .     A
C850   N859    1.367   .     A
C850   F872    1.355   .     S
C850   C168    1.417   1_556 S
C851   N859    1.367   .     A
C851   F873    1.355   .     S
C851   C165    1.417   1_556 S
C852   N860    1.367   .     A
C852   F874    1.355   .     S
H853   C879    1.088   .     S
N859   Zn869   2.011   .     S
N860   Zn870   2.011   .     S
O861   Zn869   2.002   .     S
O862   Zn870   2.002   .     S
O863   Zn870   2.002   .     S
O864   Zn869   2.002   .     S
O865   Zn869   1.970   .     S
O866   Zn870   1.970   .     S
O867   Zn870   1.982   .     S
O868   Zn869   1.982   .     S
C875   O899    1.284   .     A
C875   C886    1.421   .     S
C875   O901    1.284   .     A
C876   O900    1.284   .     A
C876   C885    1.421   .     S
C876   O902    1.284   .     A
C877   O905    1.281   .     A
C877   O903    1.278   .     A
C877   C879    1.403   .     S
C878   O906    1.281   .     A
C878   C880    1.403   .     S
C878   O904    1.278   .     A
C880   C803    1.330   1_655 S
C880   H816    1.088   1_655 S
C881   H893    1.084   .     S
C881   C886    1.397   .     A
C882   H894    1.084   .     S
C882   C885    1.397   .     A
C882   C998    1.370   .     S
C883   C885    1.398   .     A
C883   H895    1.084   .     S
C883   C995    1.370   .     S
C884   H896    1.084   .     S
C884   C886    1.398   .     A
C887   F909    1.355   .     S
C887   N898    1.367   .     A
C888   N897    1.367   .     A
C888   F910    1.355   .     S
C888   C206    1.417   1_556 S
C889   N897    1.367   .     A
C889   F911    1.355   .     S
C889   C203    1.417   1_556 S
C890   N898    1.367   .     A
C890   F912    1.355   .     S
H891   C803    1.088   1_655 S
N897   Zn907   2.011   .     S
N898   Zn908   2.011   .     S
O899   Zn907   2.002   .     S
O900   Zn908   2.002   .     S
O901   Zn908   2.002   .     S
O902   Zn907   2.002   .     S
O903   Zn907   1.970   .     S
O904   Zn908   1.970   .     S
O905   Zn908   1.982   .     S
O906   Zn907   1.982   .     S
C913   O937    1.284   .     A
C913   C924    1.421   .     S
C913   O939    1.284   .     A
C914   O938    1.284   .     A
C914   C923    1.421   .     S
C914   O940    1.284   .     A
C915   O943    1.281   .     A
C915   O941    1.278   .     A
C915   C917    1.403   .     S
C916   O944    1.281   .     A
C916   C918    1.403   .     S
C916   O942    1.278   .     A
C917   C994    1.330   1_455 S
C917   H1005   1.088   1_455 S
C918   C955    1.330   .     S
C918   H968    1.088   .     S
C919   H931    1.084   .     S
C919   C924    1.397   .     A
C920   H932    1.084   .     S
C920   C923    1.397   .     A
C920   C694    1.370   1_565 S
C921   C923    1.398   .     A
C921   H933    1.084   .     S
C921   C691    1.370   1_565 S
C922   H934    1.084   .     S
C922   C924    1.398   .     A
C925   F947    1.355   .     S
C925   N936    1.367   .     A
C926   N935    1.367   .     A
C926   F948    1.355   .     S
C926   C244    1.417   1_556 S
C927   N935    1.367   .     A
C927   F949    1.355   .     S
C927   C241    1.417   1_556 S
C928   N936    1.367   .     A
C928   F950    1.355   .     S
H929   C955    1.088   .     S
H930   C994    1.088   1_455 S
N935   Zn945   2.011   .     S
N936   Zn946   2.011   .     S
O937   Zn945   2.002   .     S
O938   Zn946   2.002   .     S
O939   Zn946   2.002   .     S
O940   Zn945   2.002   .     S
O941   Zn945   1.970   .     S
O942   Zn946   1.970   .     S
O943   Zn946   1.982   .     S
O944   Zn945   1.982   .     S
C951   O975    1.284   .     A
C951   C962    1.421   .     S
C951   O977    1.284   .     A
C952   O976    1.284   .     A
C952   C961    1.421   .     S
C952   O978    1.284   .     A
C953   O981    1.281   .     A
C953   O979    1.278   .     A
C953   C955    1.403   .     S
C954   O982    1.281   .     A
C954   C956    1.403   .     S
C954   O980    1.278   .     A
C956   C993    1.330   .     S
C956   H1006   1.088   .     S
C957   H969    1.084   .     S
C957   C962    1.397   .     A
C958   H970    1.084   .     S
C958   C961    1.397   .     A
C958   C732    1.370   1_565 S
C959   C961    1.398   .     A
C959   H971    1.084   .     S
C959   C729    1.370   1_565 S
C960   H972    1.084   .     S
C960   C962    1.398   .     A
C963   F985    1.355   .     S
C963   N974    1.367   .     A
C964   N973    1.367   .     A
C964   F986    1.355   .     S
C964   C282    1.417   1_556 S
C965   N973    1.367   .     A
C965   F987    1.355   .     S
C965   C279    1.417   1_556 S
C966   N974    1.367   .     A
C966   F988    1.355   .     S
H967   C993    1.088   .     S
N973   Zn983   2.011   .     S
N974   Zn984   2.011   .     S
O975   Zn983   2.002   .     S
O976   Zn984   2.002   .     S
O977   Zn984   2.002   .     S
O978   Zn983   2.002   .     S
O979   Zn983   1.970   .     S
O980   Zn984   1.970   .     S
O981   Zn984   1.982   .     S
O982   Zn983   1.982   .     S
C989   O1013   1.284   .     A
C989   C1000   1.421   .     S
C989   O1015   1.284   .     A
C990   O1014   1.284   .     A
C990   C999    1.421   .     S
C990   O1016   1.284   .     A
C991   O1019   1.281   .     A
C991   O1017   1.278   .     A
C991   C993    1.403   .     S
C992   O1020   1.281   .     A
C992   C994    1.403   .     S
C992   O1018   1.278   .     A
C994   C917    1.330   1_655 S
C994   H930    1.088   1_655 S
C995   H1007   1.084   .     S
C995   C1000   1.397   .     A
C996   H1008   1.084   .     S
C996   C999    1.397   .     A
C996   C770    1.370   1_565 S
C997   C999    1.398   .     A
C997   H1009   1.084   .     S
C997   C767    1.370   1_565 S
C998   H1010   1.084   .     S
C998   C1000   1.398   .     A
C1001  F1023   1.355   .     S
C1001  N1012   1.367   .     A
C1002  N1011   1.367   .     A
C1002  F1024   1.355   .     S
C1002  C320    1.417   1_556 S
C1003  N1011   1.367   .     A
C1003  F1025   1.355   .     S
C1003  C317    1.417   1_556 S
C1004  N1012   1.367   .     A
C1004  F1026   1.355   .     S
H1005  C917    1.088   1_655 S
N1011  Zn1021  2.011   .     S
N1012  Zn1022  2.011   .     S
O1013  Zn1021  2.002   .     S
O1014  Zn1022  2.002   .     S
O1015  Zn1022  2.002   .     S
O1016  Zn1021  2.002   .     S
O1017  Zn1021  1.970   .     S
O1018  Zn1022  1.970   .     S
O1019  Zn1022  1.982   .     S
O1020  Zn1021  1.982   .     S
