data_str_m3_o10_o17_pcu_sym.156
_audit_creation_date              2020-01-03
_audit_creation_method            'Materials Studio'
_symmetry_space_group_name_H-M    'P1'
_symmetry_Int_Tables_number       1
_symmetry_cell_setting            triclinic
loop_
_symmetry_equiv_pos_as_xyz
  x,y,z
_cell_length_a                    23.3050
_cell_length_b                    25.8373
_cell_length_c                    29.7634
_cell_angle_alpha                 91.1562
_cell_angle_beta                  86.1680
_cell_angle_gamma                 93.3434
loop_
_atom_site_label
_atom_site_type_symbol
_atom_site_fract_x
_atom_site_fract_y
_atom_site_fract_z
_atom_site_U_iso_or_equiv
_atom_site_adp_type
_atom_site_occupancy
C1     C     0.18167   0.26477   0.24956   0.00000  Uiso   1.00
C2     C     0.18299   0.21539   0.40708   0.00000  Uiso   1.00
C3     C     0.16346   0.16478   0.11622   0.00000  Uiso   1.00
C4     C     0.16987   0.16855   0.38378   0.00000  Uiso   1.00
C5     C     0.17682   0.21125   0.09418   0.00000  Uiso   1.00
C6     C     0.15652   0.12208   0.40583   0.00000  Uiso   1.00
C7     C     0.17805   0.21239   0.04781   0.00000  Uiso   1.00
C8     C     0.15528   0.12095   0.45219   0.00000  Uiso   1.00
C9     C     0.16574   0.16613   0.02347   0.00000  Uiso   1.00
C10    C     0.16760   0.16720   0.47653   0.00000  Uiso   1.00
C11    C     0.15171   0.11881   0.04600   0.00000  Uiso   1.00
C12    C     0.15166   0.06857   0.25044   0.00000  Uiso   1.00
C13    C     0.18163   0.21452   0.45400   0.00000  Uiso   1.00
C14    C     0.19188   0.25902   0.02555   0.00000  Uiso   1.00
C15    C     0.14145   0.07432   0.47445   0.00000  Uiso   1.00
C16    C     0.19368   0.26014   0.47891   0.00000  Uiso   1.00
C17    C     0.13965   0.07319   0.02109   0.00000  Uiso   1.00
C18    C     0.18844   0.31907   0.25570   0.00000  Uiso   1.00
C19    C     0.14490   0.01426   0.24430   0.00000  Uiso   1.00
C20    C     0.16762   0.16709   0.33631   0.00000  Uiso   1.00
C21    C     0.16571   0.16624   0.16369   0.00000  Uiso   1.00
C22    C     0.15035   0.11795   0.09292   0.00000  Uiso   1.00
H23    H     0.18674   0.24648   0.11337   0.00000  Uiso   1.00
H24    H     0.19665   0.25738   0.35257   0.00000  Uiso   1.00
H25    H     0.25968   0.31296   0.28638   0.00000  Uiso   1.00
H26    H     0.07368   0.02038   0.21360   0.00000  Uiso   1.00
H27    H     0.14660   0.08685   0.38663   0.00000  Uiso   1.00
H28    H     0.20143   0.29459   0.04422   0.00000  Uiso   1.00
H29    H     0.13191   0.03874   0.45578   0.00000  Uiso   1.00
H30    H     0.20455   0.29681   0.46255   0.00000  Uiso   1.00
H31    H     0.12878   0.03652   0.03745   0.00000  Uiso   1.00
H32    H     0.00462   0.12754   0.21613   0.00000  Uiso   1.00
H33    H     0.32871   0.20579   0.28387   0.00000  Uiso   1.00
H34    H     0.13669   0.07595   0.14743   0.00000  Uiso   1.00
N35    N     0.31678   0.15265   0.23783   0.00000  Uiso   1.00
N36    N     0.01656   0.18068   0.26217   0.00000  Uiso   1.00
O37    O     0.12975   0.24619   0.25299   0.00000  Uiso   1.00
O38    O     0.19631   0.26212   0.38560   0.00000  Uiso   1.00
O39    O     0.23517   0.00737   0.27763   0.00000  Uiso   1.00
O40    O     0.09815   0.32597   0.22238   0.00000  Uiso   1.00
O41    O     0.20358   0.08714   0.24702   0.00000  Uiso   1.00
O42    O     0.22613   0.23721   0.24519   0.00000  Uiso   1.00
O43    O     0.10720   0.09613   0.25482   0.00000  Uiso   1.00
O44    O     0.11847   0.17117   0.31998   0.00000  Uiso   1.00
O45    O     0.21486   0.16216   0.18003   0.00000  Uiso   1.00
O46    O     0.21485   0.16219   0.31218   0.00000  Uiso   1.00
O47    O     0.11848   0.17115   0.18783   0.00000  Uiso   1.00
O48    O     0.13703   0.07122   0.11440   0.00000  Uiso   1.00
Zn49   Zn    0.10231   0.17266   0.25521   0.00000  Uiso   1.00
Zn50   Zn    0.23102   0.16067   0.24479   0.00000  Uiso   1.00
C51    C     0.51500   0.26477   0.24956   0.00000  Uiso   1.00
C52    C     0.51632   0.21539   0.40708   0.00000  Uiso   1.00
C53    C     0.49679   0.16478   0.11622   0.00000  Uiso   1.00
C54    C     0.50321   0.16855   0.38378   0.00000  Uiso   1.00
C55    C     0.51015   0.21125   0.09418   0.00000  Uiso   1.00
C56    C     0.48985   0.12208   0.40583   0.00000  Uiso   1.00
C57    C     0.51139   0.21239   0.04781   0.00000  Uiso   1.00
C58    C     0.48861   0.12095   0.45219   0.00000  Uiso   1.00
C59    C     0.49907   0.16613   0.02347   0.00000  Uiso   1.00
C60    C     0.50093   0.16720   0.47653   0.00000  Uiso   1.00
C61    C     0.48504   0.11881   0.04600   0.00000  Uiso   1.00
C62    C     0.48499   0.06857   0.25044   0.00000  Uiso   1.00
C63    C     0.51496   0.21452   0.45400   0.00000  Uiso   1.00
C64    C     0.52522   0.25902   0.02555   0.00000  Uiso   1.00
C65    C     0.47478   0.07432   0.47445   0.00000  Uiso   1.00
C66    C     0.52701   0.26014   0.47891   0.00000  Uiso   1.00
C67    C     0.47299   0.07319   0.02109   0.00000  Uiso   1.00
C68    C     0.52177   0.31907   0.25570   0.00000  Uiso   1.00
C69    C     0.47823   0.01426   0.24430   0.00000  Uiso   1.00
C70    C     0.50096   0.16709   0.33631   0.00000  Uiso   1.00
C71    C     0.49904   0.16624   0.16369   0.00000  Uiso   1.00
C72    C     0.48368   0.11795   0.09292   0.00000  Uiso   1.00
H73    H     0.52007   0.24648   0.11337   0.00000  Uiso   1.00
H74    H     0.52998   0.25738   0.35257   0.00000  Uiso   1.00
H75    H     0.59301   0.31296   0.28638   0.00000  Uiso   1.00
H76    H     0.40702   0.02038   0.21360   0.00000  Uiso   1.00
H77    H     0.47993   0.08685   0.38663   0.00000  Uiso   1.00
H78    H     0.53476   0.29459   0.04422   0.00000  Uiso   1.00
H79    H     0.46524   0.03874   0.45578   0.00000  Uiso   1.00
H80    H     0.53788   0.29681   0.46255   0.00000  Uiso   1.00
H81    H     0.46212   0.03652   0.03745   0.00000  Uiso   1.00
H82    H     0.33796   0.12754   0.21613   0.00000  Uiso   1.00
H83    H     0.66204   0.20579   0.28387   0.00000  Uiso   1.00
H84    H     0.47002   0.07595   0.14743   0.00000  Uiso   1.00
N85    N     0.65011   0.15265   0.23783   0.00000  Uiso   1.00
N86    N     0.34989   0.18068   0.26217   0.00000  Uiso   1.00
O87    O     0.46308   0.24619   0.25299   0.00000  Uiso   1.00
O88    O     0.52964   0.26212   0.38560   0.00000  Uiso   1.00
O89    O     0.56851   0.00737   0.27763   0.00000  Uiso   1.00
O90    O     0.43149   0.32597   0.22238   0.00000  Uiso   1.00
O91    O     0.53692   0.08714   0.24702   0.00000  Uiso   1.00
O92    O     0.55946   0.23721   0.24519   0.00000  Uiso   1.00
O93    O     0.44054   0.09613   0.25482   0.00000  Uiso   1.00
O94    O     0.45181   0.17117   0.31998   0.00000  Uiso   1.00
O95    O     0.54819   0.16216   0.18003   0.00000  Uiso   1.00
O96    O     0.54819   0.16219   0.31218   0.00000  Uiso   1.00
O97    O     0.45181   0.17115   0.18783   0.00000  Uiso   1.00
O98    O     0.47036   0.07122   0.11440   0.00000  Uiso   1.00
Zn99   Zn    0.43565   0.17266   0.25521   0.00000  Uiso   1.00
Zn100  Zn    0.56435   0.16067   0.24479   0.00000  Uiso   1.00
C101   C     0.84834   0.26477   0.24956   0.00000  Uiso   1.00
C102   C     0.84965   0.21539   0.40708   0.00000  Uiso   1.00
C103   C     0.83013   0.16478   0.11622   0.00000  Uiso   1.00
C104   C     0.83654   0.16855   0.38378   0.00000  Uiso   1.00
C105   C     0.84348   0.21125   0.09418   0.00000  Uiso   1.00
C106   C     0.82318   0.12208   0.40583   0.00000  Uiso   1.00
C107   C     0.84472   0.21239   0.04781   0.00000  Uiso   1.00
C108   C     0.82195   0.12095   0.45219   0.00000  Uiso   1.00
C109   C     0.83241   0.16613   0.02347   0.00000  Uiso   1.00
C110   C     0.83426   0.16720   0.47653   0.00000  Uiso   1.00
C111   C     0.81838   0.11881   0.04600   0.00000  Uiso   1.00
C112   C     0.81833   0.06857   0.25044   0.00000  Uiso   1.00
C113   C     0.84829   0.21452   0.45400   0.00000  Uiso   1.00
C114   C     0.85855   0.25902   0.02555   0.00000  Uiso   1.00
C115   C     0.80812   0.07432   0.47445   0.00000  Uiso   1.00
C116   C     0.86035   0.26014   0.47891   0.00000  Uiso   1.00
C117   C     0.80632   0.07319   0.02109   0.00000  Uiso   1.00
C118   C     0.85510   0.31907   0.25570   0.00000  Uiso   1.00
C119   C     0.81156   0.01426   0.24430   0.00000  Uiso   1.00
C120   C     0.83429   0.16709   0.33631   0.00000  Uiso   1.00
C121   C     0.83238   0.16624   0.16369   0.00000  Uiso   1.00
C122   C     0.81701   0.11795   0.09292   0.00000  Uiso   1.00
H123   H     0.85340   0.24648   0.11337   0.00000  Uiso   1.00
H124   H     0.86332   0.25738   0.35257   0.00000  Uiso   1.00
H125   H     0.92635   0.31296   0.28638   0.00000  Uiso   1.00
H126   H     0.74035   0.02038   0.21360   0.00000  Uiso   1.00
H127   H     0.81326   0.08685   0.38663   0.00000  Uiso   1.00
H128   H     0.86809   0.29459   0.04422   0.00000  Uiso   1.00
H129   H     0.79857   0.03874   0.45578   0.00000  Uiso   1.00
H130   H     0.87122   0.29681   0.46255   0.00000  Uiso   1.00
H131   H     0.79545   0.03652   0.03745   0.00000  Uiso   1.00
H132   H     0.67129   0.12754   0.21613   0.00000  Uiso   1.00
H133   H     0.99538   0.20579   0.28387   0.00000  Uiso   1.00
H134   H     0.80335   0.07595   0.14743   0.00000  Uiso   1.00
N135   N     0.98344   0.15265   0.23783   0.00000  Uiso   1.00
N136   N     0.68322   0.18068   0.26217   0.00000  Uiso   1.00
O137   O     0.79642   0.24619   0.25299   0.00000  Uiso   1.00
O138   O     0.86298   0.26212   0.38560   0.00000  Uiso   1.00
O139   O     0.90184   0.00737   0.27763   0.00000  Uiso   1.00
O140   O     0.76482   0.32597   0.22238   0.00000  Uiso   1.00
O141   O     0.87025   0.08714   0.24702   0.00000  Uiso   1.00
O142   O     0.89280   0.23721   0.24519   0.00000  Uiso   1.00
O143   O     0.77387   0.09613   0.25482   0.00000  Uiso   1.00
O144   O     0.78514   0.17117   0.31998   0.00000  Uiso   1.00
O145   O     0.88153   0.16216   0.18003   0.00000  Uiso   1.00
O146   O     0.88152   0.16219   0.31218   0.00000  Uiso   1.00
O147   O     0.78515   0.17115   0.18783   0.00000  Uiso   1.00
O148   O     0.80369   0.07122   0.11440   0.00000  Uiso   1.00
Zn149  Zn    0.76898   0.17266   0.25521   0.00000  Uiso   1.00
Zn150  Zn    0.89769   0.16067   0.24479   0.00000  Uiso   1.00
C151   C     0.18167   0.59810   0.24956   0.00000  Uiso   1.00
C152   C     0.18299   0.54872   0.40708   0.00000  Uiso   1.00
C153   C     0.16346   0.49812   0.11622   0.00000  Uiso   1.00
C154   C     0.16987   0.50188   0.38378   0.00000  Uiso   1.00
C155   C     0.17682   0.54459   0.09418   0.00000  Uiso   1.00
C156   C     0.15652   0.45542   0.40583   0.00000  Uiso   1.00
C157   C     0.17805   0.54572   0.04781   0.00000  Uiso   1.00
C158   C     0.15528   0.45428   0.45219   0.00000  Uiso   1.00
C159   C     0.16574   0.49946   0.02347   0.00000  Uiso   1.00
C160   C     0.16760   0.50054   0.47653   0.00000  Uiso   1.00
C161   C     0.15171   0.45214   0.04600   0.00000  Uiso   1.00
C162   C     0.15166   0.40190   0.25044   0.00000  Uiso   1.00
C163   C     0.18163   0.54786   0.45400   0.00000  Uiso   1.00
C164   C     0.19188   0.59235   0.02555   0.00000  Uiso   1.00
C165   C     0.14145   0.40765   0.47445   0.00000  Uiso   1.00
C166   C     0.19368   0.59347   0.47891   0.00000  Uiso   1.00
C167   C     0.13965   0.40653   0.02109   0.00000  Uiso   1.00
C168   C     0.18844   0.65241   0.25570   0.00000  Uiso   1.00
C169   C     0.14490   0.34759   0.24430   0.00000  Uiso   1.00
C170   C     0.16762   0.50043   0.33631   0.00000  Uiso   1.00
C171   C     0.16571   0.49958   0.16369   0.00000  Uiso   1.00
C172   C     0.15035   0.45128   0.09292   0.00000  Uiso   1.00
H173   H     0.18674   0.57981   0.11337   0.00000  Uiso   1.00
H174   H     0.19665   0.59071   0.35257   0.00000  Uiso   1.00
H175   H     0.25968   0.64630   0.28638   0.00000  Uiso   1.00
H176   H     0.07368   0.35371   0.21360   0.00000  Uiso   1.00
H177   H     0.14660   0.42019   0.38663   0.00000  Uiso   1.00
H178   H     0.20143   0.62793   0.04422   0.00000  Uiso   1.00
H179   H     0.13191   0.37207   0.45578   0.00000  Uiso   1.00
H180   H     0.20455   0.63014   0.46255   0.00000  Uiso   1.00
H181   H     0.12878   0.36986   0.03745   0.00000  Uiso   1.00
H182   H     0.00462   0.46088   0.21613   0.00000  Uiso   1.00
H183   H     0.32871   0.53912   0.28387   0.00000  Uiso   1.00
H184   H     0.13669   0.40929   0.14743   0.00000  Uiso   1.00
N185   N     0.31678   0.48598   0.23783   0.00000  Uiso   1.00
N186   N     0.01656   0.51402   0.26217   0.00000  Uiso   1.00
O187   O     0.12975   0.57952   0.25299   0.00000  Uiso   1.00
O188   O     0.19631   0.59545   0.38560   0.00000  Uiso   1.00
O189   O     0.23517   0.34070   0.27763   0.00000  Uiso   1.00
O190   O     0.09815   0.65930   0.22238   0.00000  Uiso   1.00
O191   O     0.20358   0.42048   0.24702   0.00000  Uiso   1.00
O192   O     0.22613   0.57054   0.24519   0.00000  Uiso   1.00
O193   O     0.10720   0.42946   0.25482   0.00000  Uiso   1.00
O194   O     0.11847   0.50450   0.31998   0.00000  Uiso   1.00
O195   O     0.21486   0.49550   0.18003   0.00000  Uiso   1.00
O196   O     0.21485   0.49552   0.31218   0.00000  Uiso   1.00
O197   O     0.11848   0.50448   0.18783   0.00000  Uiso   1.00
O198   O     0.13703   0.40455   0.11440   0.00000  Uiso   1.00
Zn199  Zn    0.10231   0.50600   0.25521   0.00000  Uiso   1.00
Zn200  Zn    0.23102   0.49400   0.24479   0.00000  Uiso   1.00
C201   C     0.51500   0.59810   0.24956   0.00000  Uiso   1.00
C202   C     0.51632   0.54872   0.40708   0.00000  Uiso   1.00
C203   C     0.49679   0.49812   0.11622   0.00000  Uiso   1.00
C204   C     0.50321   0.50188   0.38378   0.00000  Uiso   1.00
C205   C     0.51015   0.54459   0.09418   0.00000  Uiso   1.00
C206   C     0.48985   0.45542   0.40583   0.00000  Uiso   1.00
C207   C     0.51139   0.54572   0.04781   0.00000  Uiso   1.00
C208   C     0.48861   0.45428   0.45219   0.00000  Uiso   1.00
C209   C     0.49907   0.49946   0.02347   0.00000  Uiso   1.00
C210   C     0.50093   0.50054   0.47653   0.00000  Uiso   1.00
C211   C     0.48504   0.45214   0.04600   0.00000  Uiso   1.00
C212   C     0.48499   0.40190   0.25044   0.00000  Uiso   1.00
C213   C     0.51496   0.54786   0.45400   0.00000  Uiso   1.00
C214   C     0.52522   0.59235   0.02555   0.00000  Uiso   1.00
C215   C     0.47478   0.40765   0.47445   0.00000  Uiso   1.00
C216   C     0.52701   0.59347   0.47891   0.00000  Uiso   1.00
C217   C     0.47299   0.40653   0.02109   0.00000  Uiso   1.00
C218   C     0.52177   0.65241   0.25570   0.00000  Uiso   1.00
C219   C     0.47823   0.34759   0.24430   0.00000  Uiso   1.00
C220   C     0.50096   0.50043   0.33631   0.00000  Uiso   1.00
C221   C     0.49904   0.49958   0.16369   0.00000  Uiso   1.00
C222   C     0.48368   0.45128   0.09292   0.00000  Uiso   1.00
H223   H     0.52007   0.57981   0.11337   0.00000  Uiso   1.00
H224   H     0.52998   0.59071   0.35257   0.00000  Uiso   1.00
H225   H     0.59301   0.64630   0.28638   0.00000  Uiso   1.00
H226   H     0.40702   0.35371   0.21360   0.00000  Uiso   1.00
H227   H     0.47993   0.42019   0.38663   0.00000  Uiso   1.00
H228   H     0.53476   0.62793   0.04422   0.00000  Uiso   1.00
H229   H     0.46524   0.37207   0.45578   0.00000  Uiso   1.00
H230   H     0.53788   0.63014   0.46255   0.00000  Uiso   1.00
H231   H     0.46212   0.36986   0.03745   0.00000  Uiso   1.00
H232   H     0.33796   0.46088   0.21613   0.00000  Uiso   1.00
H233   H     0.66204   0.53912   0.28387   0.00000  Uiso   1.00
H234   H     0.47002   0.40929   0.14743   0.00000  Uiso   1.00
N235   N     0.65011   0.48598   0.23783   0.00000  Uiso   1.00
N236   N     0.34989   0.51402   0.26217   0.00000  Uiso   1.00
O237   O     0.46308   0.57952   0.25299   0.00000  Uiso   1.00
O238   O     0.52964   0.59545   0.38560   0.00000  Uiso   1.00
O239   O     0.56851   0.34070   0.27763   0.00000  Uiso   1.00
O240   O     0.43149   0.65930   0.22238   0.00000  Uiso   1.00
O241   O     0.53692   0.42048   0.24702   0.00000  Uiso   1.00
O242   O     0.55946   0.57054   0.24519   0.00000  Uiso   1.00
O243   O     0.44054   0.42946   0.25482   0.00000  Uiso   1.00
O244   O     0.45181   0.50450   0.31998   0.00000  Uiso   1.00
O245   O     0.54819   0.49550   0.18003   0.00000  Uiso   1.00
O246   O     0.54819   0.49552   0.31218   0.00000  Uiso   1.00
O247   O     0.45181   0.50448   0.18783   0.00000  Uiso   1.00
O248   O     0.47036   0.40455   0.11440   0.00000  Uiso   1.00
Zn249  Zn    0.43565   0.50600   0.25521   0.00000  Uiso   1.00
Zn250  Zn    0.56435   0.49400   0.24479   0.00000  Uiso   1.00
C251   C     0.84834   0.59810   0.24956   0.00000  Uiso   1.00
C252   C     0.84965   0.54872   0.40708   0.00000  Uiso   1.00
C253   C     0.83013   0.49812   0.11622   0.00000  Uiso   1.00
C254   C     0.83654   0.50188   0.38378   0.00000  Uiso   1.00
C255   C     0.84348   0.54459   0.09418   0.00000  Uiso   1.00
C256   C     0.82318   0.45542   0.40583   0.00000  Uiso   1.00
C257   C     0.84472   0.54572   0.04781   0.00000  Uiso   1.00
C258   C     0.82195   0.45428   0.45219   0.00000  Uiso   1.00
C259   C     0.83241   0.49946   0.02347   0.00000  Uiso   1.00
C260   C     0.83426   0.50054   0.47653   0.00000  Uiso   1.00
C261   C     0.81838   0.45214   0.04600   0.00000  Uiso   1.00
C262   C     0.81833   0.40190   0.25044   0.00000  Uiso   1.00
C263   C     0.84829   0.54786   0.45400   0.00000  Uiso   1.00
C264   C     0.85855   0.59235   0.02555   0.00000  Uiso   1.00
C265   C     0.80812   0.40765   0.47445   0.00000  Uiso   1.00
C266   C     0.86035   0.59347   0.47891   0.00000  Uiso   1.00
C267   C     0.80632   0.40653   0.02109   0.00000  Uiso   1.00
C268   C     0.85510   0.65241   0.25570   0.00000  Uiso   1.00
C269   C     0.81156   0.34759   0.24430   0.00000  Uiso   1.00
C270   C     0.83429   0.50043   0.33631   0.00000  Uiso   1.00
C271   C     0.83238   0.49958   0.16369   0.00000  Uiso   1.00
C272   C     0.81701   0.45128   0.09292   0.00000  Uiso   1.00
H273   H     0.85340   0.57981   0.11337   0.00000  Uiso   1.00
H274   H     0.86332   0.59071   0.35257   0.00000  Uiso   1.00
H275   H     0.92635   0.64630   0.28638   0.00000  Uiso   1.00
H276   H     0.74035   0.35371   0.21360   0.00000  Uiso   1.00
H277   H     0.81326   0.42019   0.38663   0.00000  Uiso   1.00
H278   H     0.86809   0.62793   0.04422   0.00000  Uiso   1.00
H279   H     0.79857   0.37207   0.45578   0.00000  Uiso   1.00
H280   H     0.87122   0.63014   0.46255   0.00000  Uiso   1.00
H281   H     0.79545   0.36986   0.03745   0.00000  Uiso   1.00
H282   H     0.67129   0.46088   0.21613   0.00000  Uiso   1.00
H283   H     0.99538   0.53912   0.28387   0.00000  Uiso   1.00
H284   H     0.80335   0.40929   0.14743   0.00000  Uiso   1.00
N285   N     0.98344   0.48598   0.23783   0.00000  Uiso   1.00
N286   N     0.68322   0.51402   0.26217   0.00000  Uiso   1.00
O287   O     0.79642   0.57952   0.25299   0.00000  Uiso   1.00
O288   O     0.86298   0.59545   0.38560   0.00000  Uiso   1.00
O289   O     0.90184   0.34070   0.27763   0.00000  Uiso   1.00
O290   O     0.76482   0.65930   0.22238   0.00000  Uiso   1.00
O291   O     0.87025   0.42048   0.24702   0.00000  Uiso   1.00
O292   O     0.89280   0.57054   0.24519   0.00000  Uiso   1.00
O293   O     0.77387   0.42946   0.25482   0.00000  Uiso   1.00
O294   O     0.78514   0.50450   0.31998   0.00000  Uiso   1.00
O295   O     0.88153   0.49550   0.18003   0.00000  Uiso   1.00
O296   O     0.88152   0.49552   0.31218   0.00000  Uiso   1.00
O297   O     0.78515   0.50448   0.18783   0.00000  Uiso   1.00
O298   O     0.80369   0.40455   0.11440   0.00000  Uiso   1.00
Zn299  Zn    0.76898   0.50600   0.25521   0.00000  Uiso   1.00
Zn300  Zn    0.89769   0.49400   0.24479   0.00000  Uiso   1.00
C301   C     0.18167   0.93143   0.24956   0.00000  Uiso   1.00
C302   C     0.18299   0.88205   0.40708   0.00000  Uiso   1.00
C303   C     0.16346   0.83145   0.11622   0.00000  Uiso   1.00
C304   C     0.16987   0.83522   0.38378   0.00000  Uiso   1.00
C305   C     0.17682   0.87792   0.09418   0.00000  Uiso   1.00
C306   C     0.15652   0.78875   0.40583   0.00000  Uiso   1.00
C307   C     0.17805   0.87905   0.04781   0.00000  Uiso   1.00
C308   C     0.15528   0.78761   0.45219   0.00000  Uiso   1.00
C309   C     0.16574   0.83280   0.02347   0.00000  Uiso   1.00
C310   C     0.16760   0.83387   0.47653   0.00000  Uiso   1.00
C311   C     0.15171   0.78548   0.04600   0.00000  Uiso   1.00
C312   C     0.15166   0.73523   0.25044   0.00000  Uiso   1.00
C313   C     0.18163   0.88119   0.45400   0.00000  Uiso   1.00
C314   C     0.19188   0.92568   0.02555   0.00000  Uiso   1.00
C315   C     0.14145   0.74098   0.47445   0.00000  Uiso   1.00
C316   C     0.19368   0.92681   0.47891   0.00000  Uiso   1.00
C317   C     0.13965   0.73986   0.02109   0.00000  Uiso   1.00
C318   C     0.18844   0.98574   0.25570   0.00000  Uiso   1.00
C319   C     0.14490   0.68093   0.24430   0.00000  Uiso   1.00
C320   C     0.16762   0.83376   0.33631   0.00000  Uiso   1.00
C321   C     0.16571   0.83291   0.16369   0.00000  Uiso   1.00
C322   C     0.15035   0.78461   0.09292   0.00000  Uiso   1.00
H323   H     0.18674   0.91315   0.11337   0.00000  Uiso   1.00
H324   H     0.19665   0.92405   0.35257   0.00000  Uiso   1.00
H325   H     0.25968   0.97963   0.28638   0.00000  Uiso   1.00
H326   H     0.07368   0.68704   0.21360   0.00000  Uiso   1.00
H327   H     0.14660   0.75352   0.38663   0.00000  Uiso   1.00
H328   H     0.20143   0.96126   0.04422   0.00000  Uiso   1.00
H329   H     0.13191   0.70541   0.45578   0.00000  Uiso   1.00
H330   H     0.20455   0.96348   0.46255   0.00000  Uiso   1.00
H331   H     0.12878   0.70319   0.03745   0.00000  Uiso   1.00
H332   H     0.00462   0.79421   0.21613   0.00000  Uiso   1.00
H333   H     0.32871   0.87246   0.28387   0.00000  Uiso   1.00
H334   H     0.13669   0.74262   0.14743   0.00000  Uiso   1.00
N335   N     0.31678   0.81932   0.23783   0.00000  Uiso   1.00
N336   N     0.01656   0.84735   0.26217   0.00000  Uiso   1.00
O337   O     0.12975   0.91286   0.25299   0.00000  Uiso   1.00
O338   O     0.19631   0.92878   0.38560   0.00000  Uiso   1.00
O339   O     0.23517   0.67403   0.27763   0.00000  Uiso   1.00
O340   O     0.09815   0.99263   0.22238   0.00000  Uiso   1.00
O341   O     0.20358   0.75381   0.24702   0.00000  Uiso   1.00
O342   O     0.22613   0.90387   0.24519   0.00000  Uiso   1.00
O343   O     0.10720   0.76279   0.25482   0.00000  Uiso   1.00
O344   O     0.11847   0.83784   0.31998   0.00000  Uiso   1.00
O345   O     0.21486   0.82883   0.18003   0.00000  Uiso   1.00
O346   O     0.21485   0.82885   0.31218   0.00000  Uiso   1.00
O347   O     0.11848   0.83781   0.18783   0.00000  Uiso   1.00
O348   O     0.13703   0.73788   0.11440   0.00000  Uiso   1.00
Zn349  Zn    0.10231   0.83933   0.25521   0.00000  Uiso   1.00
Zn350  Zn    0.23102   0.82734   0.24479   0.00000  Uiso   1.00
C351   C     0.51500   0.93143   0.24956   0.00000  Uiso   1.00
C352   C     0.51632   0.88205   0.40708   0.00000  Uiso   1.00
C353   C     0.49679   0.83145   0.11622   0.00000  Uiso   1.00
C354   C     0.50321   0.83522   0.38378   0.00000  Uiso   1.00
C355   C     0.51015   0.87792   0.09418   0.00000  Uiso   1.00
C356   C     0.48985   0.78875   0.40583   0.00000  Uiso   1.00
C357   C     0.51139   0.87905   0.04781   0.00000  Uiso   1.00
C358   C     0.48861   0.78761   0.45219   0.00000  Uiso   1.00
C359   C     0.49907   0.83280   0.02347   0.00000  Uiso   1.00
C360   C     0.50093   0.83387   0.47653   0.00000  Uiso   1.00
C361   C     0.48504   0.78548   0.04600   0.00000  Uiso   1.00
C362   C     0.48499   0.73523   0.25044   0.00000  Uiso   1.00
C363   C     0.51496   0.88119   0.45400   0.00000  Uiso   1.00
C364   C     0.52522   0.92568   0.02555   0.00000  Uiso   1.00
C365   C     0.47478   0.74098   0.47445   0.00000  Uiso   1.00
C366   C     0.52701   0.92681   0.47891   0.00000  Uiso   1.00
C367   C     0.47299   0.73986   0.02109   0.00000  Uiso   1.00
C368   C     0.52177   0.98574   0.25570   0.00000  Uiso   1.00
C369   C     0.47823   0.68093   0.24430   0.00000  Uiso   1.00
C370   C     0.50096   0.83376   0.33631   0.00000  Uiso   1.00
C371   C     0.49904   0.83291   0.16369   0.00000  Uiso   1.00
C372   C     0.48368   0.78461   0.09292   0.00000  Uiso   1.00
H373   H     0.52007   0.91315   0.11337   0.00000  Uiso   1.00
H374   H     0.52998   0.92405   0.35257   0.00000  Uiso   1.00
H375   H     0.59301   0.97963   0.28638   0.00000  Uiso   1.00
H376   H     0.40702   0.68704   0.21360   0.00000  Uiso   1.00
H377   H     0.47993   0.75352   0.38663   0.00000  Uiso   1.00
H378   H     0.53476   0.96126   0.04422   0.00000  Uiso   1.00
H379   H     0.46524   0.70541   0.45578   0.00000  Uiso   1.00
H380   H     0.53788   0.96348   0.46255   0.00000  Uiso   1.00
H381   H     0.46212   0.70319   0.03745   0.00000  Uiso   1.00
H382   H     0.33796   0.79421   0.21613   0.00000  Uiso   1.00
H383   H     0.66204   0.87246   0.28387   0.00000  Uiso   1.00
H384   H     0.47002   0.74262   0.14743   0.00000  Uiso   1.00
N385   N     0.65011   0.81932   0.23783   0.00000  Uiso   1.00
N386   N     0.34989   0.84735   0.26217   0.00000  Uiso   1.00
O387   O     0.46308   0.91286   0.25299   0.00000  Uiso   1.00
O388   O     0.52964   0.92878   0.38560   0.00000  Uiso   1.00
O389   O     0.56851   0.67403   0.27763   0.00000  Uiso   1.00
O390   O     0.43149   0.99263   0.22238   0.00000  Uiso   1.00
O391   O     0.53692   0.75381   0.24702   0.00000  Uiso   1.00
O392   O     0.55946   0.90387   0.24519   0.00000  Uiso   1.00
O393   O     0.44054   0.76279   0.25482   0.00000  Uiso   1.00
O394   O     0.45181   0.83784   0.31998   0.00000  Uiso   1.00
O395   O     0.54819   0.82883   0.18003   0.00000  Uiso   1.00
O396   O     0.54819   0.82885   0.31218   0.00000  Uiso   1.00
O397   O     0.45181   0.83781   0.18783   0.00000  Uiso   1.00
O398   O     0.47036   0.73788   0.11440   0.00000  Uiso   1.00
Zn399  Zn    0.43565   0.83933   0.25521   0.00000  Uiso   1.00
Zn400  Zn    0.56435   0.82734   0.24479   0.00000  Uiso   1.00
C401   C     0.84834   0.93143   0.24956   0.00000  Uiso   1.00
C402   C     0.84965   0.88205   0.40708   0.00000  Uiso   1.00
C403   C     0.83013   0.83145   0.11622   0.00000  Uiso   1.00
C404   C     0.83654   0.83522   0.38378   0.00000  Uiso   1.00
C405   C     0.84348   0.87792   0.09418   0.00000  Uiso   1.00
C406   C     0.82318   0.78875   0.40583   0.00000  Uiso   1.00
C407   C     0.84472   0.87905   0.04781   0.00000  Uiso   1.00
C408   C     0.82195   0.78761   0.45219   0.00000  Uiso   1.00
C409   C     0.83241   0.83280   0.02347   0.00000  Uiso   1.00
C410   C     0.83426   0.83387   0.47653   0.00000  Uiso   1.00
C411   C     0.81838   0.78548   0.04600   0.00000  Uiso   1.00
C412   C     0.81833   0.73523   0.25044   0.00000  Uiso   1.00
C413   C     0.84829   0.88119   0.45400   0.00000  Uiso   1.00
C414   C     0.85855   0.92568   0.02555   0.00000  Uiso   1.00
C415   C     0.80812   0.74098   0.47445   0.00000  Uiso   1.00
C416   C     0.86035   0.92681   0.47891   0.00000  Uiso   1.00
C417   C     0.80632   0.73986   0.02109   0.00000  Uiso   1.00
C418   C     0.85510   0.98574   0.25570   0.00000  Uiso   1.00
C419   C     0.81156   0.68093   0.24430   0.00000  Uiso   1.00
C420   C     0.83429   0.83376   0.33631   0.00000  Uiso   1.00
C421   C     0.83238   0.83291   0.16369   0.00000  Uiso   1.00
C422   C     0.81701   0.78461   0.09292   0.00000  Uiso   1.00
H423   H     0.85340   0.91315   0.11337   0.00000  Uiso   1.00
H424   H     0.86332   0.92405   0.35257   0.00000  Uiso   1.00
H425   H     0.92635   0.97963   0.28638   0.00000  Uiso   1.00
H426   H     0.74035   0.68704   0.21360   0.00000  Uiso   1.00
H427   H     0.81326   0.75352   0.38663   0.00000  Uiso   1.00
H428   H     0.86809   0.96126   0.04422   0.00000  Uiso   1.00
H429   H     0.79857   0.70541   0.45578   0.00000  Uiso   1.00
H430   H     0.87122   0.96348   0.46255   0.00000  Uiso   1.00
H431   H     0.79545   0.70319   0.03745   0.00000  Uiso   1.00
H432   H     0.67129   0.79421   0.21613   0.00000  Uiso   1.00
H433   H     0.99538   0.87246   0.28387   0.00000  Uiso   1.00
H434   H     0.80335   0.74262   0.14743   0.00000  Uiso   1.00
N435   N     0.98344   0.81932   0.23783   0.00000  Uiso   1.00
N436   N     0.68322   0.84735   0.26217   0.00000  Uiso   1.00
O437   O     0.79642   0.91286   0.25299   0.00000  Uiso   1.00
O438   O     0.86298   0.92878   0.38560   0.00000  Uiso   1.00
O439   O     0.90184   0.67403   0.27763   0.00000  Uiso   1.00
O440   O     0.76482   0.99263   0.22238   0.00000  Uiso   1.00
O441   O     0.87025   0.75381   0.24702   0.00000  Uiso   1.00
O442   O     0.89280   0.90387   0.24519   0.00000  Uiso   1.00
O443   O     0.77387   0.76279   0.25482   0.00000  Uiso   1.00
O444   O     0.78514   0.83784   0.31998   0.00000  Uiso   1.00
O445   O     0.88153   0.82883   0.18003   0.00000  Uiso   1.00
O446   O     0.88152   0.82885   0.31218   0.00000  Uiso   1.00
O447   O     0.78515   0.83781   0.18783   0.00000  Uiso   1.00
O448   O     0.80369   0.73788   0.11440   0.00000  Uiso   1.00
Zn449  Zn    0.76898   0.83933   0.25521   0.00000  Uiso   1.00
Zn450  Zn    0.89769   0.82734   0.24479   0.00000  Uiso   1.00
C451   C     0.18167   0.26477   0.74956   0.00000  Uiso   1.00
C452   C     0.18299   0.21539   0.90708   0.00000  Uiso   1.00
C453   C     0.16346   0.16478   0.61622   0.00000  Uiso   1.00
C454   C     0.16987   0.16855   0.88378   0.00000  Uiso   1.00
C455   C     0.17682   0.21125   0.59418   0.00000  Uiso   1.00
C456   C     0.15652   0.12208   0.90583   0.00000  Uiso   1.00
C457   C     0.17805   0.21239   0.54781   0.00000  Uiso   1.00
C458   C     0.15528   0.12095   0.95219   0.00000  Uiso   1.00
C459   C     0.16574   0.16613   0.52347   0.00000  Uiso   1.00
C460   C     0.16760   0.16720   0.97653   0.00000  Uiso   1.00
C461   C     0.15171   0.11881   0.54600   0.00000  Uiso   1.00
C462   C     0.15166   0.06857   0.75044   0.00000  Uiso   1.00
C463   C     0.18163   0.21452   0.95400   0.00000  Uiso   1.00
C464   C     0.19188   0.25902   0.52555   0.00000  Uiso   1.00
C465   C     0.14145   0.07432   0.97445   0.00000  Uiso   1.00
C466   C     0.19368   0.26014   0.97891   0.00000  Uiso   1.00
C467   C     0.13965   0.07319   0.52109   0.00000  Uiso   1.00
C468   C     0.18844   0.31907   0.75570   0.00000  Uiso   1.00
C469   C     0.14490   0.01426   0.74430   0.00000  Uiso   1.00
C470   C     0.16762   0.16709   0.83631   0.00000  Uiso   1.00
C471   C     0.16571   0.16624   0.66369   0.00000  Uiso   1.00
C472   C     0.15035   0.11795   0.59292   0.00000  Uiso   1.00
H473   H     0.18674   0.24648   0.61337   0.00000  Uiso   1.00
H474   H     0.19665   0.25738   0.85257   0.00000  Uiso   1.00
H475   H     0.25968   0.31296   0.78638   0.00000  Uiso   1.00
H476   H     0.07368   0.02038   0.71360   0.00000  Uiso   1.00
H477   H     0.14660   0.08685   0.88663   0.00000  Uiso   1.00
H478   H     0.20143   0.29459   0.54422   0.00000  Uiso   1.00
H479   H     0.13191   0.03874   0.95578   0.00000  Uiso   1.00
H480   H     0.20455   0.29681   0.96255   0.00000  Uiso   1.00
H481   H     0.12878   0.03652   0.53745   0.00000  Uiso   1.00
H482   H     0.00462   0.12754   0.71613   0.00000  Uiso   1.00
H483   H     0.32871   0.20579   0.78387   0.00000  Uiso   1.00
H484   H     0.13669   0.07595   0.64743   0.00000  Uiso   1.00
N485   N     0.31678   0.15265   0.73783   0.00000  Uiso   1.00
N486   N     0.01656   0.18068   0.76217   0.00000  Uiso   1.00
O487   O     0.12975   0.24619   0.75299   0.00000  Uiso   1.00
O488   O     0.19631   0.26212   0.88560   0.00000  Uiso   1.00
O489   O     0.23517   0.00737   0.77763   0.00000  Uiso   1.00
O490   O     0.09815   0.32597   0.72238   0.00000  Uiso   1.00
O491   O     0.20358   0.08714   0.74702   0.00000  Uiso   1.00
O492   O     0.22613   0.23721   0.74519   0.00000  Uiso   1.00
O493   O     0.10720   0.09613   0.75482   0.00000  Uiso   1.00
O494   O     0.11847   0.17117   0.81998   0.00000  Uiso   1.00
O495   O     0.21486   0.16216   0.68003   0.00000  Uiso   1.00
O496   O     0.21485   0.16219   0.81218   0.00000  Uiso   1.00
O497   O     0.11848   0.17115   0.68783   0.00000  Uiso   1.00
O498   O     0.13703   0.07122   0.61440   0.00000  Uiso   1.00
Zn499  Zn    0.10231   0.17266   0.75521   0.00000  Uiso   1.00
Zn500  Zn    0.23102   0.16067   0.74479   0.00000  Uiso   1.00
C501   C     0.51500   0.26477   0.74956   0.00000  Uiso   1.00
C502   C     0.51632   0.21539   0.90708   0.00000  Uiso   1.00
C503   C     0.49679   0.16478   0.61622   0.00000  Uiso   1.00
C504   C     0.50321   0.16855   0.88378   0.00000  Uiso   1.00
C505   C     0.51015   0.21125   0.59418   0.00000  Uiso   1.00
C506   C     0.48985   0.12208   0.90583   0.00000  Uiso   1.00
C507   C     0.51139   0.21239   0.54781   0.00000  Uiso   1.00
C508   C     0.48861   0.12095   0.95219   0.00000  Uiso   1.00
C509   C     0.49907   0.16613   0.52347   0.00000  Uiso   1.00
C510   C     0.50093   0.16720   0.97653   0.00000  Uiso   1.00
C511   C     0.48504   0.11881   0.54600   0.00000  Uiso   1.00
C512   C     0.48499   0.06857   0.75044   0.00000  Uiso   1.00
C513   C     0.51496   0.21452   0.95400   0.00000  Uiso   1.00
C514   C     0.52522   0.25902   0.52555   0.00000  Uiso   1.00
C515   C     0.47478   0.07432   0.97445   0.00000  Uiso   1.00
C516   C     0.52701   0.26014   0.97891   0.00000  Uiso   1.00
C517   C     0.47299   0.07319   0.52109   0.00000  Uiso   1.00
C518   C     0.52177   0.31907   0.75570   0.00000  Uiso   1.00
C519   C     0.47823   0.01426   0.74430   0.00000  Uiso   1.00
C520   C     0.50096   0.16709   0.83631   0.00000  Uiso   1.00
C521   C     0.49904   0.16624   0.66369   0.00000  Uiso   1.00
C522   C     0.48368   0.11795   0.59292   0.00000  Uiso   1.00
H523   H     0.52007   0.24648   0.61337   0.00000  Uiso   1.00
H524   H     0.52998   0.25738   0.85257   0.00000  Uiso   1.00
H525   H     0.59301   0.31296   0.78638   0.00000  Uiso   1.00
H526   H     0.40702   0.02038   0.71360   0.00000  Uiso   1.00
H527   H     0.47993   0.08685   0.88663   0.00000  Uiso   1.00
H528   H     0.53476   0.29459   0.54422   0.00000  Uiso   1.00
H529   H     0.46524   0.03874   0.95578   0.00000  Uiso   1.00
H530   H     0.53788   0.29681   0.96255   0.00000  Uiso   1.00
H531   H     0.46212   0.03652   0.53745   0.00000  Uiso   1.00
H532   H     0.33796   0.12754   0.71613   0.00000  Uiso   1.00
H533   H     0.66204   0.20579   0.78387   0.00000  Uiso   1.00
H534   H     0.47002   0.07595   0.64743   0.00000  Uiso   1.00
N535   N     0.65011   0.15265   0.73783   0.00000  Uiso   1.00
N536   N     0.34989   0.18068   0.76217   0.00000  Uiso   1.00
O537   O     0.46308   0.24619   0.75299   0.00000  Uiso   1.00
O538   O     0.52964   0.26212   0.88560   0.00000  Uiso   1.00
O539   O     0.56851   0.00737   0.77763   0.00000  Uiso   1.00
O540   O     0.43149   0.32597   0.72238   0.00000  Uiso   1.00
O541   O     0.53692   0.08714   0.74702   0.00000  Uiso   1.00
O542   O     0.55946   0.23721   0.74519   0.00000  Uiso   1.00
O543   O     0.44054   0.09613   0.75482   0.00000  Uiso   1.00
O544   O     0.45181   0.17117   0.81998   0.00000  Uiso   1.00
O545   O     0.54819   0.16216   0.68003   0.00000  Uiso   1.00
O546   O     0.54819   0.16219   0.81218   0.00000  Uiso   1.00
O547   O     0.45181   0.17115   0.68783   0.00000  Uiso   1.00
O548   O     0.47036   0.07122   0.61440   0.00000  Uiso   1.00
Zn549  Zn    0.43565   0.17266   0.75521   0.00000  Uiso   1.00
Zn550  Zn    0.56435   0.16067   0.74479   0.00000  Uiso   1.00
C551   C     0.84834   0.26477   0.74956   0.00000  Uiso   1.00
C552   C     0.84965   0.21539   0.90708   0.00000  Uiso   1.00
C553   C     0.83013   0.16478   0.61622   0.00000  Uiso   1.00
C554   C     0.83654   0.16855   0.88378   0.00000  Uiso   1.00
C555   C     0.84348   0.21125   0.59418   0.00000  Uiso   1.00
C556   C     0.82318   0.12208   0.90583   0.00000  Uiso   1.00
C557   C     0.84472   0.21239   0.54781   0.00000  Uiso   1.00
C558   C     0.82195   0.12095   0.95219   0.00000  Uiso   1.00
C559   C     0.83241   0.16613   0.52347   0.00000  Uiso   1.00
C560   C     0.83426   0.16720   0.97653   0.00000  Uiso   1.00
C561   C     0.81838   0.11881   0.54600   0.00000  Uiso   1.00
C562   C     0.81833   0.06857   0.75044   0.00000  Uiso   1.00
C563   C     0.84829   0.21452   0.95400   0.00000  Uiso   1.00
C564   C     0.85855   0.25902   0.52555   0.00000  Uiso   1.00
C565   C     0.80812   0.07432   0.97445   0.00000  Uiso   1.00
C566   C     0.86035   0.26014   0.97891   0.00000  Uiso   1.00
C567   C     0.80632   0.07319   0.52109   0.00000  Uiso   1.00
C568   C     0.85510   0.31907   0.75570   0.00000  Uiso   1.00
C569   C     0.81156   0.01426   0.74430   0.00000  Uiso   1.00
C570   C     0.83429   0.16709   0.83631   0.00000  Uiso   1.00
C571   C     0.83238   0.16624   0.66369   0.00000  Uiso   1.00
C572   C     0.81701   0.11795   0.59292   0.00000  Uiso   1.00
H573   H     0.85340   0.24648   0.61337   0.00000  Uiso   1.00
H574   H     0.86332   0.25738   0.85257   0.00000  Uiso   1.00
H575   H     0.92635   0.31296   0.78638   0.00000  Uiso   1.00
H576   H     0.74035   0.02038   0.71360   0.00000  Uiso   1.00
H577   H     0.81326   0.08685   0.88663   0.00000  Uiso   1.00
H578   H     0.86809   0.29459   0.54422   0.00000  Uiso   1.00
H579   H     0.79857   0.03874   0.95578   0.00000  Uiso   1.00
H580   H     0.87122   0.29681   0.96255   0.00000  Uiso   1.00
H581   H     0.79545   0.03652   0.53745   0.00000  Uiso   1.00
H582   H     0.67129   0.12754   0.71613   0.00000  Uiso   1.00
H583   H     0.99538   0.20579   0.78387   0.00000  Uiso   1.00
H584   H     0.80335   0.07595   0.64743   0.00000  Uiso   1.00
N585   N     0.98344   0.15265   0.73783   0.00000  Uiso   1.00
N586   N     0.68322   0.18068   0.76217   0.00000  Uiso   1.00
O587   O     0.79642   0.24619   0.75299   0.00000  Uiso   1.00
O588   O     0.86298   0.26212   0.88560   0.00000  Uiso   1.00
O589   O     0.90184   0.00737   0.77763   0.00000  Uiso   1.00
O590   O     0.76482   0.32597   0.72238   0.00000  Uiso   1.00
O591   O     0.87025   0.08714   0.74702   0.00000  Uiso   1.00
O592   O     0.89280   0.23721   0.74519   0.00000  Uiso   1.00
O593   O     0.77387   0.09613   0.75482   0.00000  Uiso   1.00
O594   O     0.78514   0.17117   0.81998   0.00000  Uiso   1.00
O595   O     0.88153   0.16216   0.68003   0.00000  Uiso   1.00
O596   O     0.88152   0.16219   0.81218   0.00000  Uiso   1.00
O597   O     0.78515   0.17115   0.68783   0.00000  Uiso   1.00
O598   O     0.80369   0.07122   0.61440   0.00000  Uiso   1.00
Zn599  Zn    0.76898   0.17266   0.75521   0.00000  Uiso   1.00
Zn600  Zn    0.89769   0.16067   0.74479   0.00000  Uiso   1.00
C601   C     0.18167   0.59810   0.74956   0.00000  Uiso   1.00
C602   C     0.18299   0.54872   0.90708   0.00000  Uiso   1.00
C603   C     0.16346   0.49812   0.61622   0.00000  Uiso   1.00
C604   C     0.16987   0.50188   0.88378   0.00000  Uiso   1.00
C605   C     0.17682   0.54459   0.59418   0.00000  Uiso   1.00
C606   C     0.15652   0.45542   0.90583   0.00000  Uiso   1.00
C607   C     0.17805   0.54572   0.54781   0.00000  Uiso   1.00
C608   C     0.15528   0.45428   0.95219   0.00000  Uiso   1.00
C609   C     0.16574   0.49946   0.52347   0.00000  Uiso   1.00
C610   C     0.16760   0.50054   0.97653   0.00000  Uiso   1.00
C611   C     0.15171   0.45214   0.54600   0.00000  Uiso   1.00
C612   C     0.15166   0.40190   0.75044   0.00000  Uiso   1.00
C613   C     0.18163   0.54786   0.95400   0.00000  Uiso   1.00
C614   C     0.19188   0.59235   0.52555   0.00000  Uiso   1.00
C615   C     0.14145   0.40765   0.97445   0.00000  Uiso   1.00
C616   C     0.19368   0.59347   0.97891   0.00000  Uiso   1.00
C617   C     0.13965   0.40653   0.52109   0.00000  Uiso   1.00
C618   C     0.18844   0.65241   0.75570   0.00000  Uiso   1.00
C619   C     0.14490   0.34759   0.74430   0.00000  Uiso   1.00
C620   C     0.16762   0.50043   0.83631   0.00000  Uiso   1.00
C621   C     0.16571   0.49958   0.66369   0.00000  Uiso   1.00
C622   C     0.15035   0.45128   0.59292   0.00000  Uiso   1.00
H623   H     0.18674   0.57981   0.61337   0.00000  Uiso   1.00
H624   H     0.19665   0.59071   0.85257   0.00000  Uiso   1.00
H625   H     0.25968   0.64630   0.78638   0.00000  Uiso   1.00
H626   H     0.07368   0.35371   0.71360   0.00000  Uiso   1.00
H627   H     0.14660   0.42019   0.88663   0.00000  Uiso   1.00
H628   H     0.20143   0.62793   0.54422   0.00000  Uiso   1.00
H629   H     0.13191   0.37207   0.95578   0.00000  Uiso   1.00
H630   H     0.20455   0.63014   0.96255   0.00000  Uiso   1.00
H631   H     0.12878   0.36986   0.53745   0.00000  Uiso   1.00
H632   H     0.00462   0.46088   0.71613   0.00000  Uiso   1.00
H633   H     0.32871   0.53912   0.78387   0.00000  Uiso   1.00
H634   H     0.13669   0.40929   0.64743   0.00000  Uiso   1.00
N635   N     0.31678   0.48598   0.73783   0.00000  Uiso   1.00
N636   N     0.01656   0.51402   0.76217   0.00000  Uiso   1.00
O637   O     0.12975   0.57952   0.75299   0.00000  Uiso   1.00
O638   O     0.19631   0.59545   0.88560   0.00000  Uiso   1.00
O639   O     0.23517   0.34070   0.77763   0.00000  Uiso   1.00
O640   O     0.09815   0.65930   0.72238   0.00000  Uiso   1.00
O641   O     0.20358   0.42048   0.74702   0.00000  Uiso   1.00
O642   O     0.22613   0.57054   0.74519   0.00000  Uiso   1.00
O643   O     0.10720   0.42946   0.75482   0.00000  Uiso   1.00
O644   O     0.11847   0.50450   0.81998   0.00000  Uiso   1.00
O645   O     0.21486   0.49550   0.68003   0.00000  Uiso   1.00
O646   O     0.21485   0.49552   0.81218   0.00000  Uiso   1.00
O647   O     0.11848   0.50448   0.68783   0.00000  Uiso   1.00
O648   O     0.13703   0.40455   0.61440   0.00000  Uiso   1.00
Zn649  Zn    0.10231   0.50600   0.75521   0.00000  Uiso   1.00
Zn650  Zn    0.23102   0.49400   0.74479   0.00000  Uiso   1.00
C651   C     0.51500   0.59810   0.74956   0.00000  Uiso   1.00
C652   C     0.51632   0.54872   0.90708   0.00000  Uiso   1.00
C653   C     0.49679   0.49812   0.61622   0.00000  Uiso   1.00
C654   C     0.50321   0.50188   0.88378   0.00000  Uiso   1.00
C655   C     0.51015   0.54459   0.59418   0.00000  Uiso   1.00
C656   C     0.48985   0.45542   0.90583   0.00000  Uiso   1.00
C657   C     0.51139   0.54572   0.54781   0.00000  Uiso   1.00
C658   C     0.48861   0.45428   0.95219   0.00000  Uiso   1.00
C659   C     0.49907   0.49946   0.52347   0.00000  Uiso   1.00
C660   C     0.50093   0.50054   0.97653   0.00000  Uiso   1.00
C661   C     0.48504   0.45214   0.54600   0.00000  Uiso   1.00
C662   C     0.48499   0.40190   0.75044   0.00000  Uiso   1.00
C663   C     0.51496   0.54786   0.95400   0.00000  Uiso   1.00
C664   C     0.52522   0.59235   0.52555   0.00000  Uiso   1.00
C665   C     0.47478   0.40765   0.97445   0.00000  Uiso   1.00
C666   C     0.52701   0.59347   0.97891   0.00000  Uiso   1.00
C667   C     0.47299   0.40653   0.52109   0.00000  Uiso   1.00
C668   C     0.52177   0.65241   0.75570   0.00000  Uiso   1.00
C669   C     0.47823   0.34759   0.74430   0.00000  Uiso   1.00
C670   C     0.50096   0.50043   0.83631   0.00000  Uiso   1.00
C671   C     0.49904   0.49958   0.66369   0.00000  Uiso   1.00
C672   C     0.48368   0.45128   0.59292   0.00000  Uiso   1.00
H673   H     0.52007   0.57981   0.61337   0.00000  Uiso   1.00
H674   H     0.52998   0.59071   0.85257   0.00000  Uiso   1.00
H675   H     0.59301   0.64630   0.78638   0.00000  Uiso   1.00
H676   H     0.40702   0.35371   0.71360   0.00000  Uiso   1.00
H677   H     0.47993   0.42019   0.88663   0.00000  Uiso   1.00
H678   H     0.53476   0.62793   0.54422   0.00000  Uiso   1.00
H679   H     0.46524   0.37207   0.95578   0.00000  Uiso   1.00
H680   H     0.53788   0.63014   0.96255   0.00000  Uiso   1.00
H681   H     0.46212   0.36986   0.53745   0.00000  Uiso   1.00
H682   H     0.33796   0.46088   0.71613   0.00000  Uiso   1.00
H683   H     0.66204   0.53912   0.78387   0.00000  Uiso   1.00
H684   H     0.47002   0.40929   0.64743   0.00000  Uiso   1.00
N685   N     0.65011   0.48598   0.73783   0.00000  Uiso   1.00
N686   N     0.34989   0.51402   0.76217   0.00000  Uiso   1.00
O687   O     0.46308   0.57952   0.75299   0.00000  Uiso   1.00
O688   O     0.52964   0.59545   0.88560   0.00000  Uiso   1.00
O689   O     0.56851   0.34070   0.77763   0.00000  Uiso   1.00
O690   O     0.43149   0.65930   0.72238   0.00000  Uiso   1.00
O691   O     0.53692   0.42048   0.74702   0.00000  Uiso   1.00
O692   O     0.55946   0.57054   0.74519   0.00000  Uiso   1.00
O693   O     0.44054   0.42946   0.75482   0.00000  Uiso   1.00
O694   O     0.45181   0.50450   0.81998   0.00000  Uiso   1.00
O695   O     0.54819   0.49550   0.68003   0.00000  Uiso   1.00
O696   O     0.54819   0.49552   0.81218   0.00000  Uiso   1.00
O697   O     0.45181   0.50448   0.68783   0.00000  Uiso   1.00
O698   O     0.47036   0.40455   0.61440   0.00000  Uiso   1.00
Zn699  Zn    0.43565   0.50600   0.75521   0.00000  Uiso   1.00
Zn700  Zn    0.56435   0.49400   0.74479   0.00000  Uiso   1.00
C701   C     0.84834   0.59810   0.74956   0.00000  Uiso   1.00
C702   C     0.84965   0.54872   0.90708   0.00000  Uiso   1.00
C703   C     0.83013   0.49812   0.61622   0.00000  Uiso   1.00
C704   C     0.83654   0.50188   0.88378   0.00000  Uiso   1.00
C705   C     0.84348   0.54459   0.59418   0.00000  Uiso   1.00
C706   C     0.82318   0.45542   0.90583   0.00000  Uiso   1.00
C707   C     0.84472   0.54572   0.54781   0.00000  Uiso   1.00
C708   C     0.82195   0.45428   0.95219   0.00000  Uiso   1.00
C709   C     0.83241   0.49946   0.52347   0.00000  Uiso   1.00
C710   C     0.83426   0.50054   0.97653   0.00000  Uiso   1.00
C711   C     0.81838   0.45214   0.54600   0.00000  Uiso   1.00
C712   C     0.81833   0.40190   0.75044   0.00000  Uiso   1.00
C713   C     0.84829   0.54786   0.95400   0.00000  Uiso   1.00
C714   C     0.85855   0.59235   0.52555   0.00000  Uiso   1.00
C715   C     0.80812   0.40765   0.97445   0.00000  Uiso   1.00
C716   C     0.86035   0.59347   0.97891   0.00000  Uiso   1.00
C717   C     0.80632   0.40653   0.52109   0.00000  Uiso   1.00
C718   C     0.85510   0.65241   0.75570   0.00000  Uiso   1.00
C719   C     0.81156   0.34759   0.74430   0.00000  Uiso   1.00
C720   C     0.83429   0.50043   0.83631   0.00000  Uiso   1.00
C721   C     0.83238   0.49958   0.66369   0.00000  Uiso   1.00
C722   C     0.81701   0.45128   0.59292   0.00000  Uiso   1.00
H723   H     0.85340   0.57981   0.61337   0.00000  Uiso   1.00
H724   H     0.86332   0.59071   0.85257   0.00000  Uiso   1.00
H725   H     0.92635   0.64630   0.78638   0.00000  Uiso   1.00
H726   H     0.74035   0.35371   0.71360   0.00000  Uiso   1.00
H727   H     0.81326   0.42019   0.88663   0.00000  Uiso   1.00
H728   H     0.86809   0.62793   0.54422   0.00000  Uiso   1.00
H729   H     0.79857   0.37207   0.95578   0.00000  Uiso   1.00
H730   H     0.87122   0.63014   0.96255   0.00000  Uiso   1.00
H731   H     0.79545   0.36986   0.53745   0.00000  Uiso   1.00
H732   H     0.67129   0.46088   0.71613   0.00000  Uiso   1.00
H733   H     0.99538   0.53912   0.78387   0.00000  Uiso   1.00
H734   H     0.80335   0.40929   0.64743   0.00000  Uiso   1.00
N735   N     0.98344   0.48598   0.73783   0.00000  Uiso   1.00
N736   N     0.68322   0.51402   0.76217   0.00000  Uiso   1.00
O737   O     0.79642   0.57952   0.75299   0.00000  Uiso   1.00
O738   O     0.86298   0.59545   0.88560   0.00000  Uiso   1.00
O739   O     0.90184   0.34070   0.77763   0.00000  Uiso   1.00
O740   O     0.76482   0.65930   0.72238   0.00000  Uiso   1.00
O741   O     0.87025   0.42048   0.74702   0.00000  Uiso   1.00
O742   O     0.89280   0.57054   0.74519   0.00000  Uiso   1.00
O743   O     0.77387   0.42946   0.75482   0.00000  Uiso   1.00
O744   O     0.78514   0.50450   0.81998   0.00000  Uiso   1.00
O745   O     0.88153   0.49550   0.68003   0.00000  Uiso   1.00
O746   O     0.88152   0.49552   0.81218   0.00000  Uiso   1.00
O747   O     0.78515   0.50448   0.68783   0.00000  Uiso   1.00
O748   O     0.80369   0.40455   0.61440   0.00000  Uiso   1.00
Zn749  Zn    0.76898   0.50600   0.75521   0.00000  Uiso   1.00
Zn750  Zn    0.89769   0.49400   0.74479   0.00000  Uiso   1.00
C751   C     0.18167   0.93143   0.74956   0.00000  Uiso   1.00
C752   C     0.18299   0.88205   0.90708   0.00000  Uiso   1.00
C753   C     0.16346   0.83145   0.61622   0.00000  Uiso   1.00
C754   C     0.16987   0.83522   0.88378   0.00000  Uiso   1.00
C755   C     0.17682   0.87792   0.59418   0.00000  Uiso   1.00
C756   C     0.15652   0.78875   0.90583   0.00000  Uiso   1.00
C757   C     0.17805   0.87905   0.54781   0.00000  Uiso   1.00
C758   C     0.15528   0.78761   0.95219   0.00000  Uiso   1.00
C759   C     0.16574   0.83280   0.52347   0.00000  Uiso   1.00
C760   C     0.16760   0.83387   0.97653   0.00000  Uiso   1.00
C761   C     0.15171   0.78548   0.54600   0.00000  Uiso   1.00
C762   C     0.15166   0.73523   0.75044   0.00000  Uiso   1.00
C763   C     0.18163   0.88119   0.95400   0.00000  Uiso   1.00
C764   C     0.19188   0.92568   0.52555   0.00000  Uiso   1.00
C765   C     0.14145   0.74098   0.97445   0.00000  Uiso   1.00
C766   C     0.19368   0.92681   0.97891   0.00000  Uiso   1.00
C767   C     0.13965   0.73986   0.52109   0.00000  Uiso   1.00
C768   C     0.18844   0.98574   0.75570   0.00000  Uiso   1.00
C769   C     0.14490   0.68093   0.74430   0.00000  Uiso   1.00
C770   C     0.16762   0.83376   0.83631   0.00000  Uiso   1.00
C771   C     0.16571   0.83291   0.66369   0.00000  Uiso   1.00
C772   C     0.15035   0.78461   0.59292   0.00000  Uiso   1.00
H773   H     0.18674   0.91315   0.61337   0.00000  Uiso   1.00
H774   H     0.19665   0.92405   0.85257   0.00000  Uiso   1.00
H775   H     0.25968   0.97963   0.78638   0.00000  Uiso   1.00
H776   H     0.07368   0.68704   0.71360   0.00000  Uiso   1.00
H777   H     0.14660   0.75352   0.88663   0.00000  Uiso   1.00
H778   H     0.20143   0.96126   0.54422   0.00000  Uiso   1.00
H779   H     0.13191   0.70541   0.95578   0.00000  Uiso   1.00
H780   H     0.20455   0.96348   0.96255   0.00000  Uiso   1.00
H781   H     0.12878   0.70319   0.53745   0.00000  Uiso   1.00
H782   H     0.00462   0.79421   0.71613   0.00000  Uiso   1.00
H783   H     0.32871   0.87246   0.78387   0.00000  Uiso   1.00
H784   H     0.13669   0.74262   0.64743   0.00000  Uiso   1.00
N785   N     0.31678   0.81932   0.73783   0.00000  Uiso   1.00
N786   N     0.01656   0.84735   0.76217   0.00000  Uiso   1.00
O787   O     0.12975   0.91286   0.75299   0.00000  Uiso   1.00
O788   O     0.19631   0.92878   0.88560   0.00000  Uiso   1.00
O789   O     0.23517   0.67403   0.77763   0.00000  Uiso   1.00
O790   O     0.09815   0.99263   0.72238   0.00000  Uiso   1.00
O791   O     0.20358   0.75381   0.74702   0.00000  Uiso   1.00
O792   O     0.22613   0.90387   0.74519   0.00000  Uiso   1.00
O793   O     0.10720   0.76279   0.75482   0.00000  Uiso   1.00
O794   O     0.11847   0.83784   0.81998   0.00000  Uiso   1.00
O795   O     0.21486   0.82883   0.68003   0.00000  Uiso   1.00
O796   O     0.21485   0.82885   0.81218   0.00000  Uiso   1.00
O797   O     0.11848   0.83781   0.68783   0.00000  Uiso   1.00
O798   O     0.13703   0.73788   0.61440   0.00000  Uiso   1.00
Zn799  Zn    0.10231   0.83933   0.75521   0.00000  Uiso   1.00
Zn800  Zn    0.23102   0.82734   0.74479   0.00000  Uiso   1.00
C801   C     0.51500   0.93143   0.74956   0.00000  Uiso   1.00
C802   C     0.51632   0.88205   0.90708   0.00000  Uiso   1.00
C803   C     0.49679   0.83145   0.61622   0.00000  Uiso   1.00
C804   C     0.50321   0.83522   0.88378   0.00000  Uiso   1.00
C805   C     0.51015   0.87792   0.59418   0.00000  Uiso   1.00
C806   C     0.48985   0.78875   0.90583   0.00000  Uiso   1.00
C807   C     0.51139   0.87905   0.54781   0.00000  Uiso   1.00
C808   C     0.48861   0.78761   0.95219   0.00000  Uiso   1.00
C809   C     0.49907   0.83280   0.52347   0.00000  Uiso   1.00
C810   C     0.50093   0.83387   0.97653   0.00000  Uiso   1.00
C811   C     0.48504   0.78548   0.54600   0.00000  Uiso   1.00
C812   C     0.48499   0.73523   0.75044   0.00000  Uiso   1.00
C813   C     0.51496   0.88119   0.95400   0.00000  Uiso   1.00
C814   C     0.52522   0.92568   0.52555   0.00000  Uiso   1.00
C815   C     0.47478   0.74098   0.97445   0.00000  Uiso   1.00
C816   C     0.52701   0.92681   0.97891   0.00000  Uiso   1.00
C817   C     0.47299   0.73986   0.52109   0.00000  Uiso   1.00
C818   C     0.52177   0.98574   0.75570   0.00000  Uiso   1.00
C819   C     0.47823   0.68093   0.74430   0.00000  Uiso   1.00
C820   C     0.50096   0.83376   0.83631   0.00000  Uiso   1.00
C821   C     0.49904   0.83291   0.66369   0.00000  Uiso   1.00
C822   C     0.48368   0.78461   0.59292   0.00000  Uiso   1.00
H823   H     0.52007   0.91315   0.61337   0.00000  Uiso   1.00
H824   H     0.52998   0.92405   0.85257   0.00000  Uiso   1.00
H825   H     0.59301   0.97963   0.78638   0.00000  Uiso   1.00
H826   H     0.40702   0.68704   0.71360   0.00000  Uiso   1.00
H827   H     0.47993   0.75352   0.88663   0.00000  Uiso   1.00
H828   H     0.53476   0.96126   0.54422   0.00000  Uiso   1.00
H829   H     0.46524   0.70541   0.95578   0.00000  Uiso   1.00
H830   H     0.53788   0.96348   0.96255   0.00000  Uiso   1.00
H831   H     0.46212   0.70319   0.53745   0.00000  Uiso   1.00
H832   H     0.33796   0.79421   0.71613   0.00000  Uiso   1.00
H833   H     0.66204   0.87246   0.78387   0.00000  Uiso   1.00
H834   H     0.47002   0.74262   0.64743   0.00000  Uiso   1.00
N835   N     0.65011   0.81932   0.73783   0.00000  Uiso   1.00
N836   N     0.34989   0.84735   0.76217   0.00000  Uiso   1.00
O837   O     0.46308   0.91286   0.75299   0.00000  Uiso   1.00
O838   O     0.52964   0.92878   0.88560   0.00000  Uiso   1.00
O839   O     0.56851   0.67403   0.77763   0.00000  Uiso   1.00
O840   O     0.43149   0.99263   0.72238   0.00000  Uiso   1.00
O841   O     0.53692   0.75381   0.74702   0.00000  Uiso   1.00
O842   O     0.55946   0.90387   0.74519   0.00000  Uiso   1.00
O843   O     0.44054   0.76279   0.75482   0.00000  Uiso   1.00
O844   O     0.45181   0.83784   0.81998   0.00000  Uiso   1.00
O845   O     0.54819   0.82883   0.68003   0.00000  Uiso   1.00
O846   O     0.54819   0.82885   0.81218   0.00000  Uiso   1.00
O847   O     0.45181   0.83781   0.68783   0.00000  Uiso   1.00
O848   O     0.47036   0.73788   0.61440   0.00000  Uiso   1.00
Zn849  Zn    0.43565   0.83933   0.75521   0.00000  Uiso   1.00
Zn850  Zn    0.56435   0.82734   0.74479   0.00000  Uiso   1.00
C851   C     0.84834   0.93143   0.74956   0.00000  Uiso   1.00
C852   C     0.84965   0.88205   0.90708   0.00000  Uiso   1.00
C853   C     0.83013   0.83145   0.61622   0.00000  Uiso   1.00
C854   C     0.83654   0.83522   0.88378   0.00000  Uiso   1.00
C855   C     0.84348   0.87792   0.59418   0.00000  Uiso   1.00
C856   C     0.82318   0.78875   0.90583   0.00000  Uiso   1.00
C857   C     0.84472   0.87905   0.54781   0.00000  Uiso   1.00
C858   C     0.82195   0.78761   0.95219   0.00000  Uiso   1.00
C859   C     0.83241   0.83280   0.52347   0.00000  Uiso   1.00
C860   C     0.83426   0.83387   0.97653   0.00000  Uiso   1.00
C861   C     0.81838   0.78548   0.54600   0.00000  Uiso   1.00
C862   C     0.81833   0.73523   0.75044   0.00000  Uiso   1.00
C863   C     0.84829   0.88119   0.95400   0.00000  Uiso   1.00
C864   C     0.85855   0.92568   0.52555   0.00000  Uiso   1.00
C865   C     0.80812   0.74098   0.97445   0.00000  Uiso   1.00
C866   C     0.86035   0.92681   0.97891   0.00000  Uiso   1.00
C867   C     0.80632   0.73986   0.52109   0.00000  Uiso   1.00
C868   C     0.85510   0.98574   0.75570   0.00000  Uiso   1.00
C869   C     0.81156   0.68093   0.74430   0.00000  Uiso   1.00
C870   C     0.83429   0.83376   0.83631   0.00000  Uiso   1.00
C871   C     0.83238   0.83291   0.66369   0.00000  Uiso   1.00
C872   C     0.81701   0.78461   0.59292   0.00000  Uiso   1.00
H873   H     0.85340   0.91315   0.61337   0.00000  Uiso   1.00
H874   H     0.86332   0.92405   0.85257   0.00000  Uiso   1.00
H875   H     0.92635   0.97963   0.78638   0.00000  Uiso   1.00
H876   H     0.74035   0.68704   0.71360   0.00000  Uiso   1.00
H877   H     0.81326   0.75352   0.88663   0.00000  Uiso   1.00
H878   H     0.86809   0.96126   0.54422   0.00000  Uiso   1.00
H879   H     0.79857   0.70541   0.95578   0.00000  Uiso   1.00
H880   H     0.87122   0.96348   0.96255   0.00000  Uiso   1.00
H881   H     0.79545   0.70319   0.53745   0.00000  Uiso   1.00
H882   H     0.67129   0.79421   0.71613   0.00000  Uiso   1.00
H883   H     0.99538   0.87246   0.78387   0.00000  Uiso   1.00
H884   H     0.80335   0.74262   0.64743   0.00000  Uiso   1.00
N885   N     0.98344   0.81932   0.73783   0.00000  Uiso   1.00
N886   N     0.68322   0.84735   0.76217   0.00000  Uiso   1.00
O887   O     0.79642   0.91286   0.75299   0.00000  Uiso   1.00
O888   O     0.86298   0.92878   0.88560   0.00000  Uiso   1.00
O889   O     0.90184   0.67403   0.77763   0.00000  Uiso   1.00
O890   O     0.76482   0.99263   0.72238   0.00000  Uiso   1.00
O891   O     0.87025   0.75381   0.74702   0.00000  Uiso   1.00
O892   O     0.89280   0.90387   0.74519   0.00000  Uiso   1.00
O893   O     0.77387   0.76279   0.75482   0.00000  Uiso   1.00
O894   O     0.78514   0.83784   0.81998   0.00000  Uiso   1.00
O895   O     0.88153   0.82883   0.68003   0.00000  Uiso   1.00
O896   O     0.88152   0.82885   0.81218   0.00000  Uiso   1.00
O897   O     0.78515   0.83781   0.68783   0.00000  Uiso   1.00
O898   O     0.80369   0.73788   0.61440   0.00000  Uiso   1.00
Zn899  Zn    0.76898   0.83933   0.75521   0.00000  Uiso   1.00
Zn900  Zn    0.89769   0.82734   0.74479   0.00000  Uiso   1.00
loop_
_geom_bond_atom_site_label_1
_geom_bond_atom_site_label_2
_geom_bond_distance
_geom_bond_site_symmetry_2
_ccdc_geom_bond_type
C1     O37     1.274   .     A
C1     C18     1.412   .     S
C1     O42     1.289   .     A
C2     O38     1.387   .     S
C2     C4      1.411   .     A
C2     C13     1.395   .     A
C3     C21     1.417   .     S
C3     C22     1.411   .     A
C3     C5      1.389   .     A
C4     C6      1.389   .     A
C4     C20     1.417   .     S
C5     C7      1.379   .     A
C5     H23     1.086   .     S
C6     C8      1.379   .     A
C6     H27     1.086   .     S
C7     C9      1.410   .     A
C7     C14     1.397   .     A
C8     C15     1.397   .     A
C8     C10     1.410   .     A
C9     C11     1.417   .     A
C9     C460    1.396   1_554 S
C10    C13     1.417   .     A
C10    C459    1.396   .     S
C11    C22     1.395   .     A
C11    C17     1.404   .     A
C12    O41     1.274   .     A
C12    C19     1.412   .     S
C12    O43     1.289   .     A
C13    C16     1.404   .     A
C14    H28     1.084   .     S
C14    C466    1.387   1_554 S
C15    H29     1.084   .     S
C15    C467    1.387   .     S
C16    H30     1.083   .     S
C16    C464    1.387   .     S
C17    H31     1.083   .     S
C17    C465    1.387   1_554 S
C18    C169    1.353   .     S
C18    O189    1.391   .     S
C19    C318    1.353   1_545 S
C19    O340    1.391   1_545 S
C20    O44     1.285   .     A
C20    O46     1.285   .     A
C21    O47     1.285   .     A
C21    O45     1.285   .     A
C22    O48     1.387   .     S
H24    O38     0.988   .     S
H25    O189    0.991   .     S
H26    O340    0.991   1_545 S
H32    N135    1.029   1_455 S
H33    N86     1.029   .     S
H34    O48     0.988   .     S
N35    Zn50    2.018   .     S
N35    H82     1.029   .     S
N35    N86     1.278   .     S
N36    Zn49    2.018   .     S
N36    H133    1.029   1_455 S
N36    N135    1.278   1_455 S
O37    Zn49    1.970   .     S
O39    H325    0.991   1_545 S
O39    C318    1.391   1_545 S
O40    H176    0.991   .     S
O40    C169    1.391   .     S
O41    Zn50    1.970   .     S
O42    Zn50    1.987   .     S
O43    Zn49    1.987   .     S
O44    Zn49    1.990   .     S
O45    Zn50    1.990   .     S
O46    Zn50    2.016   .     S
O47    Zn49    2.016   .     S
C51    O87     1.274   .     A
C51    C68     1.412   .     S
C51    O92     1.289   .     A
C52    O88     1.387   .     S
C52    C54     1.411   .     A
C52    C63     1.395   .     A
C53    C71     1.417   .     S
C53    C72     1.411   .     A
C53    C55     1.389   .     A
C54    C56     1.389   .     A
C54    C70     1.417   .     S
C55    C57     1.379   .     A
C55    H73     1.086   .     S
C56    C58     1.379   .     A
C56    H77     1.086   .     S
C57    C59     1.410   .     A
C57    C64     1.397   .     A
C58    C65     1.397   .     A
C58    C60     1.410   .     A
C59    C61     1.417   .     A
C59    C510    1.396   1_554 S
C60    C63     1.417   .     A
C60    C509    1.396   .     S
C61    C72     1.395   .     A
C61    C67     1.404   .     A
C62    O91     1.274   .     A
C62    C69     1.412   .     S
C62    O93     1.289   .     A
C63    C66     1.404   .     A
C64    H78     1.084   .     S
C64    C516    1.387   1_554 S
C65    H79     1.084   .     S
C65    C517    1.387   .     S
C66    H80     1.083   .     S
C66    C514    1.387   .     S
C67    H81     1.083   .     S
C67    C515    1.387   1_554 S
C68    C219    1.353   .     S
C68    O239    1.391   .     S
C69    C368    1.353   1_545 S
C69    O390    1.391   1_545 S
C70    O94     1.285   .     A
C70    O96     1.285   .     A
C71    O97     1.285   .     A
C71    O95     1.285   .     A
C72    O98     1.387   .     S
H74    O88     0.988   .     S
H75    O239    0.991   .     S
H76    O390    0.991   1_545 S
H83    N136    1.029   .     S
H84    O98     0.988   .     S
N85    Zn100   2.018   .     S
N85    H132    1.029   .     S
N85    N136    1.278   .     S
N86    Zn99    2.018   .     S
O87    Zn99    1.970   .     S
O89    H375    0.991   1_545 S
O89    C368    1.391   1_545 S
O90    H226    0.991   .     S
O90    C219    1.391   .     S
O91    Zn100   1.970   .     S
O92    Zn100   1.987   .     S
O93    Zn99    1.987   .     S
O94    Zn99    1.990   .     S
O95    Zn100   1.990   .     S
O96    Zn100   2.016   .     S
O97    Zn99    2.016   .     S
C101   O137    1.274   .     A
C101   C118    1.412   .     S
C101   O142    1.289   .     A
C102   O138    1.387   .     S
C102   C104    1.411   .     A
C102   C113    1.395   .     A
C103   C121    1.417   .     S
C103   C122    1.411   .     A
C103   C105    1.389   .     A
C104   C106    1.389   .     A
C104   C120    1.417   .     S
C105   C107    1.379   .     A
C105   H123    1.086   .     S
C106   C108    1.379   .     A
C106   H127    1.086   .     S
C107   C109    1.410   .     A
C107   C114    1.397   .     A
C108   C115    1.397   .     A
C108   C110    1.410   .     A
C109   C111    1.417   .     A
C109   C560    1.396   1_554 S
C110   C113    1.417   .     A
C110   C559    1.396   .     S
C111   C122    1.395   .     A
C111   C117    1.404   .     A
C112   O141    1.274   .     A
C112   C119    1.412   .     S
C112   O143    1.289   .     A
C113   C116    1.404   .     A
C114   H128    1.084   .     S
C114   C566    1.387   1_554 S
C115   H129    1.084   .     S
C115   C567    1.387   .     S
C116   H130    1.083   .     S
C116   C564    1.387   .     S
C117   H131    1.083   .     S
C117   C565    1.387   1_554 S
C118   C269    1.353   .     S
C118   O289    1.391   .     S
C119   C418    1.353   1_545 S
C119   O440    1.391   1_545 S
C120   O144    1.285   .     A
C120   O146    1.285   .     A
C121   O147    1.285   .     A
C121   O145    1.285   .     A
C122   O148    1.387   .     S
H124   O138    0.988   .     S
H125   O289    0.991   .     S
H126   O440    0.991   1_545 S
H133   N36     1.029   1_655 S
H134   O148    0.988   .     S
N135   Zn150   2.018   .     S
N135   H32     1.029   1_655 S
N135   N36     1.278   1_655 S
N136   Zn149   2.018   .     S
O137   Zn149   1.970   .     S
O139   H425    0.991   1_545 S
O139   C418    1.391   1_545 S
O140   H276    0.991   .     S
O140   C269    1.391   .     S
O141   Zn150   1.970   .     S
O142   Zn150   1.987   .     S
O143   Zn149   1.987   .     S
O144   Zn149   1.990   .     S
O145   Zn150   1.990   .     S
O146   Zn150   2.016   .     S
O147   Zn149   2.016   .     S
C151   O187    1.274   .     A
C151   C168    1.412   .     S
C151   O192    1.289   .     A
C152   O188    1.387   .     S
C152   C154    1.411   .     A
C152   C163    1.395   .     A
C153   C171    1.417   .     S
C153   C172    1.411   .     A
C153   C155    1.389   .     A
C154   C156    1.389   .     A
C154   C170    1.417   .     S
C155   C157    1.379   .     A
C155   H173    1.086   .     S
C156   C158    1.379   .     A
C156   H177    1.086   .     S
C157   C159    1.410   .     A
C157   C164    1.397   .     A
C158   C165    1.397   .     A
C158   C160    1.410   .     A
C159   C161    1.417   .     A
C159   C610    1.396   1_554 S
C160   C163    1.417   .     A
C160   C609    1.396   .     S
C161   C172    1.395   .     A
C161   C167    1.404   .     A
C162   O191    1.274   .     A
C162   C169    1.412   .     S
C162   O193    1.289   .     A
C163   C166    1.404   .     A
C164   H178    1.084   .     S
C164   C616    1.387   1_554 S
C165   H179    1.084   .     S
C165   C617    1.387   .     S
C166   H180    1.083   .     S
C166   C614    1.387   .     S
C167   H181    1.083   .     S
C167   C615    1.387   1_554 S
C168   C319    1.353   .     S
C168   O339    1.391   .     S
C170   O194    1.285   .     A
C170   O196    1.285   .     A
C171   O197    1.285   .     A
C171   O195    1.285   .     A
C172   O198    1.387   .     S
H174   O188    0.988   .     S
H175   O339    0.991   .     S
H182   N285    1.029   1_455 S
H183   N236    1.029   .     S
H184   O198    0.988   .     S
N185   Zn200   2.018   .     S
N185   H232    1.029   .     S
N185   N236    1.278   .     S
N186   Zn199   2.018   .     S
N186   H283    1.029   1_455 S
N186   N285    1.278   1_455 S
O187   Zn199   1.970   .     S
O190   H326    0.991   .     S
O190   C319    1.391   .     S
O191   Zn200   1.970   .     S
O192   Zn200   1.987   .     S
O193   Zn199   1.987   .     S
O194   Zn199   1.990   .     S
O195   Zn200   1.990   .     S
O196   Zn200   2.016   .     S
O197   Zn199   2.016   .     S
C201   O237    1.274   .     A
C201   C218    1.412   .     S
C201   O242    1.289   .     A
C202   O238    1.387   .     S
C202   C204    1.411   .     A
C202   C213    1.395   .     A
C203   C221    1.417   .     S
C203   C222    1.411   .     A
C203   C205    1.389   .     A
C204   C206    1.389   .     A
C204   C220    1.417   .     S
C205   C207    1.379   .     A
C205   H223    1.086   .     S
C206   C208    1.379   .     A
C206   H227    1.086   .     S
C207   C209    1.410   .     A
C207   C214    1.397   .     A
C208   C215    1.397   .     A
C208   C210    1.410   .     A
C209   C211    1.417   .     A
C209   C660    1.396   1_554 S
C210   C213    1.417   .     A
C210   C659    1.396   .     S
C211   C222    1.395   .     A
C211   C217    1.404   .     A
C212   O241    1.274   .     A
C212   C219    1.412   .     S
C212   O243    1.289   .     A
C213   C216    1.404   .     A
C214   H228    1.084   .     S
C214   C666    1.387   1_554 S
C215   H229    1.084   .     S
C215   C667    1.387   .     S
C216   H230    1.083   .     S
C216   C664    1.387   .     S
C217   H231    1.083   .     S
C217   C665    1.387   1_554 S
C218   C369    1.353   .     S
C218   O389    1.391   .     S
C220   O244    1.285   .     A
C220   O246    1.285   .     A
C221   O247    1.285   .     A
C221   O245    1.285   .     A
C222   O248    1.387   .     S
H224   O238    0.988   .     S
H225   O389    0.991   .     S
H233   N286    1.029   .     S
H234   O248    0.988   .     S
N235   Zn250   2.018   .     S
N235   H282    1.029   .     S
N235   N286    1.278   .     S
N236   Zn249   2.018   .     S
O237   Zn249   1.970   .     S
O240   H376    0.991   .     S
O240   C369    1.391   .     S
O241   Zn250   1.970   .     S
O242   Zn250   1.987   .     S
O243   Zn249   1.987   .     S
O244   Zn249   1.990   .     S
O245   Zn250   1.990   .     S
O246   Zn250   2.016   .     S
O247   Zn249   2.016   .     S
C251   O287    1.274   .     A
C251   C268    1.412   .     S
C251   O292    1.289   .     A
C252   O288    1.387   .     S
C252   C254    1.411   .     A
C252   C263    1.395   .     A
C253   C271    1.417   .     S
C253   C272    1.411   .     A
C253   C255    1.389   .     A
C254   C256    1.389   .     A
C254   C270    1.417   .     S
C255   C257    1.379   .     A
C255   H273    1.086   .     S
C256   C258    1.379   .     A
C256   H277    1.086   .     S
C257   C259    1.410   .     A
C257   C264    1.397   .     A
C258   C265    1.397   .     A
C258   C260    1.410   .     A
C259   C261    1.417   .     A
C259   C710    1.396   1_554 S
C260   C263    1.417   .     A
C260   C709    1.396   .     S
C261   C272    1.395   .     A
C261   C267    1.404   .     A
C262   O291    1.274   .     A
C262   C269    1.412   .     S
C262   O293    1.289   .     A
C263   C266    1.404   .     A
C264   H278    1.084   .     S
C264   C716    1.387   1_554 S
C265   H279    1.084   .     S
C265   C717    1.387   .     S
C266   H280    1.083   .     S
C266   C714    1.387   .     S
C267   H281    1.083   .     S
C267   C715    1.387   1_554 S
C268   C419    1.353   .     S
C268   O439    1.391   .     S
C270   O294    1.285   .     A
C270   O296    1.285   .     A
C271   O297    1.285   .     A
C271   O295    1.285   .     A
C272   O298    1.387   .     S
H274   O288    0.988   .     S
H275   O439    0.991   .     S
H283   N186    1.029   1_655 S
H284   O298    0.988   .     S
N285   Zn300   2.018   .     S
N285   H182    1.029   1_655 S
N285   N186    1.278   1_655 S
N286   Zn299   2.018   .     S
O287   Zn299   1.970   .     S
O290   H426    0.991   .     S
O290   C419    1.391   .     S
O291   Zn300   1.970   .     S
O292   Zn300   1.987   .     S
O293   Zn299   1.987   .     S
O294   Zn299   1.990   .     S
O295   Zn300   1.990   .     S
O296   Zn300   2.016   .     S
O297   Zn299   2.016   .     S
C301   O337    1.274   .     A
C301   C318    1.412   .     S
C301   O342    1.289   .     A
C302   O338    1.387   .     S
C302   C304    1.411   .     A
C302   C313    1.395   .     A
C303   C321    1.417   .     S
C303   C322    1.411   .     A
C303   C305    1.389   .     A
C304   C306    1.389   .     A
C304   C320    1.417   .     S
C305   C307    1.379   .     A
C305   H323    1.086   .     S
C306   C308    1.379   .     A
C306   H327    1.086   .     S
C307   C309    1.410   .     A
C307   C314    1.397   .     A
C308   C315    1.397   .     A
C308   C310    1.410   .     A
C309   C311    1.417   .     A
C309   C760    1.396   1_554 S
C310   C313    1.417   .     A
C310   C759    1.396   .     S
C311   C322    1.395   .     A
C311   C317    1.404   .     A
C312   O341    1.274   .     A
C312   C319    1.412   .     S
C312   O343    1.289   .     A
C313   C316    1.404   .     A
C314   H328    1.084   .     S
C314   C766    1.387   1_554 S
C315   H329    1.084   .     S
C315   C767    1.387   .     S
C316   H330    1.083   .     S
C316   C764    1.387   .     S
C317   H331    1.083   .     S
C317   C765    1.387   1_554 S
C318   C19     1.353   1_565 S
C318   O39     1.391   1_565 S
C320   O344    1.285   .     A
C320   O346    1.285   .     A
C321   O347    1.285   .     A
C321   O345    1.285   .     A
C322   O348    1.387   .     S
H324   O338    0.988   .     S
H325   O39     0.991   1_565 S
H332   N435    1.029   1_455 S
H333   N386    1.029   .     S
H334   O348    0.988   .     S
N335   Zn350   2.018   .     S
N335   H382    1.029   .     S
N335   N386    1.278   .     S
N336   Zn349   2.018   .     S
N336   H433    1.029   1_455 S
N336   N435    1.278   1_455 S
O337   Zn349   1.970   .     S
O340   H26     0.991   1_565 S
O340   C19     1.391   1_565 S
O341   Zn350   1.970   .     S
O342   Zn350   1.987   .     S
O343   Zn349   1.987   .     S
O344   Zn349   1.990   .     S
O345   Zn350   1.990   .     S
O346   Zn350   2.016   .     S
O347   Zn349   2.016   .     S
C351   O387    1.274   .     A
C351   C368    1.412   .     S
C351   O392    1.289   .     A
C352   O388    1.387   .     S
C352   C354    1.411   .     A
C352   C363    1.395   .     A
C353   C371    1.417   .     S
C353   C372    1.411   .     A
C353   C355    1.389   .     A
C354   C356    1.389   .     A
C354   C370    1.417   .     S
C355   C357    1.379   .     A
C355   H373    1.086   .     S
C356   C358    1.379   .     A
C356   H377    1.086   .     S
C357   C359    1.410   .     A
C357   C364    1.397   .     A
C358   C365    1.397   .     A
C358   C360    1.410   .     A
C359   C361    1.417   .     A
C359   C810    1.396   1_554 S
C360   C363    1.417   .     A
C360   C809    1.396   .     S
C361   C372    1.395   .     A
C361   C367    1.404   .     A
C362   O391    1.274   .     A
C362   C369    1.412   .     S
C362   O393    1.289   .     A
C363   C366    1.404   .     A
C364   H378    1.084   .     S
C364   C816    1.387   1_554 S
C365   H379    1.084   .     S
C365   C817    1.387   .     S
C366   H380    1.083   .     S
C366   C814    1.387   .     S
C367   H381    1.083   .     S
C367   C815    1.387   1_554 S
C368   C69     1.353   1_565 S
C368   O89     1.391   1_565 S
C370   O394    1.285   .     A
C370   O396    1.285   .     A
C371   O397    1.285   .     A
C371   O395    1.285   .     A
C372   O398    1.387   .     S
H374   O388    0.988   .     S
H375   O89     0.991   1_565 S
H383   N436    1.029   .     S
H384   O398    0.988   .     S
N385   Zn400   2.018   .     S
N385   H432    1.029   .     S
N385   N436    1.278   .     S
N386   Zn399   2.018   .     S
O387   Zn399   1.970   .     S
O390   H76     0.991   1_565 S
O390   C69     1.391   1_565 S
O391   Zn400   1.970   .     S
O392   Zn400   1.987   .     S
O393   Zn399   1.987   .     S
O394   Zn399   1.990   .     S
O395   Zn400   1.990   .     S
O396   Zn400   2.016   .     S
O397   Zn399   2.016   .     S
C401   O437    1.274   .     A
C401   C418    1.412   .     S
C401   O442    1.289   .     A
C402   O438    1.387   .     S
C402   C404    1.411   .     A
C402   C413    1.395   .     A
C403   C421    1.417   .     S
C403   C422    1.411   .     A
C403   C405    1.389   .     A
C404   C406    1.389   .     A
C404   C420    1.417   .     S
C405   C407    1.379   .     A
C405   H423    1.086   .     S
C406   C408    1.379   .     A
C406   H427    1.086   .     S
C407   C409    1.410   .     A
C407   C414    1.397   .     A
C408   C415    1.397   .     A
C408   C410    1.410   .     A
C409   C411    1.417   .     A
C409   C860    1.396   1_554 S
C410   C413    1.417   .     A
C410   C859    1.396   .     S
C411   C422    1.395   .     A
C411   C417    1.404   .     A
C412   O441    1.274   .     A
C412   C419    1.412   .     S
C412   O443    1.289   .     A
C413   C416    1.404   .     A
C414   H428    1.084   .     S
C414   C866    1.387   1_554 S
C415   H429    1.084   .     S
C415   C867    1.387   .     S
C416   H430    1.083   .     S
C416   C864    1.387   .     S
C417   H431    1.083   .     S
C417   C865    1.387   1_554 S
C418   C119    1.353   1_565 S
C418   O139    1.391   1_565 S
C420   O444    1.285   .     A
C420   O446    1.285   .     A
C421   O447    1.285   .     A
C421   O445    1.285   .     A
C422   O448    1.387   .     S
H424   O438    0.988   .     S
H425   O139    0.991   1_565 S
H433   N336    1.029   1_655 S
H434   O448    0.988   .     S
N435   Zn450   2.018   .     S
N435   H332    1.029   1_655 S
N435   N336    1.278   1_655 S
N436   Zn449   2.018   .     S
O437   Zn449   1.970   .     S
O440   H126    0.991   1_565 S
O440   C119    1.391   1_565 S
O441   Zn450   1.970   .     S
O442   Zn450   1.987   .     S
O443   Zn449   1.987   .     S
O444   Zn449   1.990   .     S
O445   Zn450   1.990   .     S
O446   Zn450   2.016   .     S
O447   Zn449   2.016   .     S
C451   O487    1.274   .     A
C451   C468    1.412   .     S
C451   O492    1.289   .     A
C452   O488    1.387   .     S
C452   C454    1.411   .     A
C452   C463    1.395   .     A
C453   C471    1.417   .     S
C453   C472    1.411   .     A
C453   C455    1.389   .     A
C454   C456    1.389   .     A
C454   C470    1.417   .     S
C455   C457    1.379   .     A
C455   H473    1.086   .     S
C456   C458    1.379   .     A
C456   H477    1.086   .     S
C457   C459    1.410   .     A
C457   C464    1.397   .     A
C458   C465    1.397   .     A
C458   C460    1.410   .     A
C459   C461    1.417   .     A
C460   C463    1.417   .     A
C460   C9      1.396   1_556 S
C461   C472    1.395   .     A
C461   C467    1.404   .     A
C462   O491    1.274   .     A
C462   C469    1.412   .     S
C462   O493    1.289   .     A
C463   C466    1.404   .     A
C464   H478    1.084   .     S
C465   H479    1.084   .     S
C465   C17     1.387   1_556 S
C466   H480    1.083   .     S
C466   C14     1.387   1_556 S
C467   H481    1.083   .     S
C468   C619    1.353   .     S
C468   O639    1.391   .     S
C469   C768    1.353   1_545 S
C469   O790    1.391   1_545 S
C470   O494    1.285   .     A
C470   O496    1.285   .     A
C471   O497    1.285   .     A
C471   O495    1.285   .     A
C472   O498    1.387   .     S
H474   O488    0.988   .     S
H475   O639    0.991   .     S
H476   O790    0.991   1_545 S
H482   N585    1.029   1_455 S
H483   N536    1.029   .     S
H484   O498    0.988   .     S
N485   Zn500   2.018   .     S
N485   H532    1.029   .     S
N485   N536    1.278   .     S
N486   Zn499   2.018   .     S
N486   H583    1.029   1_455 S
N486   N585    1.278   1_455 S
O487   Zn499   1.970   .     S
O489   H775    0.991   1_545 S
O489   C768    1.391   1_545 S
O490   H626    0.991   .     S
O490   C619    1.391   .     S
O491   Zn500   1.970   .     S
O492   Zn500   1.987   .     S
O493   Zn499   1.987   .     S
O494   Zn499   1.990   .     S
O495   Zn500   1.990   .     S
O496   Zn500   2.016   .     S
O497   Zn499   2.016   .     S
C501   O537    1.274   .     A
C501   C518    1.412   .     S
C501   O542    1.289   .     A
C502   O538    1.387   .     S
C502   C504    1.411   .     A
C502   C513    1.395   .     A
C503   C521    1.417   .     S
C503   C522    1.411   .     A
C503   C505    1.389   .     A
C504   C506    1.389   .     A
C504   C520    1.417   .     S
C505   C507    1.379   .     A
C505   H523    1.086   .     S
C506   C508    1.379   .     A
C506   H527    1.086   .     S
C507   C509    1.410   .     A
C507   C514    1.397   .     A
C508   C515    1.397   .     A
C508   C510    1.410   .     A
C509   C511    1.417   .     A
C510   C513    1.417   .     A
C510   C59     1.396   1_556 S
C511   C522    1.395   .     A
C511   C517    1.404   .     A
C512   O541    1.274   .     A
C512   C519    1.412   .     S
C512   O543    1.289   .     A
C513   C516    1.404   .     A
C514   H528    1.084   .     S
C515   H529    1.084   .     S
C515   C67     1.387   1_556 S
C516   H530    1.083   .     S
C516   C64     1.387   1_556 S
C517   H531    1.083   .     S
C518   C669    1.353   .     S
C518   O689    1.391   .     S
C519   C818    1.353   1_545 S
C519   O840    1.391   1_545 S
C520   O544    1.285   .     A
C520   O546    1.285   .     A
C521   O547    1.285   .     A
C521   O545    1.285   .     A
C522   O548    1.387   .     S
H524   O538    0.988   .     S
H525   O689    0.991   .     S
H526   O840    0.991   1_545 S
H533   N586    1.029   .     S
H534   O548    0.988   .     S
N535   Zn550   2.018   .     S
N535   H582    1.029   .     S
N535   N586    1.278   .     S
N536   Zn549   2.018   .     S
O537   Zn549   1.970   .     S
O539   H825    0.991   1_545 S
O539   C818    1.391   1_545 S
O540   H676    0.991   .     S
O540   C669    1.391   .     S
O541   Zn550   1.970   .     S
O542   Zn550   1.987   .     S
O543   Zn549   1.987   .     S
O544   Zn549   1.990   .     S
O545   Zn550   1.990   .     S
O546   Zn550   2.016   .     S
O547   Zn549   2.016   .     S
C551   O587    1.274   .     A
C551   C568    1.412   .     S
C551   O592    1.289   .     A
C552   O588    1.387   .     S
C552   C554    1.411   .     A
C552   C563    1.395   .     A
C553   C571    1.417   .     S
C553   C572    1.411   .     A
C553   C555    1.389   .     A
C554   C556    1.389   .     A
C554   C570    1.417   .     S
C555   C557    1.379   .     A
C555   H573    1.086   .     S
C556   C558    1.379   .     A
C556   H577    1.086   .     S
C557   C559    1.410   .     A
C557   C564    1.397   .     A
C558   C565    1.397   .     A
C558   C560    1.410   .     A
C559   C561    1.417   .     A
C560   C563    1.417   .     A
C560   C109    1.396   1_556 S
C561   C572    1.395   .     A
C561   C567    1.404   .     A
C562   O591    1.274   .     A
C562   C569    1.412   .     S
C562   O593    1.289   .     A
C563   C566    1.404   .     A
C564   H578    1.084   .     S
C565   H579    1.084   .     S
C565   C117    1.387   1_556 S
C566   H580    1.083   .     S
C566   C114    1.387   1_556 S
C567   H581    1.083   .     S
C568   C719    1.353   .     S
C568   O739    1.391   .     S
C569   C868    1.353   1_545 S
C569   O890    1.391   1_545 S
C570   O594    1.285   .     A
C570   O596    1.285   .     A
C571   O597    1.285   .     A
C571   O595    1.285   .     A
C572   O598    1.387   .     S
H574   O588    0.988   .     S
H575   O739    0.991   .     S
H576   O890    0.991   1_545 S
H583   N486    1.029   1_655 S
H584   O598    0.988   .     S
N585   Zn600   2.018   .     S
N585   H482    1.029   1_655 S
N585   N486    1.278   1_655 S
N586   Zn599   2.018   .     S
O587   Zn599   1.970   .     S
O589   H875    0.991   1_545 S
O589   C868    1.391   1_545 S
O590   H726    0.991   .     S
O590   C719    1.391   .     S
O591   Zn600   1.970   .     S
O592   Zn600   1.987   .     S
O593   Zn599   1.987   .     S
O594   Zn599   1.990   .     S
O595   Zn600   1.990   .     S
O596   Zn600   2.016   .     S
O597   Zn599   2.016   .     S
C601   O637    1.274   .     A
C601   C618    1.412   .     S
C601   O642    1.289   .     A
C602   O638    1.387   .     S
C602   C604    1.411   .     A
C602   C613    1.395   .     A
C603   C621    1.417   .     S
C603   C622    1.411   .     A
C603   C605    1.389   .     A
C604   C606    1.389   .     A
C604   C620    1.417   .     S
C605   C607    1.379   .     A
C605   H623    1.086   .     S
C606   C608    1.379   .     A
C606   H627    1.086   .     S
C607   C609    1.410   .     A
C607   C614    1.397   .     A
C608   C615    1.397   .     A
C608   C610    1.410   .     A
C609   C611    1.417   .     A
C610   C613    1.417   .     A
C610   C159    1.396   1_556 S
C611   C622    1.395   .     A
C611   C617    1.404   .     A
C612   O641    1.274   .     A
C612   C619    1.412   .     S
C612   O643    1.289   .     A
C613   C616    1.404   .     A
C614   H628    1.084   .     S
C615   H629    1.084   .     S
C615   C167    1.387   1_556 S
C616   H630    1.083   .     S
C616   C164    1.387   1_556 S
C617   H631    1.083   .     S
C618   C769    1.353   .     S
C618   O789    1.391   .     S
C620   O644    1.285   .     A
C620   O646    1.285   .     A
C621   O647    1.285   .     A
C621   O645    1.285   .     A
C622   O648    1.387   .     S
H624   O638    0.988   .     S
H625   O789    0.991   .     S
H632   N735    1.029   1_455 S
H633   N686    1.029   .     S
H634   O648    0.988   .     S
N635   Zn650   2.018   .     S
N635   H682    1.029   .     S
N635   N686    1.278   .     S
N636   Zn649   2.018   .     S
N636   H733    1.029   1_455 S
N636   N735    1.278   1_455 S
O637   Zn649   1.970   .     S
O640   H776    0.991   .     S
O640   C769    1.391   .     S
O641   Zn650   1.970   .     S
O642   Zn650   1.987   .     S
O643   Zn649   1.987   .     S
O644   Zn649   1.990   .     S
O645   Zn650   1.990   .     S
O646   Zn650   2.016   .     S
O647   Zn649   2.016   .     S
C651   O687    1.274   .     A
C651   C668    1.412   .     S
C651   O692    1.289   .     A
C652   O688    1.387   .     S
C652   C654    1.411   .     A
C652   C663    1.395   .     A
C653   C671    1.417   .     S
C653   C672    1.411   .     A
C653   C655    1.389   .     A
C654   C656    1.389   .     A
C654   C670    1.417   .     S
C655   C657    1.379   .     A
C655   H673    1.086   .     S
C656   C658    1.379   .     A
C656   H677    1.086   .     S
C657   C659    1.410   .     A
C657   C664    1.397   .     A
C658   C665    1.397   .     A
C658   C660    1.410   .     A
C659   C661    1.417   .     A
C660   C663    1.417   .     A
C660   C209    1.396   1_556 S
C661   C672    1.395   .     A
C661   C667    1.404   .     A
C662   O691    1.274   .     A
C662   C669    1.412   .     S
C662   O693    1.289   .     A
C663   C666    1.404   .     A
C664   H678    1.084   .     S
C665   H679    1.084   .     S
C665   C217    1.387   1_556 S
C666   H680    1.083   .     S
C666   C214    1.387   1_556 S
C667   H681    1.083   .     S
C668   C819    1.353   .     S
C668   O839    1.391   .     S
C670   O694    1.285   .     A
C670   O696    1.285   .     A
C671   O697    1.285   .     A
C671   O695    1.285   .     A
C672   O698    1.387   .     S
H674   O688    0.988   .     S
H675   O839    0.991   .     S
H683   N736    1.029   .     S
H684   O698    0.988   .     S
N685   Zn700   2.018   .     S
N685   H732    1.029   .     S
N685   N736    1.278   .     S
N686   Zn699   2.018   .     S
O687   Zn699   1.970   .     S
O690   H826    0.991   .     S
O690   C819    1.391   .     S
O691   Zn700   1.970   .     S
O692   Zn700   1.987   .     S
O693   Zn699   1.987   .     S
O694   Zn699   1.990   .     S
O695   Zn700   1.990   .     S
O696   Zn700   2.016   .     S
O697   Zn699   2.016   .     S
C701   O737    1.274   .     A
C701   C718    1.412   .     S
C701   O742    1.289   .     A
C702   O738    1.387   .     S
C702   C704    1.411   .     A
C702   C713    1.395   .     A
C703   C721    1.417   .     S
C703   C722    1.411   .     A
C703   C705    1.389   .     A
C704   C706    1.389   .     A
C704   C720    1.417   .     S
C705   C707    1.379   .     A
C705   H723    1.086   .     S
C706   C708    1.379   .     A
C706   H727    1.086   .     S
C707   C709    1.410   .     A
C707   C714    1.397   .     A
C708   C715    1.397   .     A
C708   C710    1.410   .     A
C709   C711    1.417   .     A
C710   C713    1.417   .     A
C710   C259    1.396   1_556 S
C711   C722    1.395   .     A
C711   C717    1.404   .     A
C712   O741    1.274   .     A
C712   C719    1.412   .     S
C712   O743    1.289   .     A
C713   C716    1.404   .     A
C714   H728    1.084   .     S
C715   H729    1.084   .     S
C715   C267    1.387   1_556 S
C716   H730    1.083   .     S
C716   C264    1.387   1_556 S
C717   H731    1.083   .     S
C718   C869    1.353   .     S
C718   O889    1.391   .     S
C720   O744    1.285   .     A
C720   O746    1.285   .     A
C721   O747    1.285   .     A
C721   O745    1.285   .     A
C722   O748    1.387   .     S
H724   O738    0.988   .     S
H725   O889    0.991   .     S
H733   N636    1.029   1_655 S
H734   O748    0.988   .     S
N735   Zn750   2.018   .     S
N735   H632    1.029   1_655 S
N735   N636    1.278   1_655 S
N736   Zn749   2.018   .     S
O737   Zn749   1.970   .     S
O740   H876    0.991   .     S
O740   C869    1.391   .     S
O741   Zn750   1.970   .     S
O742   Zn750   1.987   .     S
O743   Zn749   1.987   .     S
O744   Zn749   1.990   .     S
O745   Zn750   1.990   .     S
O746   Zn750   2.016   .     S
O747   Zn749   2.016   .     S
C751   O787    1.274   .     A
C751   C768    1.412   .     S
C751   O792    1.289   .     A
C752   O788    1.387   .     S
C752   C754    1.411   .     A
C752   C763    1.395   .     A
C753   C771    1.417   .     S
C753   C772    1.411   .     A
C753   C755    1.389   .     A
C754   C756    1.389   .     A
C754   C770    1.417   .     S
C755   C757    1.379   .     A
C755   H773    1.086   .     S
C756   C758    1.379   .     A
C756   H777    1.086   .     S
C757   C759    1.410   .     A
C757   C764    1.397   .     A
C758   C765    1.397   .     A
C758   C760    1.410   .     A
C759   C761    1.417   .     A
C760   C763    1.417   .     A
C760   C309    1.396   1_556 S
C761   C772    1.395   .     A
C761   C767    1.404   .     A
C762   O791    1.274   .     A
C762   C769    1.412   .     S
C762   O793    1.289   .     A
C763   C766    1.404   .     A
C764   H778    1.084   .     S
C765   H779    1.084   .     S
C765   C317    1.387   1_556 S
C766   H780    1.083   .     S
C766   C314    1.387   1_556 S
C767   H781    1.083   .     S
C768   C469    1.353   1_565 S
C768   O489    1.391   1_565 S
C770   O794    1.285   .     A
C770   O796    1.285   .     A
C771   O797    1.285   .     A
C771   O795    1.285   .     A
C772   O798    1.387   .     S
H774   O788    0.988   .     S
H775   O489    0.991   1_565 S
H782   N885    1.029   1_455 S
H783   N836    1.029   .     S
H784   O798    0.988   .     S
N785   Zn800   2.018   .     S
N785   H832    1.029   .     S
N785   N836    1.278   .     S
N786   Zn799   2.018   .     S
N786   H883    1.029   1_455 S
N786   N885    1.278   1_455 S
O787   Zn799   1.970   .     S
O790   H476    0.991   1_565 S
O790   C469    1.391   1_565 S
O791   Zn800   1.970   .     S
O792   Zn800   1.987   .     S
O793   Zn799   1.987   .     S
O794   Zn799   1.990   .     S
O795   Zn800   1.990   .     S
O796   Zn800   2.016   .     S
O797   Zn799   2.016   .     S
C801   O837    1.274   .     A
C801   C818    1.412   .     S
C801   O842    1.289   .     A
C802   O838    1.387   .     S
C802   C804    1.411   .     A
C802   C813    1.395   .     A
C803   C821    1.417   .     S
C803   C822    1.411   .     A
C803   C805    1.389   .     A
C804   C806    1.389   .     A
C804   C820    1.417   .     S
C805   C807    1.379   .     A
C805   H823    1.086   .     S
C806   C808    1.379   .     A
C806   H827    1.086   .     S
C807   C809    1.410   .     A
C807   C814    1.397   .     A
C808   C815    1.397   .     A
C808   C810    1.410   .     A
C809   C811    1.417   .     A
C810   C813    1.417   .     A
C810   C359    1.396   1_556 S
C811   C822    1.395   .     A
C811   C817    1.404   .     A
C812   O841    1.274   .     A
C812   C819    1.412   .     S
C812   O843    1.289   .     A
C813   C816    1.404   .     A
C814   H828    1.084   .     S
C815   H829    1.084   .     S
C815   C367    1.387   1_556 S
C816   H830    1.083   .     S
C816   C364    1.387   1_556 S
C817   H831    1.083   .     S
C818   C519    1.353   1_565 S
C818   O539    1.391   1_565 S
C820   O844    1.285   .     A
C820   O846    1.285   .     A
C821   O847    1.285   .     A
C821   O845    1.285   .     A
C822   O848    1.387   .     S
H824   O838    0.988   .     S
H825   O539    0.991   1_565 S
H833   N886    1.029   .     S
H834   O848    0.988   .     S
N835   Zn850   2.018   .     S
N835   H882    1.029   .     S
N835   N886    1.278   .     S
N836   Zn849   2.018   .     S
O837   Zn849   1.970   .     S
O840   H526    0.991   1_565 S
O840   C519    1.391   1_565 S
O841   Zn850   1.970   .     S
O842   Zn850   1.987   .     S
O843   Zn849   1.987   .     S
O844   Zn849   1.990   .     S
O845   Zn850   1.990   .     S
O846   Zn850   2.016   .     S
O847   Zn849   2.016   .     S
C851   O887    1.274   .     A
C851   C868    1.412   .     S
C851   O892    1.289   .     A
C852   O888    1.387   .     S
C852   C854    1.411   .     A
C852   C863    1.395   .     A
C853   C871    1.417   .     S
C853   C872    1.411   .     A
C853   C855    1.389   .     A
C854   C856    1.389   .     A
C854   C870    1.417   .     S
C855   C857    1.379   .     A
C855   H873    1.086   .     S
C856   C858    1.379   .     A
C856   H877    1.086   .     S
C857   C859    1.410   .     A
C857   C864    1.397   .     A
C858   C865    1.397   .     A
C858   C860    1.410   .     A
C859   C861    1.417   .     A
C860   C863    1.417   .     A
C860   C409    1.396   1_556 S
C861   C872    1.395   .     A
C861   C867    1.404   .     A
C862   O891    1.274   .     A
C862   C869    1.412   .     S
C862   O893    1.289   .     A
C863   C866    1.404   .     A
C864   H878    1.084   .     S
C865   H879    1.084   .     S
C865   C417    1.387   1_556 S
C866   H880    1.083   .     S
C866   C414    1.387   1_556 S
C867   H881    1.083   .     S
C868   C569    1.353   1_565 S
C868   O589    1.391   1_565 S
C870   O894    1.285   .     A
C870   O896    1.285   .     A
C871   O897    1.285   .     A
C871   O895    1.285   .     A
C872   O898    1.387   .     S
H874   O888    0.988   .     S
H875   O589    0.991   1_565 S
H883   N786    1.029   1_655 S
H884   O898    0.988   .     S
N885   Zn900   2.018   .     S
N885   H782    1.029   1_655 S
N885   N786    1.278   1_655 S
N886   Zn899   2.018   .     S
O887   Zn899   1.970   .     S
O890   H576    0.991   1_565 S
O890   C569    1.391   1_565 S
O891   Zn900   1.970   .     S
O892   Zn900   1.987   .     S
O893   Zn899   1.987   .     S
O894   Zn899   1.990   .     S
O895   Zn900   1.990   .     S
O896   Zn900   2.016   .     S
O897   Zn899   2.016   .     S
