data_str_m3_o1_o2_pcu_sym.76
_audit_creation_date              2020-01-03
_audit_creation_method            'Materials Studio'
_symmetry_space_group_name_H-M    'P1'
_symmetry_Int_Tables_number       1
_symmetry_cell_setting            triclinic
loop_
_symmetry_equiv_pos_as_xyz
  x,y,z
_cell_length_a                    31.8812
_cell_length_b                    29.5518
_cell_length_c                    29.9938
_cell_angle_alpha                 90.0056
_cell_angle_beta                  89.7882
_cell_angle_gamma                 89.9944
loop_
_atom_site_label
_atom_site_type_symbol
_atom_site_fract_x
_atom_site_fract_y
_atom_site_fract_z
_atom_site_U_iso_or_equiv
_atom_site_adp_type
_atom_site_occupancy
C1     C     0.08686   0.16667   0.25035   0.00000  Uiso   1.00
C2     C     0.31199   0.16745   0.20832   0.00000  Uiso   1.00
C3     C     0.31095   0.16586   0.29116   0.00000  Uiso   1.00
C4     C     0.02238   0.16733   0.20884   0.00000  Uiso   1.00
C5     C     0.18175   0.20442   0.04701   0.00000  Uiso   1.00
C6     C     0.18206   0.12880   0.45290   0.00000  Uiso   1.00
C7     C     0.15181   0.20443   0.45302   0.00000  Uiso   1.00
C8     C     0.15153   0.12878   0.04706   0.00000  Uiso   1.00
C9     C     0.18139   0.20456   0.09303   0.00000  Uiso   1.00
C10    C     0.18199   0.12876   0.40687   0.00000  Uiso   1.00
C11    C     0.15208   0.20457   0.40701   0.00000  Uiso   1.00
C12    C     0.24647   0.16666   0.24965   0.00000  Uiso   1.00
C13    C     0.15152   0.12874   0.09309   0.00000  Uiso   1.00
C14    C     0.16638   0.16667   0.11603   0.00000  Uiso   1.00
C15    C     0.16705   0.16668   0.38397   0.00000  Uiso   1.00
C16    C     0.16674   0.16657   0.02405   0.00000  Uiso   1.00
C17    C     0.16687   0.16659   0.47595   0.00000  Uiso   1.00
C18    C     0.29066   0.16666   0.24957   0.00000  Uiso   1.00
C19    C     0.04268   0.16668   0.25043   0.00000  Uiso   1.00
C20    C     0.04473   0.16554   0.33580   0.00000  Uiso   1.00
C21    C     0.28860   0.16838   0.16421   0.00000  Uiso   1.00
C22    C     0.28501   0.16492   0.33398   0.00000  Uiso   1.00
C23    C     0.16637   0.16667   0.16392   0.00000  Uiso   1.00
C24    C     0.04832   0.16784   0.16601   0.00000  Uiso   1.00
C25    C     0.16698   0.16667   0.33608   0.00000  Uiso   1.00
C26    C     0.19169   0.02398   0.27865   0.00000  Uiso   1.00
C27    C     0.14164   0.30936   0.22135   0.00000  Uiso   1.00
C28    C     0.14164   0.02397   0.22135   0.00000  Uiso   1.00
C29    C     0.19169   0.30936   0.27865   0.00000  Uiso   1.00
C30    C     0.02135   0.16602   0.29168   0.00000  Uiso   1.00
H31    H     0.21171   0.04213   0.30156   0.00000  Uiso   1.00
H32    H     0.19402   0.09946   0.38925   0.00000  Uiso   1.00
H33    H     0.14008   0.23389   0.38951   0.00000  Uiso   1.00
H34    H     0.13946   0.09944   0.11068   0.00000  Uiso   1.00
H35    H     0.07925   0.16598   0.33239   0.00000  Uiso   1.00
H36    H     0.03612   0.19589   0.35565   0.00000  Uiso   1.00
H37    H     0.03666   0.13440   0.35468   0.00000  Uiso   1.00
H38    H     0.25409   0.16857   0.16763   0.00000  Uiso   1.00
H39    H     0.29711   0.19942   0.14537   0.00000  Uiso   1.00
H40    H     0.29677   0.13793   0.14431   0.00000  Uiso   1.00
H41    H     0.26486   0.13428   0.33437   0.00000  Uiso   1.00
H42    H     0.12162   0.29121   0.19845   0.00000  Uiso   1.00
H43    H     0.30356   0.16432   0.36503   0.00000  Uiso   1.00
H44    H     0.26469   0.19541   0.33557   0.00000  Uiso   1.00
H45    H     0.06857   0.19841   0.16538   0.00000  Uiso   1.00
H46    H     0.06855   0.13727   0.16467   0.00000  Uiso   1.00
H47    H     0.02977   0.16820   0.13496   0.00000  Uiso   1.00
H48    H     0.12162   0.04213   0.19844   0.00000  Uiso   1.00
H49    H     0.21172   0.29121   0.30155   0.00000  Uiso   1.00
H50    H     0.19407   0.23353   0.02935   0.00000  Uiso   1.00
H51    H     0.19427   0.09965   0.47051   0.00000  Uiso   1.00
H52    H     0.13950   0.23354   0.47071   0.00000  Uiso   1.00
H53    H     0.13935   0.09963   0.02942   0.00000  Uiso   1.00
H54    H     0.19334   0.23388   0.11055   0.00000  Uiso   1.00
N55    N     0.16667   0.28573   0.25000   0.00000  Uiso   1.00
N56    N     0.16667   0.04760   0.25000   0.00000  Uiso   1.00
O57    O     0.10559   0.20487   0.25000   0.00000  Uiso   1.00
O58    O     0.22774   0.12846   0.25001   0.00000  Uiso   1.00
O59    O     0.22774   0.20487   0.25001   0.00000  Uiso   1.00
O60    O     0.10559   0.12846   0.25000   0.00000  Uiso   1.00
O61    O     0.16666   0.20489   0.18453   0.00000  Uiso   1.00
O62    O     0.16667   0.12845   0.31547   0.00000  Uiso   1.00
O63    O     0.16667   0.20489   0.31547   0.00000  Uiso   1.00
O64    O     0.16666   0.12845   0.18453   0.00000  Uiso   1.00
Zn65   Zn    0.16667   0.21771   0.25000   0.00000  Uiso   1.00
Zn66   Zn    0.16667   0.11563   0.25000   0.00000  Uiso   1.00
C67    C     0.42019   0.16667   0.25035   0.00000  Uiso   1.00
C68    C     0.64532   0.16745   0.20832   0.00000  Uiso   1.00
C69    C     0.64428   0.16586   0.29116   0.00000  Uiso   1.00
C70    C     0.35572   0.16733   0.20884   0.00000  Uiso   1.00
C71    C     0.51508   0.20442   0.04701   0.00000  Uiso   1.00
C72    C     0.51540   0.12880   0.45290   0.00000  Uiso   1.00
C73    C     0.48514   0.20443   0.45302   0.00000  Uiso   1.00
C74    C     0.48486   0.12878   0.04706   0.00000  Uiso   1.00
C75    C     0.51472   0.20456   0.09303   0.00000  Uiso   1.00
C76    C     0.51532   0.12876   0.40687   0.00000  Uiso   1.00
C77    C     0.48541   0.20457   0.40701   0.00000  Uiso   1.00
C78    C     0.57981   0.16666   0.24965   0.00000  Uiso   1.00
C79    C     0.48485   0.12874   0.09309   0.00000  Uiso   1.00
C80    C     0.49971   0.16667   0.11603   0.00000  Uiso   1.00
C81    C     0.50039   0.16668   0.38397   0.00000  Uiso   1.00
C82    C     0.50007   0.16657   0.02405   0.00000  Uiso   1.00
C83    C     0.50020   0.16659   0.47595   0.00000  Uiso   1.00
C84    C     0.62399   0.16666   0.24957   0.00000  Uiso   1.00
C85    C     0.37601   0.16668   0.25043   0.00000  Uiso   1.00
C86    C     0.37807   0.16554   0.33580   0.00000  Uiso   1.00
C87    C     0.62193   0.16838   0.16421   0.00000  Uiso   1.00
C88    C     0.61835   0.16492   0.33398   0.00000  Uiso   1.00
C89    C     0.49970   0.16667   0.16392   0.00000  Uiso   1.00
C90    C     0.38166   0.16784   0.16601   0.00000  Uiso   1.00
C91    C     0.50031   0.16667   0.33608   0.00000  Uiso   1.00
C92    C     0.52503   0.02398   0.27865   0.00000  Uiso   1.00
C93    C     0.47497   0.30936   0.22135   0.00000  Uiso   1.00
C94    C     0.47497   0.02397   0.22135   0.00000  Uiso   1.00
C95    C     0.52503   0.30936   0.27865   0.00000  Uiso   1.00
C96    C     0.35468   0.16602   0.29168   0.00000  Uiso   1.00
H97    H     0.54504   0.04213   0.30156   0.00000  Uiso   1.00
H98    H     0.52736   0.09946   0.38925   0.00000  Uiso   1.00
H99    H     0.47341   0.23389   0.38951   0.00000  Uiso   1.00
H100   H     0.47280   0.09944   0.11068   0.00000  Uiso   1.00
H101   H     0.41258   0.16598   0.33239   0.00000  Uiso   1.00
H102   H     0.36946   0.19589   0.35565   0.00000  Uiso   1.00
H103   H     0.36999   0.13440   0.35468   0.00000  Uiso   1.00
H104   H     0.58742   0.16857   0.16763   0.00000  Uiso   1.00
H105   H     0.63045   0.19942   0.14537   0.00000  Uiso   1.00
H106   H     0.63011   0.13793   0.14431   0.00000  Uiso   1.00
H107   H     0.59819   0.13428   0.33437   0.00000  Uiso   1.00
H108   H     0.45495   0.29121   0.19845   0.00000  Uiso   1.00
H109   H     0.63689   0.16432   0.36503   0.00000  Uiso   1.00
H110   H     0.59803   0.19541   0.33557   0.00000  Uiso   1.00
H111   H     0.40190   0.19841   0.16538   0.00000  Uiso   1.00
H112   H     0.40188   0.13727   0.16467   0.00000  Uiso   1.00
H113   H     0.36311   0.16820   0.13496   0.00000  Uiso   1.00
H114   H     0.45496   0.04213   0.19844   0.00000  Uiso   1.00
H115   H     0.54505   0.29121   0.30155   0.00000  Uiso   1.00
H116   H     0.52740   0.23353   0.02935   0.00000  Uiso   1.00
H117   H     0.52761   0.09965   0.47051   0.00000  Uiso   1.00
H118   H     0.47283   0.23354   0.47071   0.00000  Uiso   1.00
H119   H     0.47269   0.09963   0.02942   0.00000  Uiso   1.00
H120   H     0.52668   0.23388   0.11055   0.00000  Uiso   1.00
N121   N     0.50000   0.28573   0.25000   0.00000  Uiso   1.00
N122   N     0.50000   0.04760   0.25000   0.00000  Uiso   1.00
O123   O     0.43892   0.20487   0.25000   0.00000  Uiso   1.00
O124   O     0.56108   0.12846   0.25001   0.00000  Uiso   1.00
O125   O     0.56108   0.20487   0.25001   0.00000  Uiso   1.00
O126   O     0.43892   0.12846   0.25000   0.00000  Uiso   1.00
O127   O     0.50000   0.20489   0.18453   0.00000  Uiso   1.00
O128   O     0.50000   0.12845   0.31547   0.00000  Uiso   1.00
O129   O     0.50000   0.20489   0.31547   0.00000  Uiso   1.00
O130   O     0.50000   0.12845   0.18453   0.00000  Uiso   1.00
Zn131  Zn    0.50000   0.21771   0.25000   0.00000  Uiso   1.00
Zn132  Zn    0.50000   0.11563   0.25000   0.00000  Uiso   1.00
C133   C     0.75353   0.16667   0.25035   0.00000  Uiso   1.00
C134   C     0.97865   0.16745   0.20832   0.00000  Uiso   1.00
C135   C     0.97762   0.16586   0.29116   0.00000  Uiso   1.00
C136   C     0.68905   0.16733   0.20884   0.00000  Uiso   1.00
C137   C     0.84842   0.20442   0.04701   0.00000  Uiso   1.00
C138   C     0.84873   0.12880   0.45290   0.00000  Uiso   1.00
C139   C     0.81847   0.20443   0.45302   0.00000  Uiso   1.00
C140   C     0.81820   0.12878   0.04706   0.00000  Uiso   1.00
C141   C     0.84805   0.20456   0.09303   0.00000  Uiso   1.00
C142   C     0.84866   0.12876   0.40687   0.00000  Uiso   1.00
C143   C     0.81874   0.20457   0.40701   0.00000  Uiso   1.00
C144   C     0.91314   0.16666   0.24965   0.00000  Uiso   1.00
C145   C     0.81818   0.12874   0.09309   0.00000  Uiso   1.00
C146   C     0.83304   0.16667   0.11603   0.00000  Uiso   1.00
C147   C     0.83372   0.16668   0.38397   0.00000  Uiso   1.00
C148   C     0.83340   0.16657   0.02405   0.00000  Uiso   1.00
C149   C     0.83354   0.16659   0.47595   0.00000  Uiso   1.00
C150   C     0.95732   0.16666   0.24957   0.00000  Uiso   1.00
C151   C     0.70934   0.16668   0.25043   0.00000  Uiso   1.00
C152   C     0.71140   0.16554   0.33580   0.00000  Uiso   1.00
C153   C     0.95527   0.16838   0.16421   0.00000  Uiso   1.00
C154   C     0.95168   0.16492   0.33398   0.00000  Uiso   1.00
C155   C     0.83303   0.16667   0.16392   0.00000  Uiso   1.00
C156   C     0.71499   0.16784   0.16601   0.00000  Uiso   1.00
C157   C     0.83365   0.16667   0.33608   0.00000  Uiso   1.00
C158   C     0.85836   0.02398   0.27865   0.00000  Uiso   1.00
C159   C     0.80831   0.30936   0.22135   0.00000  Uiso   1.00
C160   C     0.80831   0.02397   0.22135   0.00000  Uiso   1.00
C161   C     0.85836   0.30936   0.27865   0.00000  Uiso   1.00
C162   C     0.68801   0.16602   0.29168   0.00000  Uiso   1.00
H163   H     0.87838   0.04213   0.30156   0.00000  Uiso   1.00
H164   H     0.86069   0.09946   0.38925   0.00000  Uiso   1.00
H165   H     0.80674   0.23389   0.38951   0.00000  Uiso   1.00
H166   H     0.80613   0.09944   0.11068   0.00000  Uiso   1.00
H167   H     0.74591   0.16598   0.33239   0.00000  Uiso   1.00
H168   H     0.70279   0.19589   0.35565   0.00000  Uiso   1.00
H169   H     0.70332   0.13440   0.35468   0.00000  Uiso   1.00
H170   H     0.92075   0.16857   0.16763   0.00000  Uiso   1.00
H171   H     0.96378   0.19942   0.14537   0.00000  Uiso   1.00
H172   H     0.96344   0.13793   0.14431   0.00000  Uiso   1.00
H173   H     0.93152   0.13428   0.33437   0.00000  Uiso   1.00
H174   H     0.78828   0.29121   0.19845   0.00000  Uiso   1.00
H175   H     0.97023   0.16432   0.36503   0.00000  Uiso   1.00
H176   H     0.93136   0.19541   0.33557   0.00000  Uiso   1.00
H177   H     0.73524   0.19841   0.16538   0.00000  Uiso   1.00
H178   H     0.73522   0.13727   0.16467   0.00000  Uiso   1.00
H179   H     0.69644   0.16820   0.13496   0.00000  Uiso   1.00
H180   H     0.78829   0.04213   0.19844   0.00000  Uiso   1.00
H181   H     0.87838   0.29121   0.30155   0.00000  Uiso   1.00
H182   H     0.86073   0.23353   0.02935   0.00000  Uiso   1.00
H183   H     0.86094   0.09965   0.47051   0.00000  Uiso   1.00
H184   H     0.80616   0.23354   0.47071   0.00000  Uiso   1.00
H185   H     0.80602   0.09963   0.02942   0.00000  Uiso   1.00
H186   H     0.86001   0.23388   0.11055   0.00000  Uiso   1.00
N187   N     0.83333   0.28573   0.25000   0.00000  Uiso   1.00
N188   N     0.83333   0.04760   0.25000   0.00000  Uiso   1.00
O189   O     0.77226   0.20487   0.25000   0.00000  Uiso   1.00
O190   O     0.89441   0.12846   0.25001   0.00000  Uiso   1.00
O191   O     0.89441   0.20487   0.25001   0.00000  Uiso   1.00
O192   O     0.77226   0.12846   0.25000   0.00000  Uiso   1.00
O193   O     0.83333   0.20489   0.18453   0.00000  Uiso   1.00
O194   O     0.83334   0.12845   0.31547   0.00000  Uiso   1.00
O195   O     0.83334   0.20489   0.31547   0.00000  Uiso   1.00
O196   O     0.83333   0.12845   0.18453   0.00000  Uiso   1.00
Zn197  Zn    0.83333   0.21771   0.25000   0.00000  Uiso   1.00
Zn198  Zn    0.83333   0.11563   0.25000   0.00000  Uiso   1.00
C199   C     0.08686   0.50000   0.25035   0.00000  Uiso   1.00
C200   C     0.31199   0.50078   0.20832   0.00000  Uiso   1.00
C201   C     0.31095   0.49919   0.29116   0.00000  Uiso   1.00
C202   C     0.02238   0.50066   0.20884   0.00000  Uiso   1.00
C203   C     0.18175   0.53775   0.04701   0.00000  Uiso   1.00
C204   C     0.18206   0.46213   0.45290   0.00000  Uiso   1.00
C205   C     0.15181   0.53776   0.45302   0.00000  Uiso   1.00
C206   C     0.15153   0.46211   0.04706   0.00000  Uiso   1.00
C207   C     0.18139   0.53789   0.09303   0.00000  Uiso   1.00
C208   C     0.18199   0.46209   0.40687   0.00000  Uiso   1.00
C209   C     0.15208   0.53790   0.40701   0.00000  Uiso   1.00
C210   C     0.24647   0.50000   0.24965   0.00000  Uiso   1.00
C211   C     0.15152   0.46207   0.09309   0.00000  Uiso   1.00
C212   C     0.16638   0.50000   0.11603   0.00000  Uiso   1.00
C213   C     0.16705   0.50001   0.38397   0.00000  Uiso   1.00
C214   C     0.16674   0.49991   0.02405   0.00000  Uiso   1.00
C215   C     0.16687   0.49992   0.47595   0.00000  Uiso   1.00
C216   C     0.29066   0.49999   0.24957   0.00000  Uiso   1.00
C217   C     0.04268   0.50001   0.25043   0.00000  Uiso   1.00
C218   C     0.04473   0.49887   0.33580   0.00000  Uiso   1.00
C219   C     0.28860   0.50172   0.16421   0.00000  Uiso   1.00
C220   C     0.28501   0.49826   0.33398   0.00000  Uiso   1.00
C221   C     0.16637   0.50000   0.16392   0.00000  Uiso   1.00
C222   C     0.04832   0.50117   0.16601   0.00000  Uiso   1.00
C223   C     0.16698   0.50000   0.33608   0.00000  Uiso   1.00
C224   C     0.19169   0.35731   0.27865   0.00000  Uiso   1.00
C225   C     0.14164   0.64269   0.22135   0.00000  Uiso   1.00
C226   C     0.14164   0.35731   0.22135   0.00000  Uiso   1.00
C227   C     0.19169   0.64270   0.27865   0.00000  Uiso   1.00
C228   C     0.02135   0.49935   0.29168   0.00000  Uiso   1.00
H229   H     0.21171   0.37546   0.30156   0.00000  Uiso   1.00
H230   H     0.19402   0.43280   0.38925   0.00000  Uiso   1.00
H231   H     0.14008   0.56722   0.38951   0.00000  Uiso   1.00
H232   H     0.13946   0.43277   0.11068   0.00000  Uiso   1.00
H233   H     0.07925   0.49931   0.33239   0.00000  Uiso   1.00
H234   H     0.03612   0.52922   0.35565   0.00000  Uiso   1.00
H235   H     0.03666   0.46773   0.35468   0.00000  Uiso   1.00
H236   H     0.25409   0.50190   0.16763   0.00000  Uiso   1.00
H237   H     0.29711   0.53275   0.14537   0.00000  Uiso   1.00
H238   H     0.29677   0.47126   0.14431   0.00000  Uiso   1.00
H239   H     0.26486   0.46761   0.33437   0.00000  Uiso   1.00
H240   H     0.12162   0.62454   0.19845   0.00000  Uiso   1.00
H241   H     0.30356   0.49765   0.36503   0.00000  Uiso   1.00
H242   H     0.26469   0.52874   0.33557   0.00000  Uiso   1.00
H243   H     0.06857   0.53174   0.16538   0.00000  Uiso   1.00
H244   H     0.06855   0.47060   0.16467   0.00000  Uiso   1.00
H245   H     0.02977   0.50153   0.13496   0.00000  Uiso   1.00
H246   H     0.12162   0.37546   0.19844   0.00000  Uiso   1.00
H247   H     0.21172   0.62454   0.30155   0.00000  Uiso   1.00
H248   H     0.19407   0.56687   0.02935   0.00000  Uiso   1.00
H249   H     0.19427   0.43299   0.47051   0.00000  Uiso   1.00
H250   H     0.13950   0.56687   0.47071   0.00000  Uiso   1.00
H251   H     0.13935   0.43296   0.02942   0.00000  Uiso   1.00
H252   H     0.19334   0.56721   0.11055   0.00000  Uiso   1.00
N253   N     0.16667   0.61907   0.25000   0.00000  Uiso   1.00
N254   N     0.16667   0.38093   0.25000   0.00000  Uiso   1.00
O255   O     0.10559   0.53821   0.25000   0.00000  Uiso   1.00
O256   O     0.22774   0.46179   0.25001   0.00000  Uiso   1.00
O257   O     0.22774   0.53821   0.25001   0.00000  Uiso   1.00
O258   O     0.10559   0.46179   0.25000   0.00000  Uiso   1.00
O259   O     0.16666   0.53822   0.18453   0.00000  Uiso   1.00
O260   O     0.16667   0.46178   0.31547   0.00000  Uiso   1.00
O261   O     0.16667   0.53822   0.31547   0.00000  Uiso   1.00
O262   O     0.16666   0.46178   0.18453   0.00000  Uiso   1.00
Zn263  Zn    0.16667   0.55104   0.25000   0.00000  Uiso   1.00
Zn264  Zn    0.16667   0.44896   0.25000   0.00000  Uiso   1.00
C265   C     0.42019   0.50000   0.25035   0.00000  Uiso   1.00
C266   C     0.64532   0.50078   0.20832   0.00000  Uiso   1.00
C267   C     0.64428   0.49919   0.29116   0.00000  Uiso   1.00
C268   C     0.35572   0.50066   0.20884   0.00000  Uiso   1.00
C269   C     0.51508   0.53775   0.04701   0.00000  Uiso   1.00
C270   C     0.51540   0.46213   0.45290   0.00000  Uiso   1.00
C271   C     0.48514   0.53776   0.45302   0.00000  Uiso   1.00
C272   C     0.48486   0.46211   0.04706   0.00000  Uiso   1.00
C273   C     0.51472   0.53789   0.09303   0.00000  Uiso   1.00
C274   C     0.51532   0.46209   0.40687   0.00000  Uiso   1.00
C275   C     0.48541   0.53790   0.40701   0.00000  Uiso   1.00
C276   C     0.57981   0.50000   0.24965   0.00000  Uiso   1.00
C277   C     0.48485   0.46207   0.09309   0.00000  Uiso   1.00
C278   C     0.49971   0.50000   0.11603   0.00000  Uiso   1.00
C279   C     0.50039   0.50001   0.38397   0.00000  Uiso   1.00
C280   C     0.50007   0.49991   0.02405   0.00000  Uiso   1.00
C281   C     0.50020   0.49992   0.47595   0.00000  Uiso   1.00
C282   C     0.62399   0.49999   0.24957   0.00000  Uiso   1.00
C283   C     0.37601   0.50001   0.25043   0.00000  Uiso   1.00
C284   C     0.37807   0.49887   0.33580   0.00000  Uiso   1.00
C285   C     0.62193   0.50172   0.16421   0.00000  Uiso   1.00
C286   C     0.61835   0.49826   0.33398   0.00000  Uiso   1.00
C287   C     0.49970   0.50000   0.16392   0.00000  Uiso   1.00
C288   C     0.38166   0.50117   0.16601   0.00000  Uiso   1.00
C289   C     0.50031   0.50000   0.33608   0.00000  Uiso   1.00
C290   C     0.52503   0.35731   0.27865   0.00000  Uiso   1.00
C291   C     0.47497   0.64269   0.22135   0.00000  Uiso   1.00
C292   C     0.47497   0.35731   0.22135   0.00000  Uiso   1.00
C293   C     0.52503   0.64270   0.27865   0.00000  Uiso   1.00
C294   C     0.35468   0.49935   0.29168   0.00000  Uiso   1.00
H295   H     0.54504   0.37546   0.30156   0.00000  Uiso   1.00
H296   H     0.52736   0.43280   0.38925   0.00000  Uiso   1.00
H297   H     0.47341   0.56722   0.38951   0.00000  Uiso   1.00
H298   H     0.47280   0.43277   0.11068   0.00000  Uiso   1.00
H299   H     0.41258   0.49931   0.33239   0.00000  Uiso   1.00
H300   H     0.36946   0.52922   0.35565   0.00000  Uiso   1.00
H301   H     0.36999   0.46773   0.35468   0.00000  Uiso   1.00
H302   H     0.58742   0.50190   0.16763   0.00000  Uiso   1.00
H303   H     0.63045   0.53275   0.14537   0.00000  Uiso   1.00
H304   H     0.63011   0.47126   0.14431   0.00000  Uiso   1.00
H305   H     0.59819   0.46761   0.33437   0.00000  Uiso   1.00
H306   H     0.45495   0.62454   0.19845   0.00000  Uiso   1.00
H307   H     0.63689   0.49765   0.36503   0.00000  Uiso   1.00
H308   H     0.59803   0.52874   0.33557   0.00000  Uiso   1.00
H309   H     0.40190   0.53174   0.16538   0.00000  Uiso   1.00
H310   H     0.40188   0.47060   0.16467   0.00000  Uiso   1.00
H311   H     0.36311   0.50153   0.13496   0.00000  Uiso   1.00
H312   H     0.45496   0.37546   0.19844   0.00000  Uiso   1.00
H313   H     0.54505   0.62454   0.30155   0.00000  Uiso   1.00
H314   H     0.52740   0.56687   0.02935   0.00000  Uiso   1.00
H315   H     0.52761   0.43299   0.47051   0.00000  Uiso   1.00
H316   H     0.47283   0.56687   0.47071   0.00000  Uiso   1.00
H317   H     0.47269   0.43296   0.02942   0.00000  Uiso   1.00
H318   H     0.52668   0.56721   0.11055   0.00000  Uiso   1.00
N319   N     0.50000   0.61907   0.25000   0.00000  Uiso   1.00
N320   N     0.50000   0.38093   0.25000   0.00000  Uiso   1.00
O321   O     0.43892   0.53821   0.25000   0.00000  Uiso   1.00
O322   O     0.56108   0.46179   0.25001   0.00000  Uiso   1.00
O323   O     0.56108   0.53821   0.25001   0.00000  Uiso   1.00
O324   O     0.43892   0.46179   0.25000   0.00000  Uiso   1.00
O325   O     0.50000   0.53822   0.18453   0.00000  Uiso   1.00
O326   O     0.50000   0.46178   0.31547   0.00000  Uiso   1.00
O327   O     0.50000   0.53822   0.31547   0.00000  Uiso   1.00
O328   O     0.50000   0.46178   0.18453   0.00000  Uiso   1.00
Zn329  Zn    0.50000   0.55104   0.25000   0.00000  Uiso   1.00
Zn330  Zn    0.50000   0.44896   0.25000   0.00000  Uiso   1.00
C331   C     0.75353   0.50000   0.25035   0.00000  Uiso   1.00
C332   C     0.97865   0.50078   0.20832   0.00000  Uiso   1.00
C333   C     0.97762   0.49919   0.29116   0.00000  Uiso   1.00
C334   C     0.68905   0.50066   0.20884   0.00000  Uiso   1.00
C335   C     0.84842   0.53775   0.04701   0.00000  Uiso   1.00
C336   C     0.84873   0.46213   0.45290   0.00000  Uiso   1.00
C337   C     0.81847   0.53776   0.45302   0.00000  Uiso   1.00
C338   C     0.81820   0.46211   0.04706   0.00000  Uiso   1.00
C339   C     0.84805   0.53789   0.09303   0.00000  Uiso   1.00
C340   C     0.84866   0.46209   0.40687   0.00000  Uiso   1.00
C341   C     0.81874   0.53790   0.40701   0.00000  Uiso   1.00
C342   C     0.91314   0.50000   0.24965   0.00000  Uiso   1.00
C343   C     0.81818   0.46207   0.09309   0.00000  Uiso   1.00
C344   C     0.83304   0.50000   0.11603   0.00000  Uiso   1.00
C345   C     0.83372   0.50001   0.38397   0.00000  Uiso   1.00
C346   C     0.83340   0.49991   0.02405   0.00000  Uiso   1.00
C347   C     0.83354   0.49992   0.47595   0.00000  Uiso   1.00
C348   C     0.95732   0.49999   0.24957   0.00000  Uiso   1.00
C349   C     0.70934   0.50001   0.25043   0.00000  Uiso   1.00
C350   C     0.71140   0.49887   0.33580   0.00000  Uiso   1.00
C351   C     0.95527   0.50172   0.16421   0.00000  Uiso   1.00
C352   C     0.95168   0.49826   0.33398   0.00000  Uiso   1.00
C353   C     0.83303   0.50000   0.16392   0.00000  Uiso   1.00
C354   C     0.71499   0.50117   0.16601   0.00000  Uiso   1.00
C355   C     0.83365   0.50000   0.33608   0.00000  Uiso   1.00
C356   C     0.85836   0.35731   0.27865   0.00000  Uiso   1.00
C357   C     0.80831   0.64269   0.22135   0.00000  Uiso   1.00
C358   C     0.80831   0.35731   0.22135   0.00000  Uiso   1.00
C359   C     0.85836   0.64270   0.27865   0.00000  Uiso   1.00
C360   C     0.68801   0.49935   0.29168   0.00000  Uiso   1.00
H361   H     0.87838   0.37546   0.30156   0.00000  Uiso   1.00
H362   H     0.86069   0.43280   0.38925   0.00000  Uiso   1.00
H363   H     0.80674   0.56722   0.38951   0.00000  Uiso   1.00
H364   H     0.80613   0.43277   0.11068   0.00000  Uiso   1.00
H365   H     0.74591   0.49931   0.33239   0.00000  Uiso   1.00
H366   H     0.70279   0.52922   0.35565   0.00000  Uiso   1.00
H367   H     0.70332   0.46773   0.35468   0.00000  Uiso   1.00
H368   H     0.92075   0.50190   0.16763   0.00000  Uiso   1.00
H369   H     0.96378   0.53275   0.14537   0.00000  Uiso   1.00
H370   H     0.96344   0.47126   0.14431   0.00000  Uiso   1.00
H371   H     0.93152   0.46761   0.33437   0.00000  Uiso   1.00
H372   H     0.78828   0.62454   0.19845   0.00000  Uiso   1.00
H373   H     0.97023   0.49765   0.36503   0.00000  Uiso   1.00
H374   H     0.93136   0.52874   0.33557   0.00000  Uiso   1.00
H375   H     0.73524   0.53174   0.16538   0.00000  Uiso   1.00
H376   H     0.73522   0.47060   0.16467   0.00000  Uiso   1.00
H377   H     0.69644   0.50153   0.13496   0.00000  Uiso   1.00
H378   H     0.78829   0.37546   0.19844   0.00000  Uiso   1.00
H379   H     0.87838   0.62454   0.30155   0.00000  Uiso   1.00
H380   H     0.86073   0.56687   0.02935   0.00000  Uiso   1.00
H381   H     0.86094   0.43299   0.47051   0.00000  Uiso   1.00
H382   H     0.80616   0.56687   0.47071   0.00000  Uiso   1.00
H383   H     0.80602   0.43296   0.02942   0.00000  Uiso   1.00
H384   H     0.86001   0.56721   0.11055   0.00000  Uiso   1.00
N385   N     0.83333   0.61907   0.25000   0.00000  Uiso   1.00
N386   N     0.83333   0.38093   0.25000   0.00000  Uiso   1.00
O387   O     0.77226   0.53821   0.25000   0.00000  Uiso   1.00
O388   O     0.89441   0.46179   0.25001   0.00000  Uiso   1.00
O389   O     0.89441   0.53821   0.25001   0.00000  Uiso   1.00
O390   O     0.77226   0.46179   0.25000   0.00000  Uiso   1.00
O391   O     0.83333   0.53822   0.18453   0.00000  Uiso   1.00
O392   O     0.83334   0.46178   0.31547   0.00000  Uiso   1.00
O393   O     0.83334   0.53822   0.31547   0.00000  Uiso   1.00
O394   O     0.83333   0.46178   0.18453   0.00000  Uiso   1.00
Zn395  Zn    0.83333   0.55104   0.25000   0.00000  Uiso   1.00
Zn396  Zn    0.83333   0.44896   0.25000   0.00000  Uiso   1.00
C397   C     0.08686   0.83334   0.25035   0.00000  Uiso   1.00
C398   C     0.31199   0.83412   0.20832   0.00000  Uiso   1.00
C399   C     0.31095   0.83253   0.29116   0.00000  Uiso   1.00
C400   C     0.02238   0.83400   0.20884   0.00000  Uiso   1.00
C401   C     0.18175   0.87108   0.04701   0.00000  Uiso   1.00
C402   C     0.18206   0.79547   0.45290   0.00000  Uiso   1.00
C403   C     0.15181   0.87110   0.45302   0.00000  Uiso   1.00
C404   C     0.15153   0.79544   0.04706   0.00000  Uiso   1.00
C405   C     0.18139   0.87122   0.09303   0.00000  Uiso   1.00
C406   C     0.18199   0.79543   0.40687   0.00000  Uiso   1.00
C407   C     0.15208   0.87123   0.40701   0.00000  Uiso   1.00
C408   C     0.24647   0.83333   0.24965   0.00000  Uiso   1.00
C409   C     0.15152   0.79540   0.09309   0.00000  Uiso   1.00
C410   C     0.16638   0.83333   0.11603   0.00000  Uiso   1.00
C411   C     0.16705   0.83334   0.38397   0.00000  Uiso   1.00
C412   C     0.16674   0.83324   0.02405   0.00000  Uiso   1.00
C413   C     0.16687   0.83326   0.47595   0.00000  Uiso   1.00
C414   C     0.29066   0.83333   0.24957   0.00000  Uiso   1.00
C415   C     0.04268   0.83335   0.25043   0.00000  Uiso   1.00
C416   C     0.04473   0.83221   0.33580   0.00000  Uiso   1.00
C417   C     0.28860   0.83505   0.16421   0.00000  Uiso   1.00
C418   C     0.28501   0.83159   0.33398   0.00000  Uiso   1.00
C419   C     0.16637   0.83333   0.16392   0.00000  Uiso   1.00
C420   C     0.04832   0.83450   0.16601   0.00000  Uiso   1.00
C421   C     0.16698   0.83334   0.33608   0.00000  Uiso   1.00
C422   C     0.19169   0.69064   0.27865   0.00000  Uiso   1.00
C423   C     0.14164   0.97603   0.22135   0.00000  Uiso   1.00
C424   C     0.14164   0.69064   0.22135   0.00000  Uiso   1.00
C425   C     0.19169   0.97603   0.27865   0.00000  Uiso   1.00
C426   C     0.02135   0.83268   0.29168   0.00000  Uiso   1.00
H427   H     0.21171   0.70880   0.30156   0.00000  Uiso   1.00
H428   H     0.19402   0.76613   0.38925   0.00000  Uiso   1.00
H429   H     0.14008   0.90055   0.38951   0.00000  Uiso   1.00
H430   H     0.13946   0.76611   0.11068   0.00000  Uiso   1.00
H431   H     0.07925   0.83265   0.33239   0.00000  Uiso   1.00
H432   H     0.03612   0.86256   0.35565   0.00000  Uiso   1.00
H433   H     0.03666   0.80107   0.35468   0.00000  Uiso   1.00
H434   H     0.25409   0.83523   0.16763   0.00000  Uiso   1.00
H435   H     0.29711   0.86608   0.14537   0.00000  Uiso   1.00
H436   H     0.29677   0.80459   0.14431   0.00000  Uiso   1.00
H437   H     0.26486   0.80094   0.33437   0.00000  Uiso   1.00
H438   H     0.12162   0.95787   0.19845   0.00000  Uiso   1.00
H439   H     0.30356   0.83099   0.36503   0.00000  Uiso   1.00
H440   H     0.26469   0.86207   0.33557   0.00000  Uiso   1.00
H441   H     0.06857   0.86507   0.16538   0.00000  Uiso   1.00
H442   H     0.06855   0.80393   0.16467   0.00000  Uiso   1.00
H443   H     0.02977   0.83487   0.13496   0.00000  Uiso   1.00
H444   H     0.12162   0.70879   0.19844   0.00000  Uiso   1.00
H445   H     0.21172   0.95788   0.30155   0.00000  Uiso   1.00
H446   H     0.19407   0.90020   0.02935   0.00000  Uiso   1.00
H447   H     0.19427   0.76632   0.47051   0.00000  Uiso   1.00
H448   H     0.13950   0.90021   0.47071   0.00000  Uiso   1.00
H449   H     0.13935   0.76629   0.02942   0.00000  Uiso   1.00
H450   H     0.19334   0.90055   0.11055   0.00000  Uiso   1.00
N451   N     0.16667   0.95240   0.25000   0.00000  Uiso   1.00
N452   N     0.16667   0.71427   0.25000   0.00000  Uiso   1.00
O453   O     0.10559   0.87154   0.25000   0.00000  Uiso   1.00
O454   O     0.22774   0.79513   0.25001   0.00000  Uiso   1.00
O455   O     0.22774   0.87154   0.25001   0.00000  Uiso   1.00
O456   O     0.10559   0.79513   0.25000   0.00000  Uiso   1.00
O457   O     0.16666   0.87155   0.18453   0.00000  Uiso   1.00
O458   O     0.16667   0.79511   0.31547   0.00000  Uiso   1.00
O459   O     0.16667   0.87155   0.31547   0.00000  Uiso   1.00
O460   O     0.16666   0.79511   0.18453   0.00000  Uiso   1.00
Zn461  Zn    0.16667   0.88437   0.25000   0.00000  Uiso   1.00
Zn462  Zn    0.16667   0.78229   0.25000   0.00000  Uiso   1.00
C463   C     0.42019   0.83334   0.25035   0.00000  Uiso   1.00
C464   C     0.64532   0.83412   0.20832   0.00000  Uiso   1.00
C465   C     0.64428   0.83253   0.29116   0.00000  Uiso   1.00
C466   C     0.35572   0.83400   0.20884   0.00000  Uiso   1.00
C467   C     0.51508   0.87108   0.04701   0.00000  Uiso   1.00
C468   C     0.51540   0.79547   0.45290   0.00000  Uiso   1.00
C469   C     0.48514   0.87110   0.45302   0.00000  Uiso   1.00
C470   C     0.48486   0.79544   0.04706   0.00000  Uiso   1.00
C471   C     0.51472   0.87122   0.09303   0.00000  Uiso   1.00
C472   C     0.51532   0.79543   0.40687   0.00000  Uiso   1.00
C473   C     0.48541   0.87123   0.40701   0.00000  Uiso   1.00
C474   C     0.57981   0.83333   0.24965   0.00000  Uiso   1.00
C475   C     0.48485   0.79540   0.09309   0.00000  Uiso   1.00
C476   C     0.49971   0.83333   0.11603   0.00000  Uiso   1.00
C477   C     0.50039   0.83334   0.38397   0.00000  Uiso   1.00
C478   C     0.50007   0.83324   0.02405   0.00000  Uiso   1.00
C479   C     0.50020   0.83326   0.47595   0.00000  Uiso   1.00
C480   C     0.62399   0.83333   0.24957   0.00000  Uiso   1.00
C481   C     0.37601   0.83335   0.25043   0.00000  Uiso   1.00
C482   C     0.37807   0.83221   0.33580   0.00000  Uiso   1.00
C483   C     0.62193   0.83505   0.16421   0.00000  Uiso   1.00
C484   C     0.61835   0.83159   0.33398   0.00000  Uiso   1.00
C485   C     0.49970   0.83333   0.16392   0.00000  Uiso   1.00
C486   C     0.38166   0.83450   0.16601   0.00000  Uiso   1.00
C487   C     0.50031   0.83334   0.33608   0.00000  Uiso   1.00
C488   C     0.52503   0.69064   0.27865   0.00000  Uiso   1.00
C489   C     0.47497   0.97603   0.22135   0.00000  Uiso   1.00
C490   C     0.47497   0.69064   0.22135   0.00000  Uiso   1.00
C491   C     0.52503   0.97603   0.27865   0.00000  Uiso   1.00
C492   C     0.35468   0.83268   0.29168   0.00000  Uiso   1.00
H493   H     0.54504   0.70880   0.30156   0.00000  Uiso   1.00
H494   H     0.52736   0.76613   0.38925   0.00000  Uiso   1.00
H495   H     0.47341   0.90055   0.38951   0.00000  Uiso   1.00
H496   H     0.47280   0.76611   0.11068   0.00000  Uiso   1.00
H497   H     0.41258   0.83265   0.33239   0.00000  Uiso   1.00
H498   H     0.36946   0.86256   0.35565   0.00000  Uiso   1.00
H499   H     0.36999   0.80107   0.35468   0.00000  Uiso   1.00
H500   H     0.58742   0.83523   0.16763   0.00000  Uiso   1.00
H501   H     0.63045   0.86608   0.14537   0.00000  Uiso   1.00
H502   H     0.63011   0.80459   0.14431   0.00000  Uiso   1.00
H503   H     0.59819   0.80094   0.33437   0.00000  Uiso   1.00
H504   H     0.45495   0.95787   0.19845   0.00000  Uiso   1.00
H505   H     0.63689   0.83099   0.36503   0.00000  Uiso   1.00
H506   H     0.59803   0.86207   0.33557   0.00000  Uiso   1.00
H507   H     0.40190   0.86507   0.16538   0.00000  Uiso   1.00
H508   H     0.40188   0.80393   0.16467   0.00000  Uiso   1.00
H509   H     0.36311   0.83487   0.13496   0.00000  Uiso   1.00
H510   H     0.45496   0.70879   0.19844   0.00000  Uiso   1.00
H511   H     0.54505   0.95788   0.30155   0.00000  Uiso   1.00
H512   H     0.52740   0.90020   0.02935   0.00000  Uiso   1.00
H513   H     0.52761   0.76632   0.47051   0.00000  Uiso   1.00
H514   H     0.47283   0.90021   0.47071   0.00000  Uiso   1.00
H515   H     0.47269   0.76629   0.02942   0.00000  Uiso   1.00
H516   H     0.52668   0.90055   0.11055   0.00000  Uiso   1.00
N517   N     0.50000   0.95240   0.25000   0.00000  Uiso   1.00
N518   N     0.50000   0.71427   0.25000   0.00000  Uiso   1.00
O519   O     0.43892   0.87154   0.25000   0.00000  Uiso   1.00
O520   O     0.56108   0.79513   0.25001   0.00000  Uiso   1.00
O521   O     0.56108   0.87154   0.25001   0.00000  Uiso   1.00
O522   O     0.43892   0.79513   0.25000   0.00000  Uiso   1.00
O523   O     0.50000   0.87155   0.18453   0.00000  Uiso   1.00
O524   O     0.50000   0.79511   0.31547   0.00000  Uiso   1.00
O525   O     0.50000   0.87155   0.31547   0.00000  Uiso   1.00
O526   O     0.50000   0.79511   0.18453   0.00000  Uiso   1.00
Zn527  Zn    0.50000   0.88437   0.25000   0.00000  Uiso   1.00
Zn528  Zn    0.50000   0.78229   0.25000   0.00000  Uiso   1.00
C529   C     0.75353   0.83334   0.25035   0.00000  Uiso   1.00
C530   C     0.97865   0.83412   0.20832   0.00000  Uiso   1.00
C531   C     0.97762   0.83253   0.29116   0.00000  Uiso   1.00
C532   C     0.68905   0.83400   0.20884   0.00000  Uiso   1.00
C533   C     0.84842   0.87108   0.04701   0.00000  Uiso   1.00
C534   C     0.84873   0.79547   0.45290   0.00000  Uiso   1.00
C535   C     0.81847   0.87110   0.45302   0.00000  Uiso   1.00
C536   C     0.81820   0.79544   0.04706   0.00000  Uiso   1.00
C537   C     0.84805   0.87122   0.09303   0.00000  Uiso   1.00
C538   C     0.84866   0.79543   0.40687   0.00000  Uiso   1.00
C539   C     0.81874   0.87123   0.40701   0.00000  Uiso   1.00
C540   C     0.91314   0.83333   0.24965   0.00000  Uiso   1.00
C541   C     0.81818   0.79540   0.09309   0.00000  Uiso   1.00
C542   C     0.83304   0.83333   0.11603   0.00000  Uiso   1.00
C543   C     0.83372   0.83334   0.38397   0.00000  Uiso   1.00
C544   C     0.83340   0.83324   0.02405   0.00000  Uiso   1.00
C545   C     0.83354   0.83326   0.47595   0.00000  Uiso   1.00
C546   C     0.95732   0.83333   0.24957   0.00000  Uiso   1.00
C547   C     0.70934   0.83335   0.25043   0.00000  Uiso   1.00
C548   C     0.71140   0.83221   0.33580   0.00000  Uiso   1.00
C549   C     0.95527   0.83505   0.16421   0.00000  Uiso   1.00
C550   C     0.95168   0.83159   0.33398   0.00000  Uiso   1.00
C551   C     0.83303   0.83333   0.16392   0.00000  Uiso   1.00
C552   C     0.71499   0.83450   0.16601   0.00000  Uiso   1.00
C553   C     0.83365   0.83334   0.33608   0.00000  Uiso   1.00
C554   C     0.85836   0.69064   0.27865   0.00000  Uiso   1.00
C555   C     0.80831   0.97603   0.22135   0.00000  Uiso   1.00
C556   C     0.80831   0.69064   0.22135   0.00000  Uiso   1.00
C557   C     0.85836   0.97603   0.27865   0.00000  Uiso   1.00
C558   C     0.68801   0.83268   0.29168   0.00000  Uiso   1.00
H559   H     0.87838   0.70880   0.30156   0.00000  Uiso   1.00
H560   H     0.86069   0.76613   0.38925   0.00000  Uiso   1.00
H561   H     0.80674   0.90055   0.38951   0.00000  Uiso   1.00
H562   H     0.80613   0.76611   0.11068   0.00000  Uiso   1.00
H563   H     0.74591   0.83265   0.33239   0.00000  Uiso   1.00
H564   H     0.70279   0.86256   0.35565   0.00000  Uiso   1.00
H565   H     0.70332   0.80107   0.35468   0.00000  Uiso   1.00
H566   H     0.92075   0.83523   0.16763   0.00000  Uiso   1.00
H567   H     0.96378   0.86608   0.14537   0.00000  Uiso   1.00
H568   H     0.96344   0.80459   0.14431   0.00000  Uiso   1.00
H569   H     0.93152   0.80094   0.33437   0.00000  Uiso   1.00
H570   H     0.78828   0.95787   0.19845   0.00000  Uiso   1.00
H571   H     0.97023   0.83099   0.36503   0.00000  Uiso   1.00
H572   H     0.93136   0.86207   0.33557   0.00000  Uiso   1.00
H573   H     0.73524   0.86507   0.16538   0.00000  Uiso   1.00
H574   H     0.73522   0.80393   0.16467   0.00000  Uiso   1.00
H575   H     0.69644   0.83487   0.13496   0.00000  Uiso   1.00
H576   H     0.78829   0.70879   0.19844   0.00000  Uiso   1.00
H577   H     0.87838   0.95788   0.30155   0.00000  Uiso   1.00
H578   H     0.86073   0.90020   0.02935   0.00000  Uiso   1.00
H579   H     0.86094   0.76632   0.47051   0.00000  Uiso   1.00
H580   H     0.80616   0.90021   0.47071   0.00000  Uiso   1.00
H581   H     0.80602   0.76629   0.02942   0.00000  Uiso   1.00
H582   H     0.86001   0.90055   0.11055   0.00000  Uiso   1.00
N583   N     0.83333   0.95240   0.25000   0.00000  Uiso   1.00
N584   N     0.83333   0.71427   0.25000   0.00000  Uiso   1.00
O585   O     0.77226   0.87154   0.25000   0.00000  Uiso   1.00
O586   O     0.89441   0.79513   0.25001   0.00000  Uiso   1.00
O587   O     0.89441   0.87154   0.25001   0.00000  Uiso   1.00
O588   O     0.77226   0.79513   0.25000   0.00000  Uiso   1.00
O589   O     0.83333   0.87155   0.18453   0.00000  Uiso   1.00
O590   O     0.83334   0.79511   0.31547   0.00000  Uiso   1.00
O591   O     0.83334   0.87155   0.31547   0.00000  Uiso   1.00
O592   O     0.83333   0.79511   0.18453   0.00000  Uiso   1.00
Zn593  Zn    0.83333   0.88437   0.25000   0.00000  Uiso   1.00
Zn594  Zn    0.83333   0.78229   0.25000   0.00000  Uiso   1.00
C595   C     0.08686   0.16667   0.75035   0.00000  Uiso   1.00
C596   C     0.31199   0.16745   0.70832   0.00000  Uiso   1.00
C597   C     0.31095   0.16586   0.79116   0.00000  Uiso   1.00
C598   C     0.02238   0.16733   0.70884   0.00000  Uiso   1.00
C599   C     0.18175   0.20442   0.54701   0.00000  Uiso   1.00
C600   C     0.18206   0.12880   0.95290   0.00000  Uiso   1.00
C601   C     0.15181   0.20443   0.95302   0.00000  Uiso   1.00
C602   C     0.15153   0.12878   0.54706   0.00000  Uiso   1.00
C603   C     0.18139   0.20456   0.59303   0.00000  Uiso   1.00
C604   C     0.18199   0.12876   0.90687   0.00000  Uiso   1.00
C605   C     0.15208   0.20457   0.90701   0.00000  Uiso   1.00
C606   C     0.24647   0.16666   0.74965   0.00000  Uiso   1.00
C607   C     0.15152   0.12874   0.59309   0.00000  Uiso   1.00
C608   C     0.16638   0.16667   0.61603   0.00000  Uiso   1.00
C609   C     0.16705   0.16668   0.88397   0.00000  Uiso   1.00
C610   C     0.16674   0.16657   0.52405   0.00000  Uiso   1.00
C611   C     0.16687   0.16659   0.97595   0.00000  Uiso   1.00
C612   C     0.29066   0.16666   0.74957   0.00000  Uiso   1.00
C613   C     0.04268   0.16668   0.75043   0.00000  Uiso   1.00
C614   C     0.04473   0.16554   0.83580   0.00000  Uiso   1.00
C615   C     0.28860   0.16838   0.66421   0.00000  Uiso   1.00
C616   C     0.28501   0.16492   0.83398   0.00000  Uiso   1.00
C617   C     0.16637   0.16667   0.66392   0.00000  Uiso   1.00
C618   C     0.04832   0.16784   0.66601   0.00000  Uiso   1.00
C619   C     0.16698   0.16667   0.83608   0.00000  Uiso   1.00
C620   C     0.19169   0.02398   0.77865   0.00000  Uiso   1.00
C621   C     0.14164   0.30936   0.72135   0.00000  Uiso   1.00
C622   C     0.14164   0.02397   0.72135   0.00000  Uiso   1.00
C623   C     0.19169   0.30936   0.77865   0.00000  Uiso   1.00
C624   C     0.02135   0.16602   0.79168   0.00000  Uiso   1.00
H625   H     0.21171   0.04213   0.80156   0.00000  Uiso   1.00
H626   H     0.19402   0.09946   0.88925   0.00000  Uiso   1.00
H627   H     0.14008   0.23389   0.88951   0.00000  Uiso   1.00
H628   H     0.13946   0.09944   0.61068   0.00000  Uiso   1.00
H629   H     0.07925   0.16598   0.83239   0.00000  Uiso   1.00
H630   H     0.03612   0.19589   0.85565   0.00000  Uiso   1.00
H631   H     0.03666   0.13440   0.85468   0.00000  Uiso   1.00
H632   H     0.25409   0.16857   0.66763   0.00000  Uiso   1.00
H633   H     0.29711   0.19942   0.64537   0.00000  Uiso   1.00
H634   H     0.29677   0.13793   0.64431   0.00000  Uiso   1.00
H635   H     0.26486   0.13428   0.83437   0.00000  Uiso   1.00
H636   H     0.12162   0.29121   0.69845   0.00000  Uiso   1.00
H637   H     0.30356   0.16432   0.86503   0.00000  Uiso   1.00
H638   H     0.26469   0.19541   0.83557   0.00000  Uiso   1.00
H639   H     0.06857   0.19841   0.66538   0.00000  Uiso   1.00
H640   H     0.06855   0.13727   0.66467   0.00000  Uiso   1.00
H641   H     0.02977   0.16820   0.63496   0.00000  Uiso   1.00
H642   H     0.12162   0.04213   0.69844   0.00000  Uiso   1.00
H643   H     0.21172   0.29121   0.80155   0.00000  Uiso   1.00
H644   H     0.19407   0.23353   0.52935   0.00000  Uiso   1.00
H645   H     0.19427   0.09965   0.97051   0.00000  Uiso   1.00
H646   H     0.13950   0.23354   0.97071   0.00000  Uiso   1.00
H647   H     0.13935   0.09963   0.52942   0.00000  Uiso   1.00
H648   H     0.19334   0.23388   0.61055   0.00000  Uiso   1.00
N649   N     0.16667   0.28573   0.75000   0.00000  Uiso   1.00
N650   N     0.16667   0.04760   0.75000   0.00000  Uiso   1.00
O651   O     0.10559   0.20487   0.75000   0.00000  Uiso   1.00
O652   O     0.22774   0.12846   0.75001   0.00000  Uiso   1.00
O653   O     0.22774   0.20487   0.75001   0.00000  Uiso   1.00
O654   O     0.10559   0.12846   0.75000   0.00000  Uiso   1.00
O655   O     0.16666   0.20489   0.68453   0.00000  Uiso   1.00
O656   O     0.16667   0.12845   0.81547   0.00000  Uiso   1.00
O657   O     0.16667   0.20489   0.81547   0.00000  Uiso   1.00
O658   O     0.16666   0.12845   0.68453   0.00000  Uiso   1.00
Zn659  Zn    0.16667   0.21771   0.75000   0.00000  Uiso   1.00
Zn660  Zn    0.16667   0.11563   0.75000   0.00000  Uiso   1.00
C661   C     0.42019   0.16667   0.75035   0.00000  Uiso   1.00
C662   C     0.64532   0.16745   0.70832   0.00000  Uiso   1.00
C663   C     0.64428   0.16586   0.79116   0.00000  Uiso   1.00
C664   C     0.35572   0.16733   0.70884   0.00000  Uiso   1.00
C665   C     0.51508   0.20442   0.54701   0.00000  Uiso   1.00
C666   C     0.51540   0.12880   0.95290   0.00000  Uiso   1.00
C667   C     0.48514   0.20443   0.95302   0.00000  Uiso   1.00
C668   C     0.48486   0.12878   0.54706   0.00000  Uiso   1.00
C669   C     0.51472   0.20456   0.59303   0.00000  Uiso   1.00
C670   C     0.51532   0.12876   0.90687   0.00000  Uiso   1.00
C671   C     0.48541   0.20457   0.90701   0.00000  Uiso   1.00
C672   C     0.57981   0.16666   0.74965   0.00000  Uiso   1.00
C673   C     0.48485   0.12874   0.59309   0.00000  Uiso   1.00
C674   C     0.49971   0.16667   0.61603   0.00000  Uiso   1.00
C675   C     0.50039   0.16668   0.88397   0.00000  Uiso   1.00
C676   C     0.50007   0.16657   0.52405   0.00000  Uiso   1.00
C677   C     0.50020   0.16659   0.97595   0.00000  Uiso   1.00
C678   C     0.62399   0.16666   0.74957   0.00000  Uiso   1.00
C679   C     0.37601   0.16668   0.75043   0.00000  Uiso   1.00
C680   C     0.37807   0.16554   0.83580   0.00000  Uiso   1.00
C681   C     0.62193   0.16838   0.66421   0.00000  Uiso   1.00
C682   C     0.61835   0.16492   0.83398   0.00000  Uiso   1.00
C683   C     0.49970   0.16667   0.66392   0.00000  Uiso   1.00
C684   C     0.38166   0.16784   0.66601   0.00000  Uiso   1.00
C685   C     0.50031   0.16667   0.83608   0.00000  Uiso   1.00
C686   C     0.52503   0.02398   0.77865   0.00000  Uiso   1.00
C687   C     0.47497   0.30936   0.72135   0.00000  Uiso   1.00
C688   C     0.47497   0.02397   0.72135   0.00000  Uiso   1.00
C689   C     0.52503   0.30936   0.77865   0.00000  Uiso   1.00
C690   C     0.35468   0.16602   0.79168   0.00000  Uiso   1.00
H691   H     0.54504   0.04213   0.80156   0.00000  Uiso   1.00
H692   H     0.52736   0.09946   0.88925   0.00000  Uiso   1.00
H693   H     0.47341   0.23389   0.88951   0.00000  Uiso   1.00
H694   H     0.47280   0.09944   0.61068   0.00000  Uiso   1.00
H695   H     0.41258   0.16598   0.83239   0.00000  Uiso   1.00
H696   H     0.36946   0.19589   0.85565   0.00000  Uiso   1.00
H697   H     0.36999   0.13440   0.85468   0.00000  Uiso   1.00
H698   H     0.58742   0.16857   0.66763   0.00000  Uiso   1.00
H699   H     0.63045   0.19942   0.64537   0.00000  Uiso   1.00
H700   H     0.63011   0.13793   0.64431   0.00000  Uiso   1.00
H701   H     0.59819   0.13428   0.83437   0.00000  Uiso   1.00
H702   H     0.45495   0.29121   0.69845   0.00000  Uiso   1.00
H703   H     0.63689   0.16432   0.86503   0.00000  Uiso   1.00
H704   H     0.59803   0.19541   0.83557   0.00000  Uiso   1.00
H705   H     0.40190   0.19841   0.66538   0.00000  Uiso   1.00
H706   H     0.40188   0.13727   0.66467   0.00000  Uiso   1.00
H707   H     0.36311   0.16820   0.63496   0.00000  Uiso   1.00
H708   H     0.45496   0.04213   0.69844   0.00000  Uiso   1.00
H709   H     0.54505   0.29121   0.80155   0.00000  Uiso   1.00
H710   H     0.52740   0.23353   0.52935   0.00000  Uiso   1.00
H711   H     0.52761   0.09965   0.97051   0.00000  Uiso   1.00
H712   H     0.47283   0.23354   0.97071   0.00000  Uiso   1.00
H713   H     0.47269   0.09963   0.52942   0.00000  Uiso   1.00
H714   H     0.52668   0.23388   0.61055   0.00000  Uiso   1.00
N715   N     0.50000   0.28573   0.75000   0.00000  Uiso   1.00
N716   N     0.50000   0.04760   0.75000   0.00000  Uiso   1.00
O717   O     0.43892   0.20487   0.75000   0.00000  Uiso   1.00
O718   O     0.56108   0.12846   0.75001   0.00000  Uiso   1.00
O719   O     0.56108   0.20487   0.75001   0.00000  Uiso   1.00
O720   O     0.43892   0.12846   0.75000   0.00000  Uiso   1.00
O721   O     0.50000   0.20489   0.68453   0.00000  Uiso   1.00
O722   O     0.50000   0.12845   0.81547   0.00000  Uiso   1.00
O723   O     0.50000   0.20489   0.81547   0.00000  Uiso   1.00
O724   O     0.50000   0.12845   0.68453   0.00000  Uiso   1.00
Zn725  Zn    0.50000   0.21771   0.75000   0.00000  Uiso   1.00
Zn726  Zn    0.50000   0.11563   0.75000   0.00000  Uiso   1.00
C727   C     0.75353   0.16667   0.75035   0.00000  Uiso   1.00
C728   C     0.97865   0.16745   0.70832   0.00000  Uiso   1.00
C729   C     0.97762   0.16586   0.79116   0.00000  Uiso   1.00
C730   C     0.68905   0.16733   0.70884   0.00000  Uiso   1.00
C731   C     0.84842   0.20442   0.54701   0.00000  Uiso   1.00
C732   C     0.84873   0.12880   0.95290   0.00000  Uiso   1.00
C733   C     0.81847   0.20443   0.95302   0.00000  Uiso   1.00
C734   C     0.81820   0.12878   0.54706   0.00000  Uiso   1.00
C735   C     0.84805   0.20456   0.59303   0.00000  Uiso   1.00
C736   C     0.84866   0.12876   0.90687   0.00000  Uiso   1.00
C737   C     0.81874   0.20457   0.90701   0.00000  Uiso   1.00
C738   C     0.91314   0.16666   0.74965   0.00000  Uiso   1.00
C739   C     0.81818   0.12874   0.59309   0.00000  Uiso   1.00
C740   C     0.83304   0.16667   0.61603   0.00000  Uiso   1.00
C741   C     0.83372   0.16668   0.88397   0.00000  Uiso   1.00
C742   C     0.83340   0.16657   0.52405   0.00000  Uiso   1.00
C743   C     0.83354   0.16659   0.97595   0.00000  Uiso   1.00
C744   C     0.95732   0.16666   0.74957   0.00000  Uiso   1.00
C745   C     0.70934   0.16668   0.75043   0.00000  Uiso   1.00
C746   C     0.71140   0.16554   0.83580   0.00000  Uiso   1.00
C747   C     0.95527   0.16838   0.66421   0.00000  Uiso   1.00
C748   C     0.95168   0.16492   0.83398   0.00000  Uiso   1.00
C749   C     0.83303   0.16667   0.66392   0.00000  Uiso   1.00
C750   C     0.71499   0.16784   0.66601   0.00000  Uiso   1.00
C751   C     0.83365   0.16667   0.83608   0.00000  Uiso   1.00
C752   C     0.85836   0.02398   0.77865   0.00000  Uiso   1.00
C753   C     0.80831   0.30936   0.72135   0.00000  Uiso   1.00
C754   C     0.80831   0.02397   0.72135   0.00000  Uiso   1.00
C755   C     0.85836   0.30936   0.77865   0.00000  Uiso   1.00
C756   C     0.68801   0.16602   0.79168   0.00000  Uiso   1.00
H757   H     0.87838   0.04213   0.80156   0.00000  Uiso   1.00
H758   H     0.86069   0.09946   0.88925   0.00000  Uiso   1.00
H759   H     0.80674   0.23389   0.88951   0.00000  Uiso   1.00
H760   H     0.80613   0.09944   0.61068   0.00000  Uiso   1.00
H761   H     0.74591   0.16598   0.83239   0.00000  Uiso   1.00
H762   H     0.70279   0.19589   0.85565   0.00000  Uiso   1.00
H763   H     0.70332   0.13440   0.85468   0.00000  Uiso   1.00
H764   H     0.92075   0.16857   0.66763   0.00000  Uiso   1.00
H765   H     0.96378   0.19942   0.64537   0.00000  Uiso   1.00
H766   H     0.96344   0.13793   0.64431   0.00000  Uiso   1.00
H767   H     0.93152   0.13428   0.83437   0.00000  Uiso   1.00
H768   H     0.78828   0.29121   0.69845   0.00000  Uiso   1.00
H769   H     0.97023   0.16432   0.86503   0.00000  Uiso   1.00
H770   H     0.93136   0.19541   0.83557   0.00000  Uiso   1.00
H771   H     0.73524   0.19841   0.66538   0.00000  Uiso   1.00
H772   H     0.73522   0.13727   0.66467   0.00000  Uiso   1.00
H773   H     0.69644   0.16820   0.63496   0.00000  Uiso   1.00
H774   H     0.78829   0.04213   0.69844   0.00000  Uiso   1.00
H775   H     0.87838   0.29121   0.80155   0.00000  Uiso   1.00
H776   H     0.86073   0.23353   0.52935   0.00000  Uiso   1.00
H777   H     0.86094   0.09965   0.97051   0.00000  Uiso   1.00
H778   H     0.80616   0.23354   0.97071   0.00000  Uiso   1.00
H779   H     0.80602   0.09963   0.52942   0.00000  Uiso   1.00
H780   H     0.86001   0.23388   0.61055   0.00000  Uiso   1.00
N781   N     0.83333   0.28573   0.75000   0.00000  Uiso   1.00
N782   N     0.83333   0.04760   0.75000   0.00000  Uiso   1.00
O783   O     0.77226   0.20487   0.75000   0.00000  Uiso   1.00
O784   O     0.89441   0.12846   0.75001   0.00000  Uiso   1.00
O785   O     0.89441   0.20487   0.75001   0.00000  Uiso   1.00
O786   O     0.77226   0.12846   0.75000   0.00000  Uiso   1.00
O787   O     0.83333   0.20489   0.68453   0.00000  Uiso   1.00
O788   O     0.83334   0.12845   0.81547   0.00000  Uiso   1.00
O789   O     0.83334   0.20489   0.81547   0.00000  Uiso   1.00
O790   O     0.83333   0.12845   0.68453   0.00000  Uiso   1.00
Zn791  Zn    0.83333   0.21771   0.75000   0.00000  Uiso   1.00
Zn792  Zn    0.83333   0.11563   0.75000   0.00000  Uiso   1.00
C793   C     0.08686   0.50000   0.75035   0.00000  Uiso   1.00
C794   C     0.31199   0.50078   0.70832   0.00000  Uiso   1.00
C795   C     0.31095   0.49919   0.79116   0.00000  Uiso   1.00
C796   C     0.02238   0.50066   0.70884   0.00000  Uiso   1.00
C797   C     0.18175   0.53775   0.54701   0.00000  Uiso   1.00
C798   C     0.18206   0.46213   0.95290   0.00000  Uiso   1.00
C799   C     0.15181   0.53776   0.95302   0.00000  Uiso   1.00
C800   C     0.15153   0.46211   0.54706   0.00000  Uiso   1.00
C801   C     0.18139   0.53789   0.59303   0.00000  Uiso   1.00
C802   C     0.18199   0.46209   0.90687   0.00000  Uiso   1.00
C803   C     0.15208   0.53790   0.90701   0.00000  Uiso   1.00
C804   C     0.24647   0.50000   0.74965   0.00000  Uiso   1.00
C805   C     0.15152   0.46207   0.59309   0.00000  Uiso   1.00
C806   C     0.16638   0.50000   0.61603   0.00000  Uiso   1.00
C807   C     0.16705   0.50001   0.88397   0.00000  Uiso   1.00
C808   C     0.16674   0.49991   0.52405   0.00000  Uiso   1.00
C809   C     0.16687   0.49992   0.97595   0.00000  Uiso   1.00
C810   C     0.29066   0.49999   0.74957   0.00000  Uiso   1.00
C811   C     0.04268   0.50001   0.75043   0.00000  Uiso   1.00
C812   C     0.04473   0.49887   0.83580   0.00000  Uiso   1.00
C813   C     0.28860   0.50172   0.66421   0.00000  Uiso   1.00
C814   C     0.28501   0.49826   0.83398   0.00000  Uiso   1.00
C815   C     0.16637   0.50000   0.66392   0.00000  Uiso   1.00
C816   C     0.04832   0.50117   0.66601   0.00000  Uiso   1.00
C817   C     0.16698   0.50000   0.83608   0.00000  Uiso   1.00
C818   C     0.19169   0.35731   0.77865   0.00000  Uiso   1.00
C819   C     0.14164   0.64269   0.72135   0.00000  Uiso   1.00
C820   C     0.14164   0.35731   0.72135   0.00000  Uiso   1.00
C821   C     0.19169   0.64270   0.77865   0.00000  Uiso   1.00
C822   C     0.02135   0.49935   0.79168   0.00000  Uiso   1.00
H823   H     0.21171   0.37546   0.80156   0.00000  Uiso   1.00
H824   H     0.19402   0.43280   0.88925   0.00000  Uiso   1.00
H825   H     0.14008   0.56722   0.88951   0.00000  Uiso   1.00
H826   H     0.13946   0.43277   0.61068   0.00000  Uiso   1.00
H827   H     0.07925   0.49931   0.83239   0.00000  Uiso   1.00
H828   H     0.03612   0.52922   0.85565   0.00000  Uiso   1.00
H829   H     0.03666   0.46773   0.85468   0.00000  Uiso   1.00
H830   H     0.25409   0.50190   0.66763   0.00000  Uiso   1.00
H831   H     0.29711   0.53275   0.64537   0.00000  Uiso   1.00
H832   H     0.29677   0.47126   0.64431   0.00000  Uiso   1.00
H833   H     0.26486   0.46761   0.83437   0.00000  Uiso   1.00
H834   H     0.12162   0.62454   0.69845   0.00000  Uiso   1.00
H835   H     0.30356   0.49765   0.86503   0.00000  Uiso   1.00
H836   H     0.26469   0.52874   0.83557   0.00000  Uiso   1.00
H837   H     0.06857   0.53174   0.66538   0.00000  Uiso   1.00
H838   H     0.06855   0.47060   0.66467   0.00000  Uiso   1.00
H839   H     0.02977   0.50153   0.63496   0.00000  Uiso   1.00
H840   H     0.12162   0.37546   0.69844   0.00000  Uiso   1.00
H841   H     0.21172   0.62454   0.80155   0.00000  Uiso   1.00
H842   H     0.19407   0.56687   0.52935   0.00000  Uiso   1.00
H843   H     0.19427   0.43299   0.97051   0.00000  Uiso   1.00
H844   H     0.13950   0.56687   0.97071   0.00000  Uiso   1.00
H845   H     0.13935   0.43296   0.52942   0.00000  Uiso   1.00
H846   H     0.19334   0.56721   0.61055   0.00000  Uiso   1.00
N847   N     0.16667   0.61907   0.75000   0.00000  Uiso   1.00
N848   N     0.16667   0.38093   0.75000   0.00000  Uiso   1.00
O849   O     0.10559   0.53821   0.75000   0.00000  Uiso   1.00
O850   O     0.22774   0.46179   0.75001   0.00000  Uiso   1.00
O851   O     0.22774   0.53821   0.75001   0.00000  Uiso   1.00
O852   O     0.10559   0.46179   0.75000   0.00000  Uiso   1.00
O853   O     0.16666   0.53822   0.68453   0.00000  Uiso   1.00
O854   O     0.16667   0.46178   0.81547   0.00000  Uiso   1.00
O855   O     0.16667   0.53822   0.81547   0.00000  Uiso   1.00
O856   O     0.16666   0.46178   0.68453   0.00000  Uiso   1.00
Zn857  Zn    0.16667   0.55104   0.75000   0.00000  Uiso   1.00
Zn858  Zn    0.16667   0.44896   0.75000   0.00000  Uiso   1.00
C859   C     0.42019   0.50000   0.75035   0.00000  Uiso   1.00
C860   C     0.64532   0.50078   0.70832   0.00000  Uiso   1.00
C861   C     0.64428   0.49919   0.79116   0.00000  Uiso   1.00
C862   C     0.35572   0.50066   0.70884   0.00000  Uiso   1.00
C863   C     0.51508   0.53775   0.54701   0.00000  Uiso   1.00
C864   C     0.51540   0.46213   0.95290   0.00000  Uiso   1.00
C865   C     0.48514   0.53776   0.95302   0.00000  Uiso   1.00
C866   C     0.48486   0.46211   0.54706   0.00000  Uiso   1.00
C867   C     0.51472   0.53789   0.59303   0.00000  Uiso   1.00
C868   C     0.51532   0.46209   0.90687   0.00000  Uiso   1.00
C869   C     0.48541   0.53790   0.90701   0.00000  Uiso   1.00
C870   C     0.57981   0.50000   0.74965   0.00000  Uiso   1.00
C871   C     0.48485   0.46207   0.59309   0.00000  Uiso   1.00
C872   C     0.49971   0.50000   0.61603   0.00000  Uiso   1.00
C873   C     0.50039   0.50001   0.88397   0.00000  Uiso   1.00
C874   C     0.50007   0.49991   0.52405   0.00000  Uiso   1.00
C875   C     0.50020   0.49992   0.97595   0.00000  Uiso   1.00
C876   C     0.62399   0.49999   0.74957   0.00000  Uiso   1.00
C877   C     0.37601   0.50001   0.75043   0.00000  Uiso   1.00
C878   C     0.37807   0.49887   0.83580   0.00000  Uiso   1.00
C879   C     0.62193   0.50172   0.66421   0.00000  Uiso   1.00
C880   C     0.61835   0.49826   0.83398   0.00000  Uiso   1.00
C881   C     0.49970   0.50000   0.66392   0.00000  Uiso   1.00
C882   C     0.38166   0.50117   0.66601   0.00000  Uiso   1.00
C883   C     0.50031   0.50000   0.83608   0.00000  Uiso   1.00
C884   C     0.52503   0.35731   0.77865   0.00000  Uiso   1.00
C885   C     0.47497   0.64269   0.72135   0.00000  Uiso   1.00
C886   C     0.47497   0.35731   0.72135   0.00000  Uiso   1.00
C887   C     0.52503   0.64270   0.77865   0.00000  Uiso   1.00
C888   C     0.35468   0.49935   0.79168   0.00000  Uiso   1.00
H889   H     0.54504   0.37546   0.80156   0.00000  Uiso   1.00
H890   H     0.52736   0.43280   0.88925   0.00000  Uiso   1.00
H891   H     0.47341   0.56722   0.88951   0.00000  Uiso   1.00
H892   H     0.47280   0.43277   0.61068   0.00000  Uiso   1.00
H893   H     0.41258   0.49931   0.83239   0.00000  Uiso   1.00
H894   H     0.36946   0.52922   0.85565   0.00000  Uiso   1.00
H895   H     0.36999   0.46773   0.85468   0.00000  Uiso   1.00
H896   H     0.58742   0.50190   0.66763   0.00000  Uiso   1.00
H897   H     0.63045   0.53275   0.64537   0.00000  Uiso   1.00
H898   H     0.63011   0.47126   0.64431   0.00000  Uiso   1.00
H899   H     0.59819   0.46761   0.83437   0.00000  Uiso   1.00
H900   H     0.45495   0.62454   0.69845   0.00000  Uiso   1.00
H901   H     0.63689   0.49765   0.86503   0.00000  Uiso   1.00
H902   H     0.59803   0.52874   0.83557   0.00000  Uiso   1.00
H903   H     0.40190   0.53174   0.66538   0.00000  Uiso   1.00
H904   H     0.40188   0.47060   0.66467   0.00000  Uiso   1.00
H905   H     0.36311   0.50153   0.63496   0.00000  Uiso   1.00
H906   H     0.45496   0.37546   0.69844   0.00000  Uiso   1.00
H907   H     0.54505   0.62454   0.80155   0.00000  Uiso   1.00
H908   H     0.52740   0.56687   0.52935   0.00000  Uiso   1.00
H909   H     0.52761   0.43299   0.97051   0.00000  Uiso   1.00
H910   H     0.47283   0.56687   0.97071   0.00000  Uiso   1.00
H911   H     0.47269   0.43296   0.52942   0.00000  Uiso   1.00
H912   H     0.52668   0.56721   0.61055   0.00000  Uiso   1.00
N913   N     0.50000   0.61907   0.75000   0.00000  Uiso   1.00
N914   N     0.50000   0.38093   0.75000   0.00000  Uiso   1.00
O915   O     0.43892   0.53821   0.75000   0.00000  Uiso   1.00
O916   O     0.56108   0.46179   0.75001   0.00000  Uiso   1.00
O917   O     0.56108   0.53821   0.75001   0.00000  Uiso   1.00
O918   O     0.43892   0.46179   0.75000   0.00000  Uiso   1.00
O919   O     0.50000   0.53822   0.68453   0.00000  Uiso   1.00
O920   O     0.50000   0.46178   0.81547   0.00000  Uiso   1.00
O921   O     0.50000   0.53822   0.81547   0.00000  Uiso   1.00
O922   O     0.50000   0.46178   0.68453   0.00000  Uiso   1.00
Zn923  Zn    0.50000   0.55104   0.75000   0.00000  Uiso   1.00
Zn924  Zn    0.50000   0.44896   0.75000   0.00000  Uiso   1.00
C925   C     0.75353   0.50000   0.75035   0.00000  Uiso   1.00
C926   C     0.97865   0.50078   0.70832   0.00000  Uiso   1.00
C927   C     0.97762   0.49919   0.79116   0.00000  Uiso   1.00
C928   C     0.68905   0.50066   0.70884   0.00000  Uiso   1.00
C929   C     0.84842   0.53775   0.54701   0.00000  Uiso   1.00
C930   C     0.84873   0.46213   0.95290   0.00000  Uiso   1.00
C931   C     0.81847   0.53776   0.95302   0.00000  Uiso   1.00
C932   C     0.81820   0.46211   0.54706   0.00000  Uiso   1.00
C933   C     0.84805   0.53789   0.59303   0.00000  Uiso   1.00
C934   C     0.84866   0.46209   0.90687   0.00000  Uiso   1.00
C935   C     0.81874   0.53790   0.90701   0.00000  Uiso   1.00
C936   C     0.91314   0.50000   0.74965   0.00000  Uiso   1.00
C937   C     0.81818   0.46207   0.59309   0.00000  Uiso   1.00
C938   C     0.83304   0.50000   0.61603   0.00000  Uiso   1.00
C939   C     0.83372   0.50001   0.88397   0.00000  Uiso   1.00
C940   C     0.83340   0.49991   0.52405   0.00000  Uiso   1.00
C941   C     0.83354   0.49992   0.97595   0.00000  Uiso   1.00
C942   C     0.95732   0.49999   0.74957   0.00000  Uiso   1.00
C943   C     0.70934   0.50001   0.75043   0.00000  Uiso   1.00
C944   C     0.71140   0.49887   0.83580   0.00000  Uiso   1.00
C945   C     0.95527   0.50172   0.66421   0.00000  Uiso   1.00
C946   C     0.95168   0.49826   0.83398   0.00000  Uiso   1.00
C947   C     0.83303   0.50000   0.66392   0.00000  Uiso   1.00
C948   C     0.71499   0.50117   0.66601   0.00000  Uiso   1.00
C949   C     0.83365   0.50000   0.83608   0.00000  Uiso   1.00
C950   C     0.85836   0.35731   0.77865   0.00000  Uiso   1.00
C951   C     0.80831   0.64269   0.72135   0.00000  Uiso   1.00
C952   C     0.80831   0.35731   0.72135   0.00000  Uiso   1.00
C953   C     0.85836   0.64270   0.77865   0.00000  Uiso   1.00
C954   C     0.68801   0.49935   0.79168   0.00000  Uiso   1.00
H955   H     0.87838   0.37546   0.80156   0.00000  Uiso   1.00
H956   H     0.86069   0.43280   0.88925   0.00000  Uiso   1.00
H957   H     0.80674   0.56722   0.88951   0.00000  Uiso   1.00
H958   H     0.80613   0.43277   0.61068   0.00000  Uiso   1.00
H959   H     0.74591   0.49931   0.83239   0.00000  Uiso   1.00
H960   H     0.70279   0.52922   0.85565   0.00000  Uiso   1.00
H961   H     0.70332   0.46773   0.85468   0.00000  Uiso   1.00
H962   H     0.92075   0.50190   0.66763   0.00000  Uiso   1.00
H963   H     0.96378   0.53275   0.64537   0.00000  Uiso   1.00
H964   H     0.96344   0.47126   0.64431   0.00000  Uiso   1.00
H965   H     0.93152   0.46761   0.83437   0.00000  Uiso   1.00
H966   H     0.78828   0.62454   0.69845   0.00000  Uiso   1.00
H967   H     0.97023   0.49765   0.86503   0.00000  Uiso   1.00
H968   H     0.93136   0.52874   0.83557   0.00000  Uiso   1.00
H969   H     0.73524   0.53174   0.66538   0.00000  Uiso   1.00
H970   H     0.73522   0.47060   0.66467   0.00000  Uiso   1.00
H971   H     0.69644   0.50153   0.63496   0.00000  Uiso   1.00
H972   H     0.78829   0.37546   0.69844   0.00000  Uiso   1.00
H973   H     0.87838   0.62454   0.80155   0.00000  Uiso   1.00
H974   H     0.86073   0.56687   0.52935   0.00000  Uiso   1.00
H975   H     0.86094   0.43299   0.97051   0.00000  Uiso   1.00
H976   H     0.80616   0.56687   0.97071   0.00000  Uiso   1.00
H977   H     0.80602   0.43296   0.52942   0.00000  Uiso   1.00
H978   H     0.86001   0.56721   0.61055   0.00000  Uiso   1.00
N979   N     0.83333   0.61907   0.75000   0.00000  Uiso   1.00
N980   N     0.83333   0.38093   0.75000   0.00000  Uiso   1.00
O981   O     0.77226   0.53821   0.75000   0.00000  Uiso   1.00
O982   O     0.89441   0.46179   0.75001   0.00000  Uiso   1.00
O983   O     0.89441   0.53821   0.75001   0.00000  Uiso   1.00
O984   O     0.77226   0.46179   0.75000   0.00000  Uiso   1.00
O985   O     0.83333   0.53822   0.68453   0.00000  Uiso   1.00
O986   O     0.83334   0.46178   0.81547   0.00000  Uiso   1.00
O987   O     0.83334   0.53822   0.81547   0.00000  Uiso   1.00
O988   O     0.83333   0.46178   0.68453   0.00000  Uiso   1.00
Zn989  Zn    0.83333   0.55104   0.75000   0.00000  Uiso   1.00
Zn990  Zn    0.83333   0.44896   0.75000   0.00000  Uiso   1.00
C991   C     0.08686   0.83334   0.75035   0.00000  Uiso   1.00
C992   C     0.31199   0.83412   0.70832   0.00000  Uiso   1.00
C993   C     0.31095   0.83253   0.79116   0.00000  Uiso   1.00
C994   C     0.02238   0.83400   0.70884   0.00000  Uiso   1.00
C995   C     0.18175   0.87108   0.54701   0.00000  Uiso   1.00
C996   C     0.18206   0.79547   0.95290   0.00000  Uiso   1.00
C997   C     0.15181   0.87110   0.95302   0.00000  Uiso   1.00
C998   C     0.15153   0.79544   0.54706   0.00000  Uiso   1.00
C999   C     0.18139   0.87122   0.59303   0.00000  Uiso   1.00
C1000  C     0.18199   0.79543   0.90687   0.00000  Uiso   1.00
C1001  C     0.15208   0.87123   0.90701   0.00000  Uiso   1.00
C1002  C     0.24647   0.83333   0.74965   0.00000  Uiso   1.00
C1003  C     0.15152   0.79540   0.59309   0.00000  Uiso   1.00
C1004  C     0.16638   0.83333   0.61603   0.00000  Uiso   1.00
C1005  C     0.16705   0.83334   0.88397   0.00000  Uiso   1.00
C1006  C     0.16674   0.83324   0.52405   0.00000  Uiso   1.00
C1007  C     0.16687   0.83326   0.97595   0.00000  Uiso   1.00
C1008  C     0.29066   0.83333   0.74957   0.00000  Uiso   1.00
C1009  C     0.04268   0.83335   0.75043   0.00000  Uiso   1.00
C1010  C     0.04473   0.83221   0.83580   0.00000  Uiso   1.00
C1011  C     0.28860   0.83505   0.66421   0.00000  Uiso   1.00
C1012  C     0.28501   0.83159   0.83398   0.00000  Uiso   1.00
C1013  C     0.16637   0.83333   0.66392   0.00000  Uiso   1.00
C1014  C     0.04832   0.83450   0.66601   0.00000  Uiso   1.00
C1015  C     0.16698   0.83334   0.83608   0.00000  Uiso   1.00
C1016  C     0.19169   0.69064   0.77865   0.00000  Uiso   1.00
C1017  C     0.14164   0.97603   0.72135   0.00000  Uiso   1.00
C1018  C     0.14164   0.69064   0.72135   0.00000  Uiso   1.00
C1019  C     0.19169   0.97603   0.77865   0.00000  Uiso   1.00
C1020  C     0.02135   0.83268   0.79168   0.00000  Uiso   1.00
H1021  H     0.21171   0.70880   0.80156   0.00000  Uiso   1.00
H1022  H     0.19402   0.76613   0.88925   0.00000  Uiso   1.00
H1023  H     0.14008   0.90055   0.88951   0.00000  Uiso   1.00
H1024  H     0.13946   0.76611   0.61068   0.00000  Uiso   1.00
H1025  H     0.07925   0.83265   0.83239   0.00000  Uiso   1.00
H1026  H     0.03612   0.86256   0.85565   0.00000  Uiso   1.00
H1027  H     0.03666   0.80107   0.85468   0.00000  Uiso   1.00
H1028  H     0.25409   0.83523   0.66763   0.00000  Uiso   1.00
H1029  H     0.29711   0.86608   0.64537   0.00000  Uiso   1.00
H1030  H     0.29677   0.80459   0.64431   0.00000  Uiso   1.00
H1031  H     0.26486   0.80094   0.83437   0.00000  Uiso   1.00
H1032  H     0.12162   0.95787   0.69845   0.00000  Uiso   1.00
H1033  H     0.30356   0.83099   0.86503   0.00000  Uiso   1.00
H1034  H     0.26469   0.86207   0.83557   0.00000  Uiso   1.00
H1035  H     0.06857   0.86507   0.66538   0.00000  Uiso   1.00
H1036  H     0.06855   0.80393   0.66467   0.00000  Uiso   1.00
H1037  H     0.02977   0.83487   0.63496   0.00000  Uiso   1.00
H1038  H     0.12162   0.70879   0.69844   0.00000  Uiso   1.00
H1039  H     0.21172   0.95788   0.80155   0.00000  Uiso   1.00
H1040  H     0.19407   0.90020   0.52935   0.00000  Uiso   1.00
H1041  H     0.19427   0.76632   0.97051   0.00000  Uiso   1.00
H1042  H     0.13950   0.90021   0.97071   0.00000  Uiso   1.00
H1043  H     0.13935   0.76629   0.52942   0.00000  Uiso   1.00
H1044  H     0.19334   0.90055   0.61055   0.00000  Uiso   1.00
N1045  N     0.16667   0.95240   0.75000   0.00000  Uiso   1.00
N1046  N     0.16667   0.71427   0.75000   0.00000  Uiso   1.00
O1047  O     0.10559   0.87154   0.75000   0.00000  Uiso   1.00
O1048  O     0.22774   0.79513   0.75001   0.00000  Uiso   1.00
O1049  O     0.22774   0.87154   0.75001   0.00000  Uiso   1.00
O1050  O     0.10559   0.79513   0.75000   0.00000  Uiso   1.00
O1051  O     0.16666   0.87155   0.68453   0.00000  Uiso   1.00
O1052  O     0.16667   0.79511   0.81547   0.00000  Uiso   1.00
O1053  O     0.16667   0.87155   0.81547   0.00000  Uiso   1.00
O1054  O     0.16666   0.79511   0.68453   0.00000  Uiso   1.00
Zn1055 Zn    0.16667   0.88437   0.75000   0.00000  Uiso   1.00
Zn1056 Zn    0.16667   0.78229   0.75000   0.00000  Uiso   1.00
C1057  C     0.42019   0.83334   0.75035   0.00000  Uiso   1.00
C1058  C     0.64532   0.83412   0.70832   0.00000  Uiso   1.00
C1059  C     0.64428   0.83253   0.79116   0.00000  Uiso   1.00
C1060  C     0.35572   0.83400   0.70884   0.00000  Uiso   1.00
C1061  C     0.51508   0.87108   0.54701   0.00000  Uiso   1.00
C1062  C     0.51540   0.79547   0.95290   0.00000  Uiso   1.00
C1063  C     0.48514   0.87110   0.95302   0.00000  Uiso   1.00
C1064  C     0.48486   0.79544   0.54706   0.00000  Uiso   1.00
C1065  C     0.51472   0.87122   0.59303   0.00000  Uiso   1.00
C1066  C     0.51532   0.79543   0.90687   0.00000  Uiso   1.00
C1067  C     0.48541   0.87123   0.90701   0.00000  Uiso   1.00
C1068  C     0.57981   0.83333   0.74965   0.00000  Uiso   1.00
C1069  C     0.48485   0.79540   0.59309   0.00000  Uiso   1.00
C1070  C     0.49971   0.83333   0.61603   0.00000  Uiso   1.00
C1071  C     0.50039   0.83334   0.88397   0.00000  Uiso   1.00
C1072  C     0.50007   0.83324   0.52405   0.00000  Uiso   1.00
C1073  C     0.50020   0.83326   0.97595   0.00000  Uiso   1.00
C1074  C     0.62399   0.83333   0.74957   0.00000  Uiso   1.00
C1075  C     0.37601   0.83335   0.75043   0.00000  Uiso   1.00
C1076  C     0.37807   0.83221   0.83580   0.00000  Uiso   1.00
C1077  C     0.62193   0.83505   0.66421   0.00000  Uiso   1.00
C1078  C     0.61835   0.83159   0.83398   0.00000  Uiso   1.00
C1079  C     0.49970   0.83333   0.66392   0.00000  Uiso   1.00
C1080  C     0.38166   0.83450   0.66601   0.00000  Uiso   1.00
C1081  C     0.50031   0.83334   0.83608   0.00000  Uiso   1.00
C1082  C     0.52503   0.69064   0.77865   0.00000  Uiso   1.00
C1083  C     0.47497   0.97603   0.72135   0.00000  Uiso   1.00
C1084  C     0.47497   0.69064   0.72135   0.00000  Uiso   1.00
C1085  C     0.52503   0.97603   0.77865   0.00000  Uiso   1.00
C1086  C     0.35468   0.83268   0.79168   0.00000  Uiso   1.00
H1087  H     0.54504   0.70880   0.80156   0.00000  Uiso   1.00
H1088  H     0.52736   0.76613   0.88925   0.00000  Uiso   1.00
H1089  H     0.47341   0.90055   0.88951   0.00000  Uiso   1.00
H1090  H     0.47280   0.76611   0.61068   0.00000  Uiso   1.00
H1091  H     0.41258   0.83265   0.83239   0.00000  Uiso   1.00
H1092  H     0.36946   0.86256   0.85565   0.00000  Uiso   1.00
H1093  H     0.36999   0.80107   0.85468   0.00000  Uiso   1.00
H1094  H     0.58742   0.83523   0.66763   0.00000  Uiso   1.00
H1095  H     0.63045   0.86608   0.64537   0.00000  Uiso   1.00
H1096  H     0.63011   0.80459   0.64431   0.00000  Uiso   1.00
H1097  H     0.59819   0.80094   0.83437   0.00000  Uiso   1.00
H1098  H     0.45495   0.95787   0.69845   0.00000  Uiso   1.00
H1099  H     0.63689   0.83099   0.86503   0.00000  Uiso   1.00
H1100  H     0.59803   0.86207   0.83557   0.00000  Uiso   1.00
H1101  H     0.40190   0.86507   0.66538   0.00000  Uiso   1.00
H1102  H     0.40188   0.80393   0.66467   0.00000  Uiso   1.00
H1103  H     0.36311   0.83487   0.63496   0.00000  Uiso   1.00
H1104  H     0.45496   0.70879   0.69844   0.00000  Uiso   1.00
H1105  H     0.54505   0.95788   0.80155   0.00000  Uiso   1.00
H1106  H     0.52740   0.90020   0.52935   0.00000  Uiso   1.00
H1107  H     0.52761   0.76632   0.97051   0.00000  Uiso   1.00
H1108  H     0.47283   0.90021   0.97071   0.00000  Uiso   1.00
H1109  H     0.47269   0.76629   0.52942   0.00000  Uiso   1.00
H1110  H     0.52668   0.90055   0.61055   0.00000  Uiso   1.00
N1111  N     0.50000   0.95240   0.75000   0.00000  Uiso   1.00
N1112  N     0.50000   0.71427   0.75000   0.00000  Uiso   1.00
O1113  O     0.43892   0.87154   0.75000   0.00000  Uiso   1.00
O1114  O     0.56108   0.79513   0.75001   0.00000  Uiso   1.00
O1115  O     0.56108   0.87154   0.75001   0.00000  Uiso   1.00
O1116  O     0.43892   0.79513   0.75000   0.00000  Uiso   1.00
O1117  O     0.50000   0.87155   0.68453   0.00000  Uiso   1.00
O1118  O     0.50000   0.79511   0.81547   0.00000  Uiso   1.00
O1119  O     0.50000   0.87155   0.81547   0.00000  Uiso   1.00
O1120  O     0.50000   0.79511   0.68453   0.00000  Uiso   1.00
Zn1121 Zn    0.50000   0.88437   0.75000   0.00000  Uiso   1.00
Zn1122 Zn    0.50000   0.78229   0.75000   0.00000  Uiso   1.00
C1123  C     0.75353   0.83334   0.75035   0.00000  Uiso   1.00
C1124  C     0.97865   0.83412   0.70832   0.00000  Uiso   1.00
C1125  C     0.97762   0.83253   0.79116   0.00000  Uiso   1.00
C1126  C     0.68905   0.83400   0.70884   0.00000  Uiso   1.00
C1127  C     0.84842   0.87108   0.54701   0.00000  Uiso   1.00
C1128  C     0.84873   0.79547   0.95290   0.00000  Uiso   1.00
C1129  C     0.81847   0.87110   0.95302   0.00000  Uiso   1.00
C1130  C     0.81820   0.79544   0.54706   0.00000  Uiso   1.00
C1131  C     0.84805   0.87122   0.59303   0.00000  Uiso   1.00
C1132  C     0.84866   0.79543   0.90687   0.00000  Uiso   1.00
C1133  C     0.81874   0.87123   0.90701   0.00000  Uiso   1.00
C1134  C     0.91314   0.83333   0.74965   0.00000  Uiso   1.00
C1135  C     0.81818   0.79540   0.59309   0.00000  Uiso   1.00
C1136  C     0.83304   0.83333   0.61603   0.00000  Uiso   1.00
C1137  C     0.83372   0.83334   0.88397   0.00000  Uiso   1.00
C1138  C     0.83340   0.83324   0.52405   0.00000  Uiso   1.00
C1139  C     0.83354   0.83326   0.97595   0.00000  Uiso   1.00
C1140  C     0.95732   0.83333   0.74957   0.00000  Uiso   1.00
C1141  C     0.70934   0.83335   0.75043   0.00000  Uiso   1.00
C1142  C     0.71140   0.83221   0.83580   0.00000  Uiso   1.00
C1143  C     0.95527   0.83505   0.66421   0.00000  Uiso   1.00
C1144  C     0.95168   0.83159   0.83398   0.00000  Uiso   1.00
C1145  C     0.83303   0.83333   0.66392   0.00000  Uiso   1.00
C1146  C     0.71499   0.83450   0.66601   0.00000  Uiso   1.00
C1147  C     0.83365   0.83334   0.83608   0.00000  Uiso   1.00
C1148  C     0.85836   0.69064   0.77865   0.00000  Uiso   1.00
C1149  C     0.80831   0.97603   0.72135   0.00000  Uiso   1.00
C1150  C     0.80831   0.69064   0.72135   0.00000  Uiso   1.00
C1151  C     0.85836   0.97603   0.77865   0.00000  Uiso   1.00
C1152  C     0.68801   0.83268   0.79168   0.00000  Uiso   1.00
H1153  H     0.87838   0.70880   0.80156   0.00000  Uiso   1.00
H1154  H     0.86069   0.76613   0.88925   0.00000  Uiso   1.00
H1155  H     0.80674   0.90055   0.88951   0.00000  Uiso   1.00
H1156  H     0.80613   0.76611   0.61068   0.00000  Uiso   1.00
H1157  H     0.74591   0.83265   0.83239   0.00000  Uiso   1.00
H1158  H     0.70279   0.86256   0.85565   0.00000  Uiso   1.00
H1159  H     0.70332   0.80107   0.85468   0.00000  Uiso   1.00
H1160  H     0.92075   0.83523   0.66763   0.00000  Uiso   1.00
H1161  H     0.96378   0.86608   0.64537   0.00000  Uiso   1.00
H1162  H     0.96344   0.80459   0.64431   0.00000  Uiso   1.00
H1163  H     0.93152   0.80094   0.83437   0.00000  Uiso   1.00
H1164  H     0.78828   0.95787   0.69845   0.00000  Uiso   1.00
H1165  H     0.97023   0.83099   0.86503   0.00000  Uiso   1.00
H1166  H     0.93136   0.86207   0.83557   0.00000  Uiso   1.00
H1167  H     0.73524   0.86507   0.66538   0.00000  Uiso   1.00
H1168  H     0.73522   0.80393   0.66467   0.00000  Uiso   1.00
H1169  H     0.69644   0.83487   0.63496   0.00000  Uiso   1.00
H1170  H     0.78829   0.70879   0.69844   0.00000  Uiso   1.00
H1171  H     0.87838   0.95788   0.80155   0.00000  Uiso   1.00
H1172  H     0.86073   0.90020   0.52935   0.00000  Uiso   1.00
H1173  H     0.86094   0.76632   0.97051   0.00000  Uiso   1.00
H1174  H     0.80616   0.90021   0.97071   0.00000  Uiso   1.00
H1175  H     0.80602   0.76629   0.52942   0.00000  Uiso   1.00
H1176  H     0.86001   0.90055   0.61055   0.00000  Uiso   1.00
N1177  N     0.83333   0.95240   0.75000   0.00000  Uiso   1.00
N1178  N     0.83333   0.71427   0.75000   0.00000  Uiso   1.00
O1179  O     0.77226   0.87154   0.75000   0.00000  Uiso   1.00
O1180  O     0.89441   0.79513   0.75001   0.00000  Uiso   1.00
O1181  O     0.89441   0.87154   0.75001   0.00000  Uiso   1.00
O1182  O     0.77226   0.79513   0.75000   0.00000  Uiso   1.00
O1183  O     0.83333   0.87155   0.68453   0.00000  Uiso   1.00
O1184  O     0.83334   0.79511   0.81547   0.00000  Uiso   1.00
O1185  O     0.83334   0.87155   0.81547   0.00000  Uiso   1.00
O1186  O     0.83333   0.79511   0.68453   0.00000  Uiso   1.00
Zn1187 Zn    0.83333   0.88437   0.75000   0.00000  Uiso   1.00
Zn1188 Zn    0.83333   0.78229   0.75000   0.00000  Uiso   1.00
loop_
_geom_bond_atom_site_label_1
_geom_bond_atom_site_label_2
_geom_bond_distance
_geom_bond_site_symmetry_2
_ccdc_geom_bond_type
C1     O57     1.277   .     A
C1     C19     1.409   .     S
C1     O60     1.277   .     A
C2     C18     1.410   .     A
C2     C21     1.521   .     S
C2     C70     1.394   .     S
C3     C18     1.408   .     A
C3     C22     1.525   .     S
C3     C96     1.394   .     S
C4     C24     1.525   .     S
C4     C19     1.408   .     A
C4     C134    1.394   1_455 S
C5     C9      1.380   .     A
C5     H50     1.083   .     S
C5     C16     1.399   .     A
C6     C10     1.381   .     A
C6     H51     1.083   .     S
C6     C17     1.399   .     A
C7     C11     1.380   .     A
C7     H52     1.083   .     S
C7     C17     1.399   .     A
C8     C13     1.381   .     A
C8     H53     1.083   .     S
C8     C16     1.399   .     A
C9     C14     1.399   .     A
C9     H54     1.084   .     S
C10    H32     1.084   .     S
C10    C15     1.399   .     A
C11    C15     1.399   .     A
C11    H33     1.084   .     S
C12    O58     1.277   .     A
C12    O59     1.277   .     A
C12    C18     1.409   .     S
C13    H34     1.084   .     S
C13    C14     1.399   .     A
C14    C23     1.436   .     S
C15    C25     1.436   .     S
C16    C611    1.443   1_554 S
C17    C610    1.443   .     S
C19    C30     1.410   .     A
C20    C30     1.521   .     S
C20    H37     1.110   .     S
C20    H36     1.110   .     S
C20    H35     1.105   .     S
C21    H39     1.110   .     S
C21    H40     1.110   .     S
C21    H38     1.105   .     S
C22    H43     1.105   .     S
C22    H41     1.110   .     S
C22    H44     1.110   .     S
C23    O61     1.288   .     A
C23    O64     1.288   .     A
C24    H47     1.105   .     S
C24    H46     1.111   .     S
C24    H45     1.110   .     S
C25    O62     1.288   .     A
C25    O63     1.288   .     A
C26    H31     1.082   .     S
C26    N56     1.367   .     A
C26    C425    1.417   1_545 S
C27    H42     1.082   .     S
C27    N55     1.367   .     A
C27    C226    1.417   .     S
C28    N56     1.367   .     A
C28    H48     1.082   .     S
C28    C423    1.417   1_545 S
C29    H49     1.082   .     S
C29    N55     1.367   .     A
C29    C224    1.417   .     S
C30    C135    1.394   1_455 S
N55    Zn65    2.010   .     S
N56    Zn66    2.010   .     S
O57    Zn65    1.984   .     S
O58    Zn66    1.984   .     S
O59    Zn65    1.984   .     S
O60    Zn66    1.984   .     S
O61    Zn65    2.000   .     S
O62    Zn66    2.000   .     S
O63    Zn65    2.000   .     S
O64    Zn66    2.000   .     S
C67    O123    1.277   .     A
C67    C85     1.409   .     S
C67    O126    1.277   .     A
C68    C84     1.410   .     A
C68    C87     1.521   .     S
C68    C136    1.394   .     S
C69    C84     1.408   .     A
C69    C88     1.525   .     S
C69    C162    1.394   .     S
C70    C90     1.525   .     S
C70    C85     1.408   .     A
C71    C75     1.380   .     A
C71    H116    1.083   .     S
C71    C82     1.399   .     A
C72    C76     1.381   .     A
C72    H117    1.083   .     S
C72    C83     1.399   .     A
C73    C77     1.380   .     A
C73    H118    1.083   .     S
C73    C83     1.399   .     A
C74    C79     1.381   .     A
C74    H119    1.083   .     S
C74    C82     1.399   .     A
C75    C80     1.399   .     A
C75    H120    1.084   .     S
C76    H98     1.084   .     S
C76    C81     1.399   .     A
C77    C81     1.399   .     A
C77    H99     1.084   .     S
C78    O124    1.277   .     A
C78    O125    1.277   .     A
C78    C84     1.409   .     S
C79    H100    1.084   .     S
C79    C80     1.399   .     A
C80    C89     1.436   .     S
C81    C91     1.436   .     S
C82    C677    1.443   1_554 S
C83    C676    1.443   .     S
C85    C96     1.410   .     A
C86    C96     1.521   .     S
C86    H103    1.110   .     S
C86    H102    1.110   .     S
C86    H101    1.105   .     S
C87    H105    1.110   .     S
C87    H106    1.110   .     S
C87    H104    1.105   .     S
C88    H109    1.105   .     S
C88    H107    1.110   .     S
C88    H110    1.110   .     S
C89    O127    1.288   .     A
C89    O130    1.288   .     A
C90    H113    1.105   .     S
C90    H112    1.111   .     S
C90    H111    1.110   .     S
C91    O128    1.288   .     A
C91    O129    1.288   .     A
C92    H97     1.082   .     S
C92    N122    1.367   .     A
C92    C491    1.417   1_545 S
C93    H108    1.082   .     S
C93    N121    1.367   .     A
C93    C292    1.417   .     S
C94    N122    1.367   .     A
C94    H114    1.082   .     S
C94    C489    1.417   1_545 S
C95    H115    1.082   .     S
C95    N121    1.367   .     A
C95    C290    1.417   .     S
N121   Zn131   2.010   .     S
N122   Zn132   2.010   .     S
O123   Zn131   1.984   .     S
O124   Zn132   1.984   .     S
O125   Zn131   1.984   .     S
O126   Zn132   1.984   .     S
O127   Zn131   2.000   .     S
O128   Zn132   2.000   .     S
O129   Zn131   2.000   .     S
O130   Zn132   2.000   .     S
C133   O189    1.277   .     A
C133   C151    1.409   .     S
C133   O192    1.277   .     A
C134   C150    1.410   .     A
C134   C153    1.521   .     S
C134   C4      1.394   1_655 S
C135   C150    1.408   .     A
C135   C154    1.525   .     S
C135   C30     1.394   1_655 S
C136   C156    1.525   .     S
C136   C151    1.408   .     A
C137   C141    1.380   .     A
C137   H182    1.083   .     S
C137   C148    1.399   .     A
C138   C142    1.381   .     A
C138   H183    1.083   .     S
C138   C149    1.399   .     A
C139   C143    1.380   .     A
C139   H184    1.083   .     S
C139   C149    1.399   .     A
C140   C145    1.381   .     A
C140   H185    1.083   .     S
C140   C148    1.399   .     A
C141   C146    1.399   .     A
C141   H186    1.084   .     S
C142   H164    1.084   .     S
C142   C147    1.399   .     A
C143   C147    1.399   .     A
C143   H165    1.084   .     S
C144   O190    1.277   .     A
C144   O191    1.277   .     A
C144   C150    1.409   .     S
C145   H166    1.084   .     S
C145   C146    1.399   .     A
C146   C155    1.436   .     S
C147   C157    1.436   .     S
C148   C743    1.443   1_554 S
C149   C742    1.443   .     S
C151   C162    1.410   .     A
C152   C162    1.521   .     S
C152   H169    1.110   .     S
C152   H168    1.110   .     S
C152   H167    1.105   .     S
C153   H171    1.110   .     S
C153   H172    1.110   .     S
C153   H170    1.105   .     S
C154   H175    1.105   .     S
C154   H173    1.110   .     S
C154   H176    1.110   .     S
C155   O193    1.288   .     A
C155   O196    1.288   .     A
C156   H179    1.105   .     S
C156   H178    1.111   .     S
C156   H177    1.110   .     S
C157   O194    1.288   .     A
C157   O195    1.288   .     A
C158   H163    1.082   .     S
C158   N188    1.367   .     A
C158   C557    1.417   1_545 S
C159   H174    1.082   .     S
C159   N187    1.367   .     A
C159   C358    1.417   .     S
C160   N188    1.367   .     A
C160   H180    1.082   .     S
C160   C555    1.417   1_545 S
C161   H181    1.082   .     S
C161   N187    1.367   .     A
C161   C356    1.417   .     S
N187   Zn197   2.010   .     S
N188   Zn198   2.010   .     S
O189   Zn197   1.984   .     S
O190   Zn198   1.984   .     S
O191   Zn197   1.984   .     S
O192   Zn198   1.984   .     S
O193   Zn197   2.000   .     S
O194   Zn198   2.000   .     S
O195   Zn197   2.000   .     S
O196   Zn198   2.000   .     S
C199   O255    1.277   .     A
C199   C217    1.409   .     S
C199   O258    1.277   .     A
C200   C216    1.410   .     A
C200   C219    1.521   .     S
C200   C268    1.394   .     S
C201   C216    1.408   .     A
C201   C220    1.525   .     S
C201   C294    1.394   .     S
C202   C222    1.525   .     S
C202   C217    1.408   .     A
C202   C332    1.394   1_455 S
C203   C207    1.380   .     A
C203   H248    1.083   .     S
C203   C214    1.399   .     A
C204   C208    1.381   .     A
C204   H249    1.083   .     S
C204   C215    1.399   .     A
C205   C209    1.380   .     A
C205   H250    1.083   .     S
C205   C215    1.399   .     A
C206   C211    1.381   .     A
C206   H251    1.083   .     S
C206   C214    1.399   .     A
C207   C212    1.399   .     A
C207   H252    1.084   .     S
C208   H230    1.084   .     S
C208   C213    1.399   .     A
C209   C213    1.399   .     A
C209   H231    1.084   .     S
C210   O256    1.277   .     A
C210   O257    1.277   .     A
C210   C216    1.409   .     S
C211   H232    1.084   .     S
C211   C212    1.399   .     A
C212   C221    1.436   .     S
C213   C223    1.436   .     S
C214   C809    1.443   1_554 S
C215   C808    1.443   .     S
C217   C228    1.410   .     A
C218   C228    1.521   .     S
C218   H235    1.110   .     S
C218   H234    1.110   .     S
C218   H233    1.105   .     S
C219   H237    1.110   .     S
C219   H238    1.110   .     S
C219   H236    1.105   .     S
C220   H241    1.105   .     S
C220   H239    1.110   .     S
C220   H242    1.110   .     S
C221   O259    1.288   .     A
C221   O262    1.288   .     A
C222   H245    1.105   .     S
C222   H244    1.111   .     S
C222   H243    1.110   .     S
C223   O260    1.288   .     A
C223   O261    1.288   .     A
C224   H229    1.082   .     S
C224   N254    1.367   .     A
C225   H240    1.082   .     S
C225   N253    1.367   .     A
C225   C424    1.417   .     S
C226   N254    1.367   .     A
C226   H246    1.082   .     S
C227   H247    1.082   .     S
C227   N253    1.367   .     A
C227   C422    1.417   .     S
C228   C333    1.394   1_455 S
N253   Zn263   2.010   .     S
N254   Zn264   2.010   .     S
O255   Zn263   1.984   .     S
O256   Zn264   1.984   .     S
O257   Zn263   1.984   .     S
O258   Zn264   1.984   .     S
O259   Zn263   2.000   .     S
O260   Zn264   2.000   .     S
O261   Zn263   2.000   .     S
O262   Zn264   2.000   .     S
C265   O321    1.277   .     A
C265   C283    1.409   .     S
C265   O324    1.277   .     A
C266   C282    1.410   .     A
C266   C285    1.521   .     S
C266   C334    1.394   .     S
C267   C282    1.408   .     A
C267   C286    1.525   .     S
C267   C360    1.394   .     S
C268   C288    1.525   .     S
C268   C283    1.408   .     A
C269   C273    1.380   .     A
C269   H314    1.083   .     S
C269   C280    1.399   .     A
C270   C274    1.381   .     A
C270   H315    1.083   .     S
C270   C281    1.399   .     A
C271   C275    1.380   .     A
C271   H316    1.083   .     S
C271   C281    1.399   .     A
C272   C277    1.381   .     A
C272   H317    1.083   .     S
C272   C280    1.399   .     A
C273   C278    1.399   .     A
C273   H318    1.084   .     S
C274   H296    1.084   .     S
C274   C279    1.399   .     A
C275   C279    1.399   .     A
C275   H297    1.084   .     S
C276   O322    1.277   .     A
C276   O323    1.277   .     A
C276   C282    1.409   .     S
C277   H298    1.084   .     S
C277   C278    1.399   .     A
C278   C287    1.436   .     S
C279   C289    1.436   .     S
C280   C875    1.443   1_554 S
C281   C874    1.443   .     S
C283   C294    1.410   .     A
C284   C294    1.521   .     S
C284   H301    1.110   .     S
C284   H300    1.110   .     S
C284   H299    1.105   .     S
C285   H303    1.110   .     S
C285   H304    1.110   .     S
C285   H302    1.105   .     S
C286   H307    1.105   .     S
C286   H305    1.110   .     S
C286   H308    1.110   .     S
C287   O325    1.288   .     A
C287   O328    1.288   .     A
C288   H311    1.105   .     S
C288   H310    1.111   .     S
C288   H309    1.110   .     S
C289   O326    1.288   .     A
C289   O327    1.288   .     A
C290   H295    1.082   .     S
C290   N320    1.367   .     A
C291   H306    1.082   .     S
C291   N319    1.367   .     A
C291   C490    1.417   .     S
C292   N320    1.367   .     A
C292   H312    1.082   .     S
C293   H313    1.082   .     S
C293   N319    1.367   .     A
C293   C488    1.417   .     S
N319   Zn329   2.010   .     S
N320   Zn330   2.010   .     S
O321   Zn329   1.984   .     S
O322   Zn330   1.984   .     S
O323   Zn329   1.984   .     S
O324   Zn330   1.984   .     S
O325   Zn329   2.000   .     S
O326   Zn330   2.000   .     S
O327   Zn329   2.000   .     S
O328   Zn330   2.000   .     S
C331   O387    1.277   .     A
C331   C349    1.409   .     S
C331   O390    1.277   .     A
C332   C348    1.410   .     A
C332   C351    1.521   .     S
C332   C202    1.394   1_655 S
C333   C348    1.408   .     A
C333   C352    1.525   .     S
C333   C228    1.394   1_655 S
C334   C354    1.525   .     S
C334   C349    1.408   .     A
C335   C339    1.380   .     A
C335   H380    1.083   .     S
C335   C346    1.399   .     A
C336   C340    1.381   .     A
C336   H381    1.083   .     S
C336   C347    1.399   .     A
C337   C341    1.380   .     A
C337   H382    1.083   .     S
C337   C347    1.399   .     A
C338   C343    1.381   .     A
C338   H383    1.083   .     S
C338   C346    1.399   .     A
C339   C344    1.399   .     A
C339   H384    1.084   .     S
C340   H362    1.084   .     S
C340   C345    1.399   .     A
C341   C345    1.399   .     A
C341   H363    1.084   .     S
C342   O388    1.277   .     A
C342   O389    1.277   .     A
C342   C348    1.409   .     S
C343   H364    1.084   .     S
C343   C344    1.399   .     A
C344   C353    1.436   .     S
C345   C355    1.436   .     S
C346   C941    1.443   1_554 S
C347   C940    1.443   .     S
C349   C360    1.410   .     A
C350   C360    1.521   .     S
C350   H367    1.110   .     S
C350   H366    1.110   .     S
C350   H365    1.105   .     S
C351   H369    1.110   .     S
C351   H370    1.110   .     S
C351   H368    1.105   .     S
C352   H373    1.105   .     S
C352   H371    1.110   .     S
C352   H374    1.110   .     S
C353   O391    1.288   .     A
C353   O394    1.288   .     A
C354   H377    1.105   .     S
C354   H376    1.111   .     S
C354   H375    1.110   .     S
C355   O392    1.288   .     A
C355   O393    1.288   .     A
C356   H361    1.082   .     S
C356   N386    1.367   .     A
C357   H372    1.082   .     S
C357   N385    1.367   .     A
C357   C556    1.417   .     S
C358   N386    1.367   .     A
C358   H378    1.082   .     S
C359   H379    1.082   .     S
C359   N385    1.367   .     A
C359   C554    1.417   .     S
N385   Zn395   2.010   .     S
N386   Zn396   2.010   .     S
O387   Zn395   1.984   .     S
O388   Zn396   1.984   .     S
O389   Zn395   1.984   .     S
O390   Zn396   1.984   .     S
O391   Zn395   2.000   .     S
O392   Zn396   2.000   .     S
O393   Zn395   2.000   .     S
O394   Zn396   2.000   .     S
C397   O453    1.277   .     A
C397   C415    1.409   .     S
C397   O456    1.277   .     A
C398   C414    1.410   .     A
C398   C417    1.521   .     S
C398   C466    1.394   .     S
C399   C414    1.408   .     A
C399   C418    1.525   .     S
C399   C492    1.394   .     S
C400   C420    1.525   .     S
C400   C415    1.408   .     A
C400   C530    1.394   1_455 S
C401   C405    1.380   .     A
C401   H446    1.083   .     S
C401   C412    1.399   .     A
C402   C406    1.381   .     A
C402   H447    1.083   .     S
C402   C413    1.399   .     A
C403   C407    1.380   .     A
C403   H448    1.083   .     S
C403   C413    1.399   .     A
C404   C409    1.381   .     A
C404   H449    1.083   .     S
C404   C412    1.399   .     A
C405   C410    1.399   .     A
C405   H450    1.084   .     S
C406   H428    1.084   .     S
C406   C411    1.399   .     A
C407   C411    1.399   .     A
C407   H429    1.084   .     S
C408   O454    1.277   .     A
C408   O455    1.277   .     A
C408   C414    1.409   .     S
C409   H430    1.084   .     S
C409   C410    1.399   .     A
C410   C419    1.436   .     S
C411   C421    1.436   .     S
C412   C1007   1.443   1_554 S
C413   C1006   1.443   .     S
C415   C426    1.410   .     A
C416   C426    1.521   .     S
C416   H433    1.110   .     S
C416   H432    1.110   .     S
C416   H431    1.105   .     S
C417   H435    1.110   .     S
C417   H436    1.110   .     S
C417   H434    1.105   .     S
C418   H439    1.105   .     S
C418   H437    1.110   .     S
C418   H440    1.110   .     S
C419   O457    1.288   .     A
C419   O460    1.288   .     A
C420   H443    1.105   .     S
C420   H442    1.111   .     S
C420   H441    1.110   .     S
C421   O458    1.288   .     A
C421   O459    1.288   .     A
C422   H427    1.082   .     S
C422   N452    1.367   .     A
C423   H438    1.082   .     S
C423   N451    1.367   .     A
C423   C28     1.417   1_565 S
C424   N452    1.367   .     A
C424   H444    1.082   .     S
C425   H445    1.082   .     S
C425   N451    1.367   .     A
C425   C26     1.417   1_565 S
C426   C531    1.394   1_455 S
N451   Zn461   2.010   .     S
N452   Zn462   2.010   .     S
O453   Zn461   1.984   .     S
O454   Zn462   1.984   .     S
O455   Zn461   1.984   .     S
O456   Zn462   1.984   .     S
O457   Zn461   2.000   .     S
O458   Zn462   2.000   .     S
O459   Zn461   2.000   .     S
O460   Zn462   2.000   .     S
C463   O519    1.277   .     A
C463   C481    1.409   .     S
C463   O522    1.277   .     A
C464   C480    1.410   .     A
C464   C483    1.521   .     S
C464   C532    1.394   .     S
C465   C480    1.408   .     A
C465   C484    1.525   .     S
C465   C558    1.394   .     S
C466   C486    1.525   .     S
C466   C481    1.408   .     A
C467   C471    1.380   .     A
C467   H512    1.083   .     S
C467   C478    1.399   .     A
C468   C472    1.381   .     A
C468   H513    1.083   .     S
C468   C479    1.399   .     A
C469   C473    1.380   .     A
C469   H514    1.083   .     S
C469   C479    1.399   .     A
C470   C475    1.381   .     A
C470   H515    1.083   .     S
C470   C478    1.399   .     A
C471   C476    1.399   .     A
C471   H516    1.084   .     S
C472   H494    1.084   .     S
C472   C477    1.399   .     A
C473   C477    1.399   .     A
C473   H495    1.084   .     S
C474   O520    1.277   .     A
C474   O521    1.277   .     A
C474   C480    1.409   .     S
C475   H496    1.084   .     S
C475   C476    1.399   .     A
C476   C485    1.436   .     S
C477   C487    1.436   .     S
C478   C1073   1.443   1_554 S
C479   C1072   1.443   .     S
C481   C492    1.410   .     A
C482   C492    1.521   .     S
C482   H499    1.110   .     S
C482   H498    1.110   .     S
C482   H497    1.105   .     S
C483   H501    1.110   .     S
C483   H502    1.110   .     S
C483   H500    1.105   .     S
C484   H505    1.105   .     S
C484   H503    1.110   .     S
C484   H506    1.110   .     S
C485   O523    1.288   .     A
C485   O526    1.288   .     A
C486   H509    1.105   .     S
C486   H508    1.111   .     S
C486   H507    1.110   .     S
C487   O524    1.288   .     A
C487   O525    1.288   .     A
C488   H493    1.082   .     S
C488   N518    1.367   .     A
C489   H504    1.082   .     S
C489   N517    1.367   .     A
C489   C94     1.417   1_565 S
C490   N518    1.367   .     A
C490   H510    1.082   .     S
C491   H511    1.082   .     S
C491   N517    1.367   .     A
C491   C92     1.417   1_565 S
N517   Zn527   2.010   .     S
N518   Zn528   2.010   .     S
O519   Zn527   1.984   .     S
O520   Zn528   1.984   .     S
O521   Zn527   1.984   .     S
O522   Zn528   1.984   .     S
O523   Zn527   2.000   .     S
O524   Zn528   2.000   .     S
O525   Zn527   2.000   .     S
O526   Zn528   2.000   .     S
C529   O585    1.277   .     A
C529   C547    1.409   .     S
C529   O588    1.277   .     A
C530   C546    1.410   .     A
C530   C549    1.521   .     S
C530   C400    1.394   1_655 S
C531   C546    1.408   .     A
C531   C550    1.525   .     S
C531   C426    1.394   1_655 S
C532   C552    1.525   .     S
C532   C547    1.408   .     A
C533   C537    1.380   .     A
C533   H578    1.083   .     S
C533   C544    1.399   .     A
C534   C538    1.381   .     A
C534   H579    1.083   .     S
C534   C545    1.399   .     A
C535   C539    1.380   .     A
C535   H580    1.083   .     S
C535   C545    1.399   .     A
C536   C541    1.381   .     A
C536   H581    1.083   .     S
C536   C544    1.399   .     A
C537   C542    1.399   .     A
C537   H582    1.084   .     S
C538   H560    1.084   .     S
C538   C543    1.399   .     A
C539   C543    1.399   .     A
C539   H561    1.084   .     S
C540   O586    1.277   .     A
C540   O587    1.277   .     A
C540   C546    1.409   .     S
C541   H562    1.084   .     S
C541   C542    1.399   .     A
C542   C551    1.436   .     S
C543   C553    1.436   .     S
C544   C1139   1.443   1_554 S
C545   C1138   1.443   .     S
C547   C558    1.410   .     A
C548   C558    1.521   .     S
C548   H565    1.110   .     S
C548   H564    1.110   .     S
C548   H563    1.105   .     S
C549   H567    1.110   .     S
C549   H568    1.110   .     S
C549   H566    1.105   .     S
C550   H571    1.105   .     S
C550   H569    1.110   .     S
C550   H572    1.110   .     S
C551   O589    1.288   .     A
C551   O592    1.288   .     A
C552   H575    1.105   .     S
C552   H574    1.111   .     S
C552   H573    1.110   .     S
C553   O590    1.288   .     A
C553   O591    1.288   .     A
C554   H559    1.082   .     S
C554   N584    1.367   .     A
C555   H570    1.082   .     S
C555   N583    1.367   .     A
C555   C160    1.417   1_565 S
C556   N584    1.367   .     A
C556   H576    1.082   .     S
C557   H577    1.082   .     S
C557   N583    1.367   .     A
C557   C158    1.417   1_565 S
N583   Zn593   2.010   .     S
N584   Zn594   2.010   .     S
O585   Zn593   1.984   .     S
O586   Zn594   1.984   .     S
O587   Zn593   1.984   .     S
O588   Zn594   1.984   .     S
O589   Zn593   2.000   .     S
O590   Zn594   2.000   .     S
O591   Zn593   2.000   .     S
O592   Zn594   2.000   .     S
C595   O651    1.277   .     A
C595   C613    1.409   .     S
C595   O654    1.277   .     A
C596   C612    1.410   .     A
C596   C615    1.521   .     S
C596   C664    1.394   .     S
C597   C612    1.408   .     A
C597   C616    1.525   .     S
C597   C690    1.394   .     S
C598   C618    1.525   .     S
C598   C613    1.408   .     A
C598   C728    1.394   1_455 S
C599   C603    1.380   .     A
C599   H644    1.083   .     S
C599   C610    1.399   .     A
C600   C604    1.381   .     A
C600   H645    1.083   .     S
C600   C611    1.399   .     A
C601   C605    1.380   .     A
C601   H646    1.083   .     S
C601   C611    1.399   .     A
C602   C607    1.381   .     A
C602   H647    1.083   .     S
C602   C610    1.399   .     A
C603   C608    1.399   .     A
C603   H648    1.084   .     S
C604   H626    1.084   .     S
C604   C609    1.399   .     A
C605   C609    1.399   .     A
C605   H627    1.084   .     S
C606   O652    1.277   .     A
C606   O653    1.277   .     A
C606   C612    1.409   .     S
C607   H628    1.084   .     S
C607   C608    1.399   .     A
C608   C617    1.436   .     S
C609   C619    1.436   .     S
C611   C16     1.443   1_556 S
C613   C624    1.410   .     A
C614   C624    1.521   .     S
C614   H631    1.110   .     S
C614   H630    1.110   .     S
C614   H629    1.105   .     S
C615   H633    1.110   .     S
C615   H634    1.110   .     S
C615   H632    1.105   .     S
C616   H637    1.105   .     S
C616   H635    1.110   .     S
C616   H638    1.110   .     S
C617   O655    1.288   .     A
C617   O658    1.288   .     A
C618   H641    1.105   .     S
C618   H640    1.111   .     S
C618   H639    1.110   .     S
C619   O656    1.288   .     A
C619   O657    1.288   .     A
C620   H625    1.082   .     S
C620   N650    1.367   .     A
C620   C1019   1.417   1_545 S
C621   H636    1.082   .     S
C621   N649    1.367   .     A
C621   C820    1.417   .     S
C622   N650    1.367   .     A
C622   H642    1.082   .     S
C622   C1017   1.417   1_545 S
C623   H643    1.082   .     S
C623   N649    1.367   .     A
C623   C818    1.417   .     S
C624   C729    1.394   1_455 S
N649   Zn659   2.010   .     S
N650   Zn660   2.010   .     S
O651   Zn659   1.984   .     S
O652   Zn660   1.984   .     S
O653   Zn659   1.984   .     S
O654   Zn660   1.984   .     S
O655   Zn659   2.000   .     S
O656   Zn660   2.000   .     S
O657   Zn659   2.000   .     S
O658   Zn660   2.000   .     S
C661   O717    1.277   .     A
C661   C679    1.409   .     S
C661   O720    1.277   .     A
C662   C678    1.410   .     A
C662   C681    1.521   .     S
C662   C730    1.394   .     S
C663   C678    1.408   .     A
C663   C682    1.525   .     S
C663   C756    1.394   .     S
C664   C684    1.525   .     S
C664   C679    1.408   .     A
C665   C669    1.380   .     A
C665   H710    1.083   .     S
C665   C676    1.399   .     A
C666   C670    1.381   .     A
C666   H711    1.083   .     S
C666   C677    1.399   .     A
C667   C671    1.380   .     A
C667   H712    1.083   .     S
C667   C677    1.399   .     A
C668   C673    1.381   .     A
C668   H713    1.083   .     S
C668   C676    1.399   .     A
C669   C674    1.399   .     A
C669   H714    1.084   .     S
C670   H692    1.084   .     S
C670   C675    1.399   .     A
C671   C675    1.399   .     A
C671   H693    1.084   .     S
C672   O718    1.277   .     A
C672   O719    1.277   .     A
C672   C678    1.409   .     S
C673   H694    1.084   .     S
C673   C674    1.399   .     A
C674   C683    1.436   .     S
C675   C685    1.436   .     S
C677   C82     1.443   1_556 S
C679   C690    1.410   .     A
C680   C690    1.521   .     S
C680   H697    1.110   .     S
C680   H696    1.110   .     S
C680   H695    1.105   .     S
C681   H699    1.110   .     S
C681   H700    1.110   .     S
C681   H698    1.105   .     S
C682   H703    1.105   .     S
C682   H701    1.110   .     S
C682   H704    1.110   .     S
C683   O721    1.288   .     A
C683   O724    1.288   .     A
C684   H707    1.105   .     S
C684   H706    1.111   .     S
C684   H705    1.110   .     S
C685   O722    1.288   .     A
C685   O723    1.288   .     A
C686   H691    1.082   .     S
C686   N716    1.367   .     A
C686   C1085   1.417   1_545 S
C687   H702    1.082   .     S
C687   N715    1.367   .     A
C687   C886    1.417   .     S
C688   N716    1.367   .     A
C688   H708    1.082   .     S
C688   C1083   1.417   1_545 S
C689   H709    1.082   .     S
C689   N715    1.367   .     A
C689   C884    1.417   .     S
N715   Zn725   2.010   .     S
N716   Zn726   2.010   .     S
O717   Zn725   1.984   .     S
O718   Zn726   1.984   .     S
O719   Zn725   1.984   .     S
O720   Zn726   1.984   .     S
O721   Zn725   2.000   .     S
O722   Zn726   2.000   .     S
O723   Zn725   2.000   .     S
O724   Zn726   2.000   .     S
C727   O783    1.277   .     A
C727   C745    1.409   .     S
C727   O786    1.277   .     A
C728   C744    1.410   .     A
C728   C747    1.521   .     S
C728   C598    1.394   1_655 S
C729   C744    1.408   .     A
C729   C748    1.525   .     S
C729   C624    1.394   1_655 S
C730   C750    1.525   .     S
C730   C745    1.408   .     A
C731   C735    1.380   .     A
C731   H776    1.083   .     S
C731   C742    1.399   .     A
C732   C736    1.381   .     A
C732   H777    1.083   .     S
C732   C743    1.399   .     A
C733   C737    1.380   .     A
C733   H778    1.083   .     S
C733   C743    1.399   .     A
C734   C739    1.381   .     A
C734   H779    1.083   .     S
C734   C742    1.399   .     A
C735   C740    1.399   .     A
C735   H780    1.084   .     S
C736   H758    1.084   .     S
C736   C741    1.399   .     A
C737   C741    1.399   .     A
C737   H759    1.084   .     S
C738   O784    1.277   .     A
C738   O785    1.277   .     A
C738   C744    1.409   .     S
C739   H760    1.084   .     S
C739   C740    1.399   .     A
C740   C749    1.436   .     S
C741   C751    1.436   .     S
C743   C148    1.443   1_556 S
C745   C756    1.410   .     A
C746   C756    1.521   .     S
C746   H763    1.110   .     S
C746   H762    1.110   .     S
C746   H761    1.105   .     S
C747   H765    1.110   .     S
C747   H766    1.110   .     S
C747   H764    1.105   .     S
C748   H769    1.105   .     S
C748   H767    1.110   .     S
C748   H770    1.110   .     S
C749   O787    1.288   .     A
C749   O790    1.288   .     A
C750   H773    1.105   .     S
C750   H772    1.111   .     S
C750   H771    1.110   .     S
C751   O788    1.288   .     A
C751   O789    1.288   .     A
C752   H757    1.082   .     S
C752   N782    1.367   .     A
C752   C1151   1.417   1_545 S
C753   H768    1.082   .     S
C753   N781    1.367   .     A
C753   C952    1.417   .     S
C754   N782    1.367   .     A
C754   H774    1.082   .     S
C754   C1149   1.417   1_545 S
C755   H775    1.082   .     S
C755   N781    1.367   .     A
C755   C950    1.417   .     S
N781   Zn791   2.010   .     S
N782   Zn792   2.010   .     S
O783   Zn791   1.984   .     S
O784   Zn792   1.984   .     S
O785   Zn791   1.984   .     S
O786   Zn792   1.984   .     S
O787   Zn791   2.000   .     S
O788   Zn792   2.000   .     S
O789   Zn791   2.000   .     S
O790   Zn792   2.000   .     S
C793   O849    1.277   .     A
C793   C811    1.409   .     S
C793   O852    1.277   .     A
C794   C810    1.410   .     A
C794   C813    1.521   .     S
C794   C862    1.394   .     S
C795   C810    1.408   .     A
C795   C814    1.525   .     S
C795   C888    1.394   .     S
C796   C816    1.525   .     S
C796   C811    1.408   .     A
C796   C926    1.394   1_455 S
C797   C801    1.380   .     A
C797   H842    1.083   .     S
C797   C808    1.399   .     A
C798   C802    1.381   .     A
C798   H843    1.083   .     S
C798   C809    1.399   .     A
C799   C803    1.380   .     A
C799   H844    1.083   .     S
C799   C809    1.399   .     A
C800   C805    1.381   .     A
C800   H845    1.083   .     S
C800   C808    1.399   .     A
C801   C806    1.399   .     A
C801   H846    1.084   .     S
C802   H824    1.084   .     S
C802   C807    1.399   .     A
C803   C807    1.399   .     A
C803   H825    1.084   .     S
C804   O850    1.277   .     A
C804   O851    1.277   .     A
C804   C810    1.409   .     S
C805   H826    1.084   .     S
C805   C806    1.399   .     A
C806   C815    1.436   .     S
C807   C817    1.436   .     S
C809   C214    1.443   1_556 S
C811   C822    1.410   .     A
C812   C822    1.521   .     S
C812   H829    1.110   .     S
C812   H828    1.110   .     S
C812   H827    1.105   .     S
C813   H831    1.110   .     S
C813   H832    1.110   .     S
C813   H830    1.105   .     S
C814   H835    1.105   .     S
C814   H833    1.110   .     S
C814   H836    1.110   .     S
C815   O853    1.288   .     A
C815   O856    1.288   .     A
C816   H839    1.105   .     S
C816   H838    1.111   .     S
C816   H837    1.110   .     S
C817   O854    1.288   .     A
C817   O855    1.288   .     A
C818   H823    1.082   .     S
C818   N848    1.367   .     A
C819   H834    1.082   .     S
C819   N847    1.367   .     A
C819   C1018   1.417   .     S
C820   N848    1.367   .     A
C820   H840    1.082   .     S
C821   H841    1.082   .     S
C821   N847    1.367   .     A
C821   C1016   1.417   .     S
C822   C927    1.394   1_455 S
N847   Zn857   2.010   .     S
N848   Zn858   2.010   .     S
O849   Zn857   1.984   .     S
O850   Zn858   1.984   .     S
O851   Zn857   1.984   .     S
O852   Zn858   1.984   .     S
O853   Zn857   2.000   .     S
O854   Zn858   2.000   .     S
O855   Zn857   2.000   .     S
O856   Zn858   2.000   .     S
C859   O915    1.277   .     A
C859   C877    1.409   .     S
C859   O918    1.277   .     A
C860   C876    1.410   .     A
C860   C879    1.521   .     S
C860   C928    1.394   .     S
C861   C876    1.408   .     A
C861   C880    1.525   .     S
C861   C954    1.394   .     S
C862   C882    1.525   .     S
C862   C877    1.408   .     A
C863   C867    1.380   .     A
C863   H908    1.083   .     S
C863   C874    1.399   .     A
C864   C868    1.381   .     A
C864   H909    1.083   .     S
C864   C875    1.399   .     A
C865   C869    1.380   .     A
C865   H910    1.083   .     S
C865   C875    1.399   .     A
C866   C871    1.381   .     A
C866   H911    1.083   .     S
C866   C874    1.399   .     A
C867   C872    1.399   .     A
C867   H912    1.084   .     S
C868   H890    1.084   .     S
C868   C873    1.399   .     A
C869   C873    1.399   .     A
C869   H891    1.084   .     S
C870   O916    1.277   .     A
C870   O917    1.277   .     A
C870   C876    1.409   .     S
C871   H892    1.084   .     S
C871   C872    1.399   .     A
C872   C881    1.436   .     S
C873   C883    1.436   .     S
C875   C280    1.443   1_556 S
C877   C888    1.410   .     A
C878   C888    1.521   .     S
C878   H895    1.110   .     S
C878   H894    1.110   .     S
C878   H893    1.105   .     S
C879   H897    1.110   .     S
C879   H898    1.110   .     S
C879   H896    1.105   .     S
C880   H901    1.105   .     S
C880   H899    1.110   .     S
C880   H902    1.110   .     S
C881   O919    1.288   .     A
C881   O922    1.288   .     A
C882   H905    1.105   .     S
C882   H904    1.111   .     S
C882   H903    1.110   .     S
C883   O920    1.288   .     A
C883   O921    1.288   .     A
C884   H889    1.082   .     S
C884   N914    1.367   .     A
C885   H900    1.082   .     S
C885   N913    1.367   .     A
C885   C1084   1.417   .     S
C886   N914    1.367   .     A
C886   H906    1.082   .     S
C887   H907    1.082   .     S
C887   N913    1.367   .     A
C887   C1082   1.417   .     S
N913   Zn923   2.010   .     S
N914   Zn924   2.010   .     S
O915   Zn923   1.984   .     S
O916   Zn924   1.984   .     S
O917   Zn923   1.984   .     S
O918   Zn924   1.984   .     S
O919   Zn923   2.000   .     S
O920   Zn924   2.000   .     S
O921   Zn923   2.000   .     S
O922   Zn924   2.000   .     S
C925   O981    1.277   .     A
C925   C943    1.409   .     S
C925   O984    1.277   .     A
C926   C942    1.410   .     A
C926   C945    1.521   .     S
C926   C796    1.394   1_655 S
C927   C942    1.408   .     A
C927   C946    1.525   .     S
C927   C822    1.394   1_655 S
C928   C948    1.525   .     S
C928   C943    1.408   .     A
C929   C933    1.380   .     A
C929   H974    1.083   .     S
C929   C940    1.399   .     A
C930   C934    1.381   .     A
C930   H975    1.083   .     S
C930   C941    1.399   .     A
C931   C935    1.380   .     A
C931   H976    1.083   .     S
C931   C941    1.399   .     A
C932   C937    1.381   .     A
C932   H977    1.083   .     S
C932   C940    1.399   .     A
C933   C938    1.399   .     A
C933   H978    1.084   .     S
C934   H956    1.084   .     S
C934   C939    1.399   .     A
C935   C939    1.399   .     A
C935   H957    1.084   .     S
C936   O982    1.277   .     A
C936   O983    1.277   .     A
C936   C942    1.409   .     S
C937   H958    1.084   .     S
C937   C938    1.399   .     A
C938   C947    1.436   .     S
C939   C949    1.436   .     S
C941   C346    1.443   1_556 S
C943   C954    1.410   .     A
C944   C954    1.521   .     S
C944   H961    1.110   .     S
C944   H960    1.110   .     S
C944   H959    1.105   .     S
C945   H963    1.110   .     S
C945   H964    1.110   .     S
C945   H962    1.105   .     S
C946   H967    1.105   .     S
C946   H965    1.110   .     S
C946   H968    1.110   .     S
C947   O985    1.288   .     A
C947   O988    1.288   .     A
C948   H971    1.105   .     S
C948   H970    1.111   .     S
C948   H969    1.110   .     S
C949   O986    1.288   .     A
C949   O987    1.288   .     A
C950   H955    1.082   .     S
C950   N980    1.367   .     A
C951   H966    1.082   .     S
C951   N979    1.367   .     A
C951   C1150   1.417   .     S
C952   N980    1.367   .     A
C952   H972    1.082   .     S
C953   H973    1.082   .     S
C953   N979    1.367   .     A
C953   C1148   1.417   .     S
N979   Zn989   2.010   .     S
N980   Zn990   2.010   .     S
O981   Zn989   1.984   .     S
O982   Zn990   1.984   .     S
O983   Zn989   1.984   .     S
O984   Zn990   1.984   .     S
O985   Zn989   2.000   .     S
O986   Zn990   2.000   .     S
O987   Zn989   2.000   .     S
O988   Zn990   2.000   .     S
C991   O1047   1.277   .     A
C991   C1009   1.409   .     S
C991   O1050   1.277   .     A
C992   C1008   1.410   .     A
C992   C1011   1.521   .     S
C992   C1060   1.394   .     S
C993   C1008   1.408   .     A
C993   C1012   1.525   .     S
C993   C1086   1.394   .     S
C994   C1014   1.525   .     S
C994   C1009   1.408   .     A
C994   C1124   1.394   1_455 S
C995   C999    1.380   .     A
C995   H1040   1.083   .     S
C995   C1006   1.399   .     A
C996   C1000   1.381   .     A
C996   H1041   1.083   .     S
C996   C1007   1.399   .     A
C997   C1001   1.380   .     A
C997   H1042   1.083   .     S
C997   C1007   1.399   .     A
C998   C1003   1.381   .     A
C998   H1043   1.083   .     S
C998   C1006   1.399   .     A
C999   C1004   1.399   .     A
C999   H1044   1.084   .     S
C1000  H1022   1.084   .     S
C1000  C1005   1.399   .     A
C1001  C1005   1.399   .     A
C1001  H1023   1.084   .     S
C1002  O1048   1.277   .     A
C1002  O1049   1.277   .     A
C1002  C1008   1.409   .     S
C1003  H1024   1.084   .     S
C1003  C1004   1.399   .     A
C1004  C1013   1.436   .     S
C1005  C1015   1.436   .     S
C1007  C412    1.443   1_556 S
C1009  C1020   1.410   .     A
C1010  C1020   1.521   .     S
C1010  H1027   1.110   .     S
C1010  H1026   1.110   .     S
C1010  H1025   1.105   .     S
C1011  H1029   1.110   .     S
C1011  H1030   1.110   .     S
C1011  H1028   1.105   .     S
C1012  H1033   1.105   .     S
C1012  H1031   1.110   .     S
C1012  H1034   1.110   .     S
C1013  O1051   1.288   .     A
C1013  O1054   1.288   .     A
C1014  H1037   1.105   .     S
C1014  H1036   1.111   .     S
C1014  H1035   1.110   .     S
C1015  O1052   1.288   .     A
C1015  O1053   1.288   .     A
C1016  H1021   1.082   .     S
C1016  N1046   1.367   .     A
C1017  H1032   1.082   .     S
C1017  N1045   1.367   .     A
C1017  C622    1.417   1_565 S
C1018  N1046   1.367   .     A
C1018  H1038   1.082   .     S
C1019  H1039   1.082   .     S
C1019  N1045   1.367   .     A
C1019  C620    1.417   1_565 S
C1020  C1125   1.394   1_455 S
N1045  Zn1055  2.010   .     S
N1046  Zn1056  2.010   .     S
O1047  Zn1055  1.984   .     S
O1048  Zn1056  1.984   .     S
O1049  Zn1055  1.984   .     S
O1050  Zn1056  1.984   .     S
O1051  Zn1055  2.000   .     S
O1052  Zn1056  2.000   .     S
O1053  Zn1055  2.000   .     S
O1054  Zn1056  2.000   .     S
C1057  O1113   1.277   .     A
C1057  C1075   1.409   .     S
C1057  O1116   1.277   .     A
C1058  C1074   1.410   .     A
C1058  C1077   1.521   .     S
C1058  C1126   1.394   .     S
C1059  C1074   1.408   .     A
C1059  C1078   1.525   .     S
C1059  C1152   1.394   .     S
C1060  C1080   1.525   .     S
C1060  C1075   1.408   .     A
C1061  C1065   1.380   .     A
C1061  H1106   1.083   .     S
C1061  C1072   1.399   .     A
C1062  C1066   1.381   .     A
C1062  H1107   1.083   .     S
C1062  C1073   1.399   .     A
C1063  C1067   1.380   .     A
C1063  H1108   1.083   .     S
C1063  C1073   1.399   .     A
C1064  C1069   1.381   .     A
C1064  H1109   1.083   .     S
C1064  C1072   1.399   .     A
C1065  C1070   1.399   .     A
C1065  H1110   1.084   .     S
C1066  H1088   1.084   .     S
C1066  C1071   1.399   .     A
C1067  C1071   1.399   .     A
C1067  H1089   1.084   .     S
C1068  O1114   1.277   .     A
C1068  O1115   1.277   .     A
C1068  C1074   1.409   .     S
C1069  H1090   1.084   .     S
C1069  C1070   1.399   .     A
C1070  C1079   1.436   .     S
C1071  C1081   1.436   .     S
C1073  C478    1.443   1_556 S
C1075  C1086   1.410   .     A
C1076  C1086   1.521   .     S
C1076  H1093   1.110   .     S
C1076  H1092   1.110   .     S
C1076  H1091   1.105   .     S
C1077  H1095   1.110   .     S
C1077  H1096   1.110   .     S
C1077  H1094   1.105   .     S
C1078  H1099   1.105   .     S
C1078  H1097   1.110   .     S
C1078  H1100   1.110   .     S
C1079  O1117   1.288   .     A
C1079  O1120   1.288   .     A
C1080  H1103   1.105   .     S
C1080  H1102   1.111   .     S
C1080  H1101   1.110   .     S
C1081  O1118   1.288   .     A
C1081  O1119   1.288   .     A
C1082  H1087   1.082   .     S
C1082  N1112   1.367   .     A
C1083  H1098   1.082   .     S
C1083  N1111   1.367   .     A
C1083  C688    1.417   1_565 S
C1084  N1112   1.367   .     A
C1084  H1104   1.082   .     S
C1085  H1105   1.082   .     S
C1085  N1111   1.367   .     A
C1085  C686    1.417   1_565 S
N1111  Zn1121  2.010   .     S
N1112  Zn1122  2.010   .     S
O1113  Zn1121  1.984   .     S
O1114  Zn1122  1.984   .     S
O1115  Zn1121  1.984   .     S
O1116  Zn1122  1.984   .     S
O1117  Zn1121  2.000   .     S
O1118  Zn1122  2.000   .     S
O1119  Zn1121  2.000   .     S
O1120  Zn1122  2.000   .     S
C1123  O1179   1.277   .     A
C1123  C1141   1.409   .     S
C1123  O1182   1.277   .     A
C1124  C1140   1.410   .     A
C1124  C1143   1.521   .     S
C1124  C994    1.394   1_655 S
C1125  C1140   1.408   .     A
C1125  C1144   1.525   .     S
C1125  C1020   1.394   1_655 S
C1126  C1146   1.525   .     S
C1126  C1141   1.408   .     A
C1127  C1131   1.380   .     A
C1127  H1172   1.083   .     S
C1127  C1138   1.399   .     A
C1128  C1132   1.381   .     A
C1128  H1173   1.083   .     S
C1128  C1139   1.399   .     A
C1129  C1133   1.380   .     A
C1129  H1174   1.083   .     S
C1129  C1139   1.399   .     A
C1130  C1135   1.381   .     A
C1130  H1175   1.083   .     S
C1130  C1138   1.399   .     A
C1131  C1136   1.399   .     A
C1131  H1176   1.084   .     S
C1132  H1154   1.084   .     S
C1132  C1137   1.399   .     A
C1133  C1137   1.399   .     A
C1133  H1155   1.084   .     S
C1134  O1180   1.277   .     A
C1134  O1181   1.277   .     A
C1134  C1140   1.409   .     S
C1135  H1156   1.084   .     S
C1135  C1136   1.399   .     A
C1136  C1145   1.436   .     S
C1137  C1147   1.436   .     S
C1139  C544    1.443   1_556 S
C1141  C1152   1.410   .     A
C1142  C1152   1.521   .     S
C1142  H1159   1.110   .     S
C1142  H1158   1.110   .     S
C1142  H1157   1.105   .     S
C1143  H1161   1.110   .     S
C1143  H1162   1.110   .     S
C1143  H1160   1.105   .     S
C1144  H1165   1.105   .     S
C1144  H1163   1.110   .     S
C1144  H1166   1.110   .     S
C1145  O1183   1.288   .     A
C1145  O1186   1.288   .     A
C1146  H1169   1.105   .     S
C1146  H1168   1.111   .     S
C1146  H1167   1.110   .     S
C1147  O1184   1.288   .     A
C1147  O1185   1.288   .     A
C1148  H1153   1.082   .     S
C1148  N1178   1.367   .     A
C1149  H1164   1.082   .     S
C1149  N1177   1.367   .     A
C1149  C754    1.417   1_565 S
C1150  N1178   1.367   .     A
C1150  H1170   1.082   .     S
C1151  H1171   1.082   .     S
C1151  N1177   1.367   .     A
C1151  C752    1.417   1_565 S
N1177  Zn1187  2.010   .     S
N1178  Zn1188  2.010   .     S
O1179  Zn1187  1.984   .     S
O1180  Zn1188  1.984   .     S
O1181  Zn1187  1.984   .     S
O1182  Zn1188  1.984   .     S
O1183  Zn1187  2.000   .     S
O1184  Zn1188  2.000   .     S
O1185  Zn1187  2.000   .     S
O1186  Zn1188  2.000   .     S
