data_str_m3_o1_o16_pcu_sym.39
_audit_creation_date              2020-01-03
_audit_creation_method            'Materials Studio'
_symmetry_space_group_name_H-M    'P1'
_symmetry_Int_Tables_number       1
_symmetry_cell_setting            triclinic
loop_
_symmetry_equiv_pos_as_xyz
  x,y,z
_cell_length_a                    29.5385
_cell_length_b                    32.1019
_cell_length_c                    26.1568
_cell_angle_alpha                 89.9842
_cell_angle_beta                  71.7856
_cell_angle_gamma                 90.0318
loop_
_atom_site_label
_atom_site_type_symbol
_atom_site_fract_x
_atom_site_fract_y
_atom_site_fract_z
_atom_site_U_iso_or_equiv
_atom_site_adp_type
_atom_site_occupancy
C1     C     0.16665   0.24655   0.25033   0.00000  Uiso   1.00
C2     C     0.12804   0.19035   0.40604   0.00000  Uiso   1.00
C3     C     0.20525   0.31188   0.21405   0.00000  Uiso   1.00
C4     C     0.14138   0.17327   0.35087   0.00000  Uiso   1.00
C5     C     0.20433   0.02159   0.21244   0.00000  Uiso   1.00
C6     C     0.16660   0.04269   0.24983   0.00000  Uiso   1.00
C7     C     0.12915   0.02169   0.28785   0.00000  Uiso   1.00
C8     C     0.12882   0.31192   0.28758   0.00000  Uiso   1.00
C9     C     0.16685   0.29079   0.25064   0.00000  Uiso   1.00
C10    C     0.31305   0.13155   0.23674   0.00000  Uiso   1.00
C11    C     0.02763   0.13158   0.23669   0.00000  Uiso   1.00
C12    C     0.14945   0.20330   0.48767   0.00000  Uiso   1.00
C13    C     0.02033   0.20180   0.26310   0.00000  Uiso   1.00
C14    C     0.30582   0.20183   0.26295   0.00000  Uiso   1.00
C15    C     0.16669   0.08684   0.24977   0.00000  Uiso   1.00
C16    C     0.19254   0.16845   0.14822   0.00000  Uiso   1.00
C17    C     0.26523   0.16970   0.00278   0.00000  Uiso   1.00
C18    C     0.20749   0.17637   0.09068   0.00000  Uiso   1.00
C19    C     0.07996   0.19668   0.43468   0.00000  Uiso   1.00
C20    C     0.06651   0.20974   0.48850   0.00000  Uiso   1.00
C21    C     0.10019   0.20798   0.01594   0.00000  Uiso   1.00
C22    C     0.24119   0.04391   0.17140   0.00000  Uiso   1.00
C23    C     0.16311   0.20032   0.43101   0.00000  Uiso   1.00
C24    C     0.09193   0.04424   0.32812   0.00000  Uiso   1.00
C25    C     0.09037   0.28958   0.32640   0.00000  Uiso   1.00
C26    C     0.14495   0.22948   0.10178   0.00000  Uiso   1.00
C27    C     0.00444   0.25246   0.48712   0.00000  Uiso   1.00
C28    C     0.29532   0.27589   0.02460   0.00000  Uiso   1.00
C29    C     0.27120   0.30337   0.49315   0.00000  Uiso   1.00
C30    C     0.24574   0.28942   0.17874   0.00000  Uiso   1.00
C31    C     0.18566   0.19780   0.01278   0.00000  Uiso   1.00
C32    C     0.23263   0.18741   0.48016   0.00000  Uiso   1.00
C33    C     0.24633   0.19546   0.42534   0.00000  Uiso   1.00
C34    C     0.21186   0.20518   0.40175   0.00000  Uiso   1.00
C35    C     0.17708   0.19883   0.06863   0.00000  Uiso   1.00
C36    C     0.25163   0.16203   0.05770   0.00000  Uiso   1.00
H37    H     0.27595   0.14601   0.07456   0.00000  Uiso   1.00
H38    H     0.22395   0.21458   0.36010   0.00000  Uiso   1.00
H39    H     0.32648   0.23756   0.45475   0.00000  Uiso   1.00
H40    H     0.03291   0.27584   0.46886   0.00000  Uiso   1.00
H41    H     0.26876   0.25344   0.04920   0.00000  Uiso   1.00
H42    H     0.30806   0.29595   0.05187   0.00000  Uiso   1.00
H43    H     0.29701   0.32626   0.46825   0.00000  Uiso   1.00
H44    H     0.24125   0.32057   0.02169   0.00000  Uiso   1.00
H45    H     0.25677   0.28400   0.46664   0.00000  Uiso   1.00
H46    H     0.29802   0.10343   0.22604   0.00000  Uiso   1.00
H47    H     0.04861   0.10348   0.22590   0.00000  Uiso   1.00
H48    H     0.03540   0.22997   0.27355   0.00000  Uiso   1.00
H49    H     0.28505   0.23007   0.27318   0.00000  Uiso   1.00
H50    H     0.28333   0.19336   0.40060   0.00000  Uiso   1.00
H51    H     0.30041   0.16033   0.47773   0.00000  Uiso   1.00
H52    H     0.05298   0.19178   0.41524   0.00000  Uiso   1.00
H53    H     0.08637   0.21038   0.05900   0.00000  Uiso   1.00
N54    N     0.04760   0.16668   0.25001   0.00000  Uiso   1.00
N55    N     0.28573   0.16665   0.25000   0.00000  Uiso   1.00
N56    N     0.27046   0.06162   0.13868   0.00000  Uiso   1.00
N57    N     0.06234   0.06216   0.36014   0.00000  Uiso   1.00
N58    N     0.05961   0.27188   0.35715   0.00000  Uiso   1.00
N59    N     0.11962   0.25403   0.12837   0.00000  Uiso   1.00
N60    N     0.27808   0.27119   0.15151   0.00000  Uiso   1.00
O61    O     0.12846   0.22775   0.25000   0.00000  Uiso   1.00
O62    O     0.20490   0.22774   0.25000   0.00000  Uiso   1.00
O63    O     0.10947   0.16666   0.32681   0.00000  Uiso   1.00
O64    O     0.18591   0.16665   0.32681   0.00000  Uiso   1.00
O65    O     0.12843   0.10559   0.24999   0.00000  Uiso   1.00
O66    O     0.20488   0.10558   0.24999   0.00000  Uiso   1.00
O67    O     0.14742   0.16668   0.17319   0.00000  Uiso   1.00
O68    O     0.22387   0.16667   0.17319   0.00000  Uiso   1.00
O69    O     0.02016   0.22154   0.01647   0.00000  Uiso   1.00
Zn70   Zn    0.11562   0.16667   0.25000   0.00000  Uiso   1.00
Zn71   Zn    0.21771   0.16666   0.25000   0.00000  Uiso   1.00
C72    C     0.49998   0.24655   0.25033   0.00000  Uiso   1.00
C73    C     0.46137   0.19035   0.40604   0.00000  Uiso   1.00
C74    C     0.53858   0.31188   0.21405   0.00000  Uiso   1.00
C75    C     0.47472   0.17327   0.35087   0.00000  Uiso   1.00
C76    C     0.53766   0.02159   0.21244   0.00000  Uiso   1.00
C77    C     0.49994   0.04269   0.24983   0.00000  Uiso   1.00
C78    C     0.46249   0.02169   0.28785   0.00000  Uiso   1.00
C79    C     0.46216   0.31192   0.28758   0.00000  Uiso   1.00
C80    C     0.50018   0.29079   0.25064   0.00000  Uiso   1.00
C81    C     0.64638   0.13155   0.23674   0.00000  Uiso   1.00
C82    C     0.36096   0.13158   0.23669   0.00000  Uiso   1.00
C83    C     0.48278   0.20330   0.48767   0.00000  Uiso   1.00
C84    C     0.35366   0.20180   0.26310   0.00000  Uiso   1.00
C85    C     0.63916   0.20183   0.26295   0.00000  Uiso   1.00
C86    C     0.50002   0.08684   0.24977   0.00000  Uiso   1.00
C87    C     0.52587   0.16845   0.14822   0.00000  Uiso   1.00
C88    C     0.59856   0.16970   0.00278   0.00000  Uiso   1.00
C89    C     0.54082   0.17637   0.09068   0.00000  Uiso   1.00
C90    C     0.41329   0.19668   0.43468   0.00000  Uiso   1.00
C91    C     0.39985   0.20974   0.48850   0.00000  Uiso   1.00
C92    C     0.43353   0.20798   0.01594   0.00000  Uiso   1.00
C93    C     0.57452   0.04391   0.17140   0.00000  Uiso   1.00
C94    C     0.49644   0.20032   0.43101   0.00000  Uiso   1.00
C95    C     0.42526   0.04424   0.32812   0.00000  Uiso   1.00
C96    C     0.42370   0.28958   0.32640   0.00000  Uiso   1.00
C97    C     0.47828   0.22948   0.10178   0.00000  Uiso   1.00
C98    C     0.33777   0.25246   0.48712   0.00000  Uiso   1.00
C99    C     0.62865   0.27589   0.02460   0.00000  Uiso   1.00
C100   C     0.60454   0.30337   0.49315   0.00000  Uiso   1.00
C101   C     0.57907   0.28942   0.17874   0.00000  Uiso   1.00
C102   C     0.51899   0.19780   0.01278   0.00000  Uiso   1.00
C103   C     0.56596   0.18741   0.48016   0.00000  Uiso   1.00
C104   C     0.57966   0.19546   0.42534   0.00000  Uiso   1.00
C105   C     0.54520   0.20518   0.40175   0.00000  Uiso   1.00
C106   C     0.51042   0.19883   0.06863   0.00000  Uiso   1.00
C107   C     0.58497   0.16203   0.05770   0.00000  Uiso   1.00
H108   H     0.60929   0.14601   0.07456   0.00000  Uiso   1.00
H109   H     0.55728   0.21458   0.36010   0.00000  Uiso   1.00
H110   H     0.65982   0.23756   0.45475   0.00000  Uiso   1.00
H111   H     0.36625   0.27584   0.46886   0.00000  Uiso   1.00
H112   H     0.60209   0.25344   0.04920   0.00000  Uiso   1.00
H113   H     0.64139   0.29595   0.05187   0.00000  Uiso   1.00
H114   H     0.63035   0.32626   0.46825   0.00000  Uiso   1.00
H115   H     0.57458   0.32057   0.02169   0.00000  Uiso   1.00
H116   H     0.59010   0.28400   0.46664   0.00000  Uiso   1.00
H117   H     0.63135   0.10343   0.22604   0.00000  Uiso   1.00
H118   H     0.38194   0.10348   0.22590   0.00000  Uiso   1.00
H119   H     0.36874   0.22997   0.27355   0.00000  Uiso   1.00
H120   H     0.61839   0.23007   0.27318   0.00000  Uiso   1.00
H121   H     0.61666   0.19336   0.40060   0.00000  Uiso   1.00
H122   H     0.63375   0.16033   0.47773   0.00000  Uiso   1.00
H123   H     0.38631   0.19178   0.41524   0.00000  Uiso   1.00
H124   H     0.41970   0.21038   0.05900   0.00000  Uiso   1.00
N125   N     0.38093   0.16668   0.25001   0.00000  Uiso   1.00
N126   N     0.61906   0.16665   0.25000   0.00000  Uiso   1.00
N127   N     0.60379   0.06162   0.13868   0.00000  Uiso   1.00
N128   N     0.39567   0.06216   0.36014   0.00000  Uiso   1.00
N129   N     0.39294   0.27188   0.35715   0.00000  Uiso   1.00
N130   N     0.45295   0.25403   0.12837   0.00000  Uiso   1.00
N131   N     0.61142   0.27119   0.15151   0.00000  Uiso   1.00
O132   O     0.46179   0.22775   0.25000   0.00000  Uiso   1.00
O133   O     0.53823   0.22774   0.25000   0.00000  Uiso   1.00
O134   O     0.44280   0.16666   0.32681   0.00000  Uiso   1.00
O135   O     0.51924   0.16665   0.32681   0.00000  Uiso   1.00
O136   O     0.46177   0.10559   0.24999   0.00000  Uiso   1.00
O137   O     0.53821   0.10558   0.24999   0.00000  Uiso   1.00
O138   O     0.48076   0.16668   0.17319   0.00000  Uiso   1.00
O139   O     0.55720   0.16667   0.17319   0.00000  Uiso   1.00
O140   O     0.35349   0.22154   0.01647   0.00000  Uiso   1.00
Zn141  Zn    0.44896   0.16667   0.25000   0.00000  Uiso   1.00
Zn142  Zn    0.55104   0.16666   0.25000   0.00000  Uiso   1.00
C143   C     0.83332   0.24655   0.25033   0.00000  Uiso   1.00
C144   C     0.79471   0.19035   0.40604   0.00000  Uiso   1.00
C145   C     0.87192   0.31188   0.21405   0.00000  Uiso   1.00
C146   C     0.80805   0.17327   0.35087   0.00000  Uiso   1.00
C147   C     0.87100   0.02159   0.21244   0.00000  Uiso   1.00
C148   C     0.83327   0.04269   0.24983   0.00000  Uiso   1.00
C149   C     0.79582   0.02169   0.28785   0.00000  Uiso   1.00
C150   C     0.79549   0.31192   0.28758   0.00000  Uiso   1.00
C151   C     0.83352   0.29079   0.25064   0.00000  Uiso   1.00
C152   C     0.97971   0.13155   0.23674   0.00000  Uiso   1.00
C153   C     0.69429   0.13158   0.23669   0.00000  Uiso   1.00
C154   C     0.81611   0.20330   0.48767   0.00000  Uiso   1.00
C155   C     0.68700   0.20180   0.26310   0.00000  Uiso   1.00
C156   C     0.97249   0.20183   0.26295   0.00000  Uiso   1.00
C157   C     0.83336   0.08684   0.24977   0.00000  Uiso   1.00
C158   C     0.85920   0.16845   0.14822   0.00000  Uiso   1.00
C159   C     0.93190   0.16970   0.00278   0.00000  Uiso   1.00
C160   C     0.87416   0.17637   0.09068   0.00000  Uiso   1.00
C161   C     0.74662   0.19668   0.43468   0.00000  Uiso   1.00
C162   C     0.73318   0.20974   0.48850   0.00000  Uiso   1.00
C163   C     0.76686   0.20798   0.01594   0.00000  Uiso   1.00
C164   C     0.90785   0.04391   0.17140   0.00000  Uiso   1.00
C165   C     0.82977   0.20032   0.43101   0.00000  Uiso   1.00
C166   C     0.75859   0.04424   0.32812   0.00000  Uiso   1.00
C167   C     0.75703   0.28958   0.32640   0.00000  Uiso   1.00
C168   C     0.81162   0.22948   0.10178   0.00000  Uiso   1.00
C169   C     0.67111   0.25246   0.48712   0.00000  Uiso   1.00
C170   C     0.96199   0.27589   0.02460   0.00000  Uiso   1.00
C171   C     0.93787   0.30337   0.49315   0.00000  Uiso   1.00
C172   C     0.91241   0.28942   0.17874   0.00000  Uiso   1.00
C173   C     0.85232   0.19780   0.01278   0.00000  Uiso   1.00
C174   C     0.89930   0.18741   0.48016   0.00000  Uiso   1.00
C175   C     0.91300   0.19546   0.42534   0.00000  Uiso   1.00
C176   C     0.87853   0.20518   0.40175   0.00000  Uiso   1.00
C177   C     0.84375   0.19883   0.06863   0.00000  Uiso   1.00
C178   C     0.91830   0.16203   0.05770   0.00000  Uiso   1.00
H179   H     0.94262   0.14601   0.07456   0.00000  Uiso   1.00
H180   H     0.89061   0.21458   0.36010   0.00000  Uiso   1.00
H181   H     0.99315   0.23756   0.45475   0.00000  Uiso   1.00
H182   H     0.69958   0.27584   0.46886   0.00000  Uiso   1.00
H183   H     0.93542   0.25344   0.04920   0.00000  Uiso   1.00
H184   H     0.97473   0.29595   0.05187   0.00000  Uiso   1.00
H185   H     0.96368   0.32626   0.46825   0.00000  Uiso   1.00
H186   H     0.90792   0.32057   0.02169   0.00000  Uiso   1.00
H187   H     0.92343   0.28400   0.46664   0.00000  Uiso   1.00
H188   H     0.96469   0.10343   0.22604   0.00000  Uiso   1.00
H189   H     0.71527   0.10348   0.22590   0.00000  Uiso   1.00
H190   H     0.70207   0.22997   0.27355   0.00000  Uiso   1.00
H191   H     0.95172   0.23007   0.27318   0.00000  Uiso   1.00
H192   H     0.94999   0.19336   0.40060   0.00000  Uiso   1.00
H193   H     0.96708   0.16033   0.47773   0.00000  Uiso   1.00
H194   H     0.71965   0.19178   0.41524   0.00000  Uiso   1.00
H195   H     0.75304   0.21038   0.05900   0.00000  Uiso   1.00
N196   N     0.71426   0.16668   0.25001   0.00000  Uiso   1.00
N197   N     0.95239   0.16665   0.25000   0.00000  Uiso   1.00
N198   N     0.93712   0.06162   0.13868   0.00000  Uiso   1.00
N199   N     0.72900   0.06216   0.36014   0.00000  Uiso   1.00
N200   N     0.72628   0.27188   0.35715   0.00000  Uiso   1.00
N201   N     0.78628   0.25403   0.12837   0.00000  Uiso   1.00
N202   N     0.94475   0.27119   0.15151   0.00000  Uiso   1.00
O203   O     0.79512   0.22775   0.25000   0.00000  Uiso   1.00
O204   O     0.87157   0.22774   0.25000   0.00000  Uiso   1.00
O205   O     0.77613   0.16666   0.32681   0.00000  Uiso   1.00
O206   O     0.85258   0.16665   0.32681   0.00000  Uiso   1.00
O207   O     0.79510   0.10559   0.24999   0.00000  Uiso   1.00
O208   O     0.87154   0.10558   0.24999   0.00000  Uiso   1.00
O209   O     0.81409   0.16668   0.17319   0.00000  Uiso   1.00
O210   O     0.89053   0.16667   0.17319   0.00000  Uiso   1.00
O211   O     0.68683   0.22154   0.01647   0.00000  Uiso   1.00
Zn212  Zn    0.78229   0.16667   0.25000   0.00000  Uiso   1.00
Zn213  Zn    0.88438   0.16666   0.25000   0.00000  Uiso   1.00
C214   C     0.16665   0.57989   0.25033   0.00000  Uiso   1.00
C215   C     0.12804   0.52368   0.40604   0.00000  Uiso   1.00
C216   C     0.20525   0.64521   0.21405   0.00000  Uiso   1.00
C217   C     0.14138   0.50660   0.35087   0.00000  Uiso   1.00
C218   C     0.20433   0.35493   0.21244   0.00000  Uiso   1.00
C219   C     0.16660   0.37602   0.24983   0.00000  Uiso   1.00
C220   C     0.12915   0.35503   0.28785   0.00000  Uiso   1.00
C221   C     0.12882   0.64526   0.28758   0.00000  Uiso   1.00
C222   C     0.16685   0.62412   0.25064   0.00000  Uiso   1.00
C223   C     0.31305   0.46489   0.23674   0.00000  Uiso   1.00
C224   C     0.02763   0.46491   0.23669   0.00000  Uiso   1.00
C225   C     0.14945   0.53664   0.48767   0.00000  Uiso   1.00
C226   C     0.02033   0.53514   0.26310   0.00000  Uiso   1.00
C227   C     0.30582   0.53516   0.26295   0.00000  Uiso   1.00
C228   C     0.16669   0.42017   0.24977   0.00000  Uiso   1.00
C229   C     0.19254   0.50179   0.14822   0.00000  Uiso   1.00
C230   C     0.26523   0.50303   0.00278   0.00000  Uiso   1.00
C231   C     0.20749   0.50970   0.09068   0.00000  Uiso   1.00
C232   C     0.07996   0.53001   0.43468   0.00000  Uiso   1.00
C233   C     0.06651   0.54307   0.48850   0.00000  Uiso   1.00
C234   C     0.10019   0.54131   0.01594   0.00000  Uiso   1.00
C235   C     0.24119   0.37724   0.17140   0.00000  Uiso   1.00
C236   C     0.16311   0.53365   0.43101   0.00000  Uiso   1.00
C237   C     0.09193   0.37757   0.32812   0.00000  Uiso   1.00
C238   C     0.09037   0.62292   0.32640   0.00000  Uiso   1.00
C239   C     0.14495   0.56281   0.10178   0.00000  Uiso   1.00
C240   C     0.00444   0.58579   0.48712   0.00000  Uiso   1.00
C241   C     0.29532   0.60923   0.02460   0.00000  Uiso   1.00
C242   C     0.27120   0.63670   0.49315   0.00000  Uiso   1.00
C243   C     0.24574   0.62275   0.17874   0.00000  Uiso   1.00
C244   C     0.18566   0.53113   0.01278   0.00000  Uiso   1.00
C245   C     0.23263   0.52075   0.48016   0.00000  Uiso   1.00
C246   C     0.24633   0.52880   0.42534   0.00000  Uiso   1.00
C247   C     0.21186   0.53851   0.40175   0.00000  Uiso   1.00
C248   C     0.17708   0.53216   0.06863   0.00000  Uiso   1.00
C249   C     0.25163   0.49537   0.05770   0.00000  Uiso   1.00
H250   H     0.27595   0.47935   0.07456   0.00000  Uiso   1.00
H251   H     0.22395   0.54791   0.36010   0.00000  Uiso   1.00
H252   H     0.32648   0.57090   0.45475   0.00000  Uiso   1.00
H253   H     0.03291   0.60917   0.46886   0.00000  Uiso   1.00
H254   H     0.26876   0.58678   0.04920   0.00000  Uiso   1.00
H255   H     0.30806   0.62928   0.05187   0.00000  Uiso   1.00
H256   H     0.29701   0.65959   0.46825   0.00000  Uiso   1.00
H257   H     0.24125   0.65390   0.02169   0.00000  Uiso   1.00
H258   H     0.25677   0.61733   0.46664   0.00000  Uiso   1.00
H259   H     0.29802   0.43676   0.22604   0.00000  Uiso   1.00
H260   H     0.04861   0.43681   0.22590   0.00000  Uiso   1.00
H261   H     0.03540   0.56331   0.27355   0.00000  Uiso   1.00
H262   H     0.28505   0.56340   0.27318   0.00000  Uiso   1.00
H263   H     0.28333   0.52669   0.40060   0.00000  Uiso   1.00
H264   H     0.30041   0.49367   0.47773   0.00000  Uiso   1.00
H265   H     0.05298   0.52511   0.41524   0.00000  Uiso   1.00
H266   H     0.08637   0.54371   0.05900   0.00000  Uiso   1.00
N267   N     0.04760   0.50001   0.25001   0.00000  Uiso   1.00
N268   N     0.28573   0.49998   0.25000   0.00000  Uiso   1.00
N269   N     0.27046   0.39495   0.13868   0.00000  Uiso   1.00
N270   N     0.06234   0.39550   0.36014   0.00000  Uiso   1.00
N271   N     0.05961   0.60521   0.35715   0.00000  Uiso   1.00
N272   N     0.11962   0.58736   0.12837   0.00000  Uiso   1.00
N273   N     0.27808   0.60452   0.15151   0.00000  Uiso   1.00
O274   O     0.12846   0.56108   0.25000   0.00000  Uiso   1.00
O275   O     0.20490   0.56107   0.25000   0.00000  Uiso   1.00
O276   O     0.10947   0.50000   0.32681   0.00000  Uiso   1.00
O277   O     0.18591   0.49999   0.32681   0.00000  Uiso   1.00
O278   O     0.12843   0.43893   0.24999   0.00000  Uiso   1.00
O279   O     0.20488   0.43892   0.24999   0.00000  Uiso   1.00
O280   O     0.14742   0.50001   0.17319   0.00000  Uiso   1.00
O281   O     0.22387   0.50000   0.17319   0.00000  Uiso   1.00
O282   O     0.02016   0.55488   0.01647   0.00000  Uiso   1.00
Zn283  Zn    0.11562   0.50001   0.25000   0.00000  Uiso   1.00
Zn284  Zn    0.21771   0.49999   0.25000   0.00000  Uiso   1.00
C285   C     0.49998   0.57989   0.25033   0.00000  Uiso   1.00
C286   C     0.46137   0.52368   0.40604   0.00000  Uiso   1.00
C287   C     0.53858   0.64521   0.21405   0.00000  Uiso   1.00
C288   C     0.47472   0.50660   0.35087   0.00000  Uiso   1.00
C289   C     0.53766   0.35493   0.21244   0.00000  Uiso   1.00
C290   C     0.49994   0.37602   0.24983   0.00000  Uiso   1.00
C291   C     0.46249   0.35503   0.28785   0.00000  Uiso   1.00
C292   C     0.46216   0.64526   0.28758   0.00000  Uiso   1.00
C293   C     0.50018   0.62412   0.25064   0.00000  Uiso   1.00
C294   C     0.64638   0.46489   0.23674   0.00000  Uiso   1.00
C295   C     0.36096   0.46491   0.23669   0.00000  Uiso   1.00
C296   C     0.48278   0.53664   0.48767   0.00000  Uiso   1.00
C297   C     0.35366   0.53514   0.26310   0.00000  Uiso   1.00
C298   C     0.63916   0.53516   0.26295   0.00000  Uiso   1.00
C299   C     0.50002   0.42017   0.24977   0.00000  Uiso   1.00
C300   C     0.52587   0.50179   0.14822   0.00000  Uiso   1.00
C301   C     0.59856   0.50303   0.00278   0.00000  Uiso   1.00
C302   C     0.54082   0.50970   0.09068   0.00000  Uiso   1.00
C303   C     0.41329   0.53001   0.43468   0.00000  Uiso   1.00
C304   C     0.39985   0.54307   0.48850   0.00000  Uiso   1.00
C305   C     0.43353   0.54131   0.01594   0.00000  Uiso   1.00
C306   C     0.57452   0.37724   0.17140   0.00000  Uiso   1.00
C307   C     0.49644   0.53365   0.43101   0.00000  Uiso   1.00
C308   C     0.42526   0.37757   0.32812   0.00000  Uiso   1.00
C309   C     0.42370   0.62292   0.32640   0.00000  Uiso   1.00
C310   C     0.47828   0.56281   0.10178   0.00000  Uiso   1.00
C311   C     0.33777   0.58579   0.48712   0.00000  Uiso   1.00
C312   C     0.62865   0.60923   0.02460   0.00000  Uiso   1.00
C313   C     0.60454   0.63670   0.49315   0.00000  Uiso   1.00
C314   C     0.57907   0.62275   0.17874   0.00000  Uiso   1.00
C315   C     0.51899   0.53113   0.01278   0.00000  Uiso   1.00
C316   C     0.56596   0.52075   0.48016   0.00000  Uiso   1.00
C317   C     0.57966   0.52880   0.42534   0.00000  Uiso   1.00
C318   C     0.54520   0.53851   0.40175   0.00000  Uiso   1.00
C319   C     0.51042   0.53216   0.06863   0.00000  Uiso   1.00
C320   C     0.58497   0.49537   0.05770   0.00000  Uiso   1.00
H321   H     0.60929   0.47935   0.07456   0.00000  Uiso   1.00
H322   H     0.55728   0.54791   0.36010   0.00000  Uiso   1.00
H323   H     0.65982   0.57090   0.45475   0.00000  Uiso   1.00
H324   H     0.36625   0.60917   0.46886   0.00000  Uiso   1.00
H325   H     0.60209   0.58678   0.04920   0.00000  Uiso   1.00
H326   H     0.64139   0.62928   0.05187   0.00000  Uiso   1.00
H327   H     0.63035   0.65959   0.46825   0.00000  Uiso   1.00
H328   H     0.57458   0.65390   0.02169   0.00000  Uiso   1.00
H329   H     0.59010   0.61733   0.46664   0.00000  Uiso   1.00
H330   H     0.63135   0.43676   0.22604   0.00000  Uiso   1.00
H331   H     0.38194   0.43681   0.22590   0.00000  Uiso   1.00
H332   H     0.36874   0.56331   0.27355   0.00000  Uiso   1.00
H333   H     0.61839   0.56340   0.27318   0.00000  Uiso   1.00
H334   H     0.61666   0.52669   0.40060   0.00000  Uiso   1.00
H335   H     0.63375   0.49367   0.47773   0.00000  Uiso   1.00
H336   H     0.38631   0.52511   0.41524   0.00000  Uiso   1.00
H337   H     0.41970   0.54371   0.05900   0.00000  Uiso   1.00
N338   N     0.38093   0.50001   0.25001   0.00000  Uiso   1.00
N339   N     0.61906   0.49998   0.25000   0.00000  Uiso   1.00
N340   N     0.60379   0.39495   0.13868   0.00000  Uiso   1.00
N341   N     0.39567   0.39550   0.36014   0.00000  Uiso   1.00
N342   N     0.39294   0.60521   0.35715   0.00000  Uiso   1.00
N343   N     0.45295   0.58736   0.12837   0.00000  Uiso   1.00
N344   N     0.61142   0.60452   0.15151   0.00000  Uiso   1.00
O345   O     0.46179   0.56108   0.25000   0.00000  Uiso   1.00
O346   O     0.53823   0.56107   0.25000   0.00000  Uiso   1.00
O347   O     0.44280   0.50000   0.32681   0.00000  Uiso   1.00
O348   O     0.51924   0.49999   0.32681   0.00000  Uiso   1.00
O349   O     0.46177   0.43893   0.24999   0.00000  Uiso   1.00
O350   O     0.53821   0.43892   0.24999   0.00000  Uiso   1.00
O351   O     0.48076   0.50001   0.17319   0.00000  Uiso   1.00
O352   O     0.55720   0.50000   0.17319   0.00000  Uiso   1.00
O353   O     0.35349   0.55488   0.01647   0.00000  Uiso   1.00
Zn354  Zn    0.44896   0.50001   0.25000   0.00000  Uiso   1.00
Zn355  Zn    0.55104   0.49999   0.25000   0.00000  Uiso   1.00
C356   C     0.83332   0.57989   0.25033   0.00000  Uiso   1.00
C357   C     0.79471   0.52368   0.40604   0.00000  Uiso   1.00
C358   C     0.87192   0.64521   0.21405   0.00000  Uiso   1.00
C359   C     0.80805   0.50660   0.35087   0.00000  Uiso   1.00
C360   C     0.87100   0.35493   0.21244   0.00000  Uiso   1.00
C361   C     0.83327   0.37602   0.24983   0.00000  Uiso   1.00
C362   C     0.79582   0.35503   0.28785   0.00000  Uiso   1.00
C363   C     0.79549   0.64526   0.28758   0.00000  Uiso   1.00
C364   C     0.83352   0.62412   0.25064   0.00000  Uiso   1.00
C365   C     0.97971   0.46489   0.23674   0.00000  Uiso   1.00
C366   C     0.69429   0.46491   0.23669   0.00000  Uiso   1.00
C367   C     0.81611   0.53664   0.48767   0.00000  Uiso   1.00
C368   C     0.68700   0.53514   0.26310   0.00000  Uiso   1.00
C369   C     0.97249   0.53516   0.26295   0.00000  Uiso   1.00
C370   C     0.83336   0.42017   0.24977   0.00000  Uiso   1.00
C371   C     0.85920   0.50179   0.14822   0.00000  Uiso   1.00
C372   C     0.93190   0.50303   0.00278   0.00000  Uiso   1.00
C373   C     0.87416   0.50970   0.09068   0.00000  Uiso   1.00
C374   C     0.74662   0.53001   0.43468   0.00000  Uiso   1.00
C375   C     0.73318   0.54307   0.48850   0.00000  Uiso   1.00
C376   C     0.76686   0.54131   0.01594   0.00000  Uiso   1.00
C377   C     0.90785   0.37724   0.17140   0.00000  Uiso   1.00
C378   C     0.82977   0.53365   0.43101   0.00000  Uiso   1.00
C379   C     0.75859   0.37757   0.32812   0.00000  Uiso   1.00
C380   C     0.75703   0.62292   0.32640   0.00000  Uiso   1.00
C381   C     0.81162   0.56281   0.10178   0.00000  Uiso   1.00
C382   C     0.67111   0.58579   0.48712   0.00000  Uiso   1.00
C383   C     0.96199   0.60923   0.02460   0.00000  Uiso   1.00
C384   C     0.93787   0.63670   0.49315   0.00000  Uiso   1.00
C385   C     0.91241   0.62275   0.17874   0.00000  Uiso   1.00
C386   C     0.85232   0.53113   0.01278   0.00000  Uiso   1.00
C387   C     0.89930   0.52075   0.48016   0.00000  Uiso   1.00
C388   C     0.91300   0.52880   0.42534   0.00000  Uiso   1.00
C389   C     0.87853   0.53851   0.40175   0.00000  Uiso   1.00
C390   C     0.84375   0.53216   0.06863   0.00000  Uiso   1.00
C391   C     0.91830   0.49537   0.05770   0.00000  Uiso   1.00
H392   H     0.94262   0.47935   0.07456   0.00000  Uiso   1.00
H393   H     0.89061   0.54791   0.36010   0.00000  Uiso   1.00
H394   H     0.99315   0.57090   0.45475   0.00000  Uiso   1.00
H395   H     0.69958   0.60917   0.46886   0.00000  Uiso   1.00
H396   H     0.93542   0.58678   0.04920   0.00000  Uiso   1.00
H397   H     0.97473   0.62928   0.05187   0.00000  Uiso   1.00
H398   H     0.96368   0.65959   0.46825   0.00000  Uiso   1.00
H399   H     0.90792   0.65390   0.02169   0.00000  Uiso   1.00
H400   H     0.92343   0.61733   0.46664   0.00000  Uiso   1.00
H401   H     0.96469   0.43676   0.22604   0.00000  Uiso   1.00
H402   H     0.71527   0.43681   0.22590   0.00000  Uiso   1.00
H403   H     0.70207   0.56331   0.27355   0.00000  Uiso   1.00
H404   H     0.95172   0.56340   0.27318   0.00000  Uiso   1.00
H405   H     0.94999   0.52669   0.40060   0.00000  Uiso   1.00
H406   H     0.96708   0.49367   0.47773   0.00000  Uiso   1.00
H407   H     0.71965   0.52511   0.41524   0.00000  Uiso   1.00
H408   H     0.75304   0.54371   0.05900   0.00000  Uiso   1.00
N409   N     0.71426   0.50001   0.25001   0.00000  Uiso   1.00
N410   N     0.95239   0.49998   0.25000   0.00000  Uiso   1.00
N411   N     0.93712   0.39495   0.13868   0.00000  Uiso   1.00
N412   N     0.72900   0.39550   0.36014   0.00000  Uiso   1.00
N413   N     0.72628   0.60521   0.35715   0.00000  Uiso   1.00
N414   N     0.78628   0.58736   0.12837   0.00000  Uiso   1.00
N415   N     0.94475   0.60452   0.15151   0.00000  Uiso   1.00
O416   O     0.79512   0.56108   0.25000   0.00000  Uiso   1.00
O417   O     0.87157   0.56107   0.25000   0.00000  Uiso   1.00
O418   O     0.77613   0.50000   0.32681   0.00000  Uiso   1.00
O419   O     0.85258   0.49999   0.32681   0.00000  Uiso   1.00
O420   O     0.79510   0.43893   0.24999   0.00000  Uiso   1.00
O421   O     0.87154   0.43892   0.24999   0.00000  Uiso   1.00
O422   O     0.81409   0.50001   0.17319   0.00000  Uiso   1.00
O423   O     0.89053   0.50000   0.17319   0.00000  Uiso   1.00
O424   O     0.68683   0.55488   0.01647   0.00000  Uiso   1.00
Zn425  Zn    0.78229   0.50001   0.25000   0.00000  Uiso   1.00
Zn426  Zn    0.88438   0.49999   0.25000   0.00000  Uiso   1.00
C427   C     0.16665   0.91322   0.25033   0.00000  Uiso   1.00
C428   C     0.12804   0.85701   0.40604   0.00000  Uiso   1.00
C429   C     0.20525   0.97855   0.21405   0.00000  Uiso   1.00
C430   C     0.14138   0.83994   0.35087   0.00000  Uiso   1.00
C431   C     0.20433   0.68826   0.21244   0.00000  Uiso   1.00
C432   C     0.16660   0.70936   0.24983   0.00000  Uiso   1.00
C433   C     0.12915   0.68836   0.28785   0.00000  Uiso   1.00
C434   C     0.12882   0.97859   0.28758   0.00000  Uiso   1.00
C435   C     0.16685   0.95745   0.25064   0.00000  Uiso   1.00
C436   C     0.31305   0.79822   0.23674   0.00000  Uiso   1.00
C437   C     0.02763   0.79824   0.23669   0.00000  Uiso   1.00
C438   C     0.14945   0.86997   0.48767   0.00000  Uiso   1.00
C439   C     0.02033   0.86847   0.26310   0.00000  Uiso   1.00
C440   C     0.30582   0.86849   0.26295   0.00000  Uiso   1.00
C441   C     0.16669   0.75350   0.24977   0.00000  Uiso   1.00
C442   C     0.19254   0.83512   0.14822   0.00000  Uiso   1.00
C443   C     0.26523   0.83636   0.00278   0.00000  Uiso   1.00
C444   C     0.20749   0.84303   0.09068   0.00000  Uiso   1.00
C445   C     0.07996   0.86334   0.43468   0.00000  Uiso   1.00
C446   C     0.06651   0.87641   0.48850   0.00000  Uiso   1.00
C447   C     0.10019   0.87465   0.01594   0.00000  Uiso   1.00
C448   C     0.24119   0.71057   0.17140   0.00000  Uiso   1.00
C449   C     0.16311   0.86699   0.43101   0.00000  Uiso   1.00
C450   C     0.09193   0.71091   0.32812   0.00000  Uiso   1.00
C451   C     0.09037   0.95625   0.32640   0.00000  Uiso   1.00
C452   C     0.14495   0.89614   0.10178   0.00000  Uiso   1.00
C453   C     0.00444   0.91912   0.48712   0.00000  Uiso   1.00
C454   C     0.29532   0.94256   0.02460   0.00000  Uiso   1.00
C455   C     0.27120   0.97003   0.49315   0.00000  Uiso   1.00
C456   C     0.24574   0.95609   0.17874   0.00000  Uiso   1.00
C457   C     0.18566   0.86447   0.01278   0.00000  Uiso   1.00
C458   C     0.23263   0.85408   0.48016   0.00000  Uiso   1.00
C459   C     0.24633   0.86213   0.42534   0.00000  Uiso   1.00
C460   C     0.21186   0.87185   0.40175   0.00000  Uiso   1.00
C461   C     0.17708   0.86550   0.06863   0.00000  Uiso   1.00
C462   C     0.25163   0.82870   0.05770   0.00000  Uiso   1.00
H463   H     0.27595   0.81268   0.07456   0.00000  Uiso   1.00
H464   H     0.22395   0.88124   0.36010   0.00000  Uiso   1.00
H465   H     0.32648   0.90423   0.45475   0.00000  Uiso   1.00
H466   H     0.03291   0.94251   0.46886   0.00000  Uiso   1.00
H467   H     0.26876   0.92011   0.04920   0.00000  Uiso   1.00
H468   H     0.30806   0.96261   0.05187   0.00000  Uiso   1.00
H469   H     0.29701   0.99293   0.46825   0.00000  Uiso   1.00
H470   H     0.24125   0.98724   0.02169   0.00000  Uiso   1.00
H471   H     0.25677   0.95067   0.46664   0.00000  Uiso   1.00
H472   H     0.29802   0.77009   0.22604   0.00000  Uiso   1.00
H473   H     0.04861   0.77014   0.22590   0.00000  Uiso   1.00
H474   H     0.03540   0.89664   0.27355   0.00000  Uiso   1.00
H475   H     0.28505   0.89673   0.27318   0.00000  Uiso   1.00
H476   H     0.28333   0.86003   0.40060   0.00000  Uiso   1.00
H477   H     0.30041   0.82700   0.47773   0.00000  Uiso   1.00
H478   H     0.05298   0.85844   0.41524   0.00000  Uiso   1.00
H479   H     0.08637   0.87705   0.05900   0.00000  Uiso   1.00
N480   N     0.04760   0.83334   0.25001   0.00000  Uiso   1.00
N481   N     0.28573   0.83331   0.25000   0.00000  Uiso   1.00
N482   N     0.27046   0.72828   0.13868   0.00000  Uiso   1.00
N483   N     0.06234   0.72883   0.36014   0.00000  Uiso   1.00
N484   N     0.05961   0.93855   0.35715   0.00000  Uiso   1.00
N485   N     0.11962   0.92069   0.12837   0.00000  Uiso   1.00
N486   N     0.27808   0.93786   0.15151   0.00000  Uiso   1.00
O487   O     0.12846   0.89442   0.25000   0.00000  Uiso   1.00
O488   O     0.20490   0.89441   0.25000   0.00000  Uiso   1.00
O489   O     0.10947   0.83333   0.32681   0.00000  Uiso   1.00
O490   O     0.18591   0.83332   0.32681   0.00000  Uiso   1.00
O491   O     0.12843   0.77226   0.24999   0.00000  Uiso   1.00
O492   O     0.20488   0.77225   0.24999   0.00000  Uiso   1.00
O493   O     0.14742   0.83335   0.17319   0.00000  Uiso   1.00
O494   O     0.22387   0.83334   0.17319   0.00000  Uiso   1.00
O495   O     0.02016   0.88821   0.01647   0.00000  Uiso   1.00
Zn496  Zn    0.11562   0.83334   0.25000   0.00000  Uiso   1.00
Zn497  Zn    0.21771   0.83333   0.25000   0.00000  Uiso   1.00
C498   C     0.49998   0.91322   0.25033   0.00000  Uiso   1.00
C499   C     0.46137   0.85701   0.40604   0.00000  Uiso   1.00
C500   C     0.53858   0.97855   0.21405   0.00000  Uiso   1.00
C501   C     0.47472   0.83994   0.35087   0.00000  Uiso   1.00
C502   C     0.53766   0.68826   0.21244   0.00000  Uiso   1.00
C503   C     0.49994   0.70936   0.24983   0.00000  Uiso   1.00
C504   C     0.46249   0.68836   0.28785   0.00000  Uiso   1.00
C505   C     0.46216   0.97859   0.28758   0.00000  Uiso   1.00
C506   C     0.50018   0.95745   0.25064   0.00000  Uiso   1.00
C507   C     0.64638   0.79822   0.23674   0.00000  Uiso   1.00
C508   C     0.36096   0.79824   0.23669   0.00000  Uiso   1.00
C509   C     0.48278   0.86997   0.48767   0.00000  Uiso   1.00
C510   C     0.35366   0.86847   0.26310   0.00000  Uiso   1.00
C511   C     0.63916   0.86849   0.26295   0.00000  Uiso   1.00
C512   C     0.50002   0.75350   0.24977   0.00000  Uiso   1.00
C513   C     0.52587   0.83512   0.14822   0.00000  Uiso   1.00
C514   C     0.59856   0.83636   0.00278   0.00000  Uiso   1.00
C515   C     0.54082   0.84303   0.09068   0.00000  Uiso   1.00
C516   C     0.41329   0.86334   0.43468   0.00000  Uiso   1.00
C517   C     0.39985   0.87641   0.48850   0.00000  Uiso   1.00
C518   C     0.43353   0.87465   0.01594   0.00000  Uiso   1.00
C519   C     0.57452   0.71057   0.17140   0.00000  Uiso   1.00
C520   C     0.49644   0.86699   0.43101   0.00000  Uiso   1.00
C521   C     0.42526   0.71091   0.32812   0.00000  Uiso   1.00
C522   C     0.42370   0.95625   0.32640   0.00000  Uiso   1.00
C523   C     0.47828   0.89614   0.10178   0.00000  Uiso   1.00
C524   C     0.33777   0.91912   0.48712   0.00000  Uiso   1.00
C525   C     0.62865   0.94256   0.02460   0.00000  Uiso   1.00
C526   C     0.60454   0.97003   0.49315   0.00000  Uiso   1.00
C527   C     0.57907   0.95609   0.17874   0.00000  Uiso   1.00
C528   C     0.51899   0.86447   0.01278   0.00000  Uiso   1.00
C529   C     0.56596   0.85408   0.48016   0.00000  Uiso   1.00
C530   C     0.57966   0.86213   0.42534   0.00000  Uiso   1.00
C531   C     0.54520   0.87185   0.40175   0.00000  Uiso   1.00
C532   C     0.51042   0.86550   0.06863   0.00000  Uiso   1.00
C533   C     0.58497   0.82870   0.05770   0.00000  Uiso   1.00
H534   H     0.60929   0.81268   0.07456   0.00000  Uiso   1.00
H535   H     0.55728   0.88124   0.36010   0.00000  Uiso   1.00
H536   H     0.65982   0.90423   0.45475   0.00000  Uiso   1.00
H537   H     0.36625   0.94251   0.46886   0.00000  Uiso   1.00
H538   H     0.60209   0.92011   0.04920   0.00000  Uiso   1.00
H539   H     0.64139   0.96261   0.05187   0.00000  Uiso   1.00
H540   H     0.63035   0.99293   0.46825   0.00000  Uiso   1.00
H541   H     0.57458   0.98724   0.02169   0.00000  Uiso   1.00
H542   H     0.59010   0.95067   0.46664   0.00000  Uiso   1.00
H543   H     0.63135   0.77009   0.22604   0.00000  Uiso   1.00
H544   H     0.38194   0.77014   0.22590   0.00000  Uiso   1.00
H545   H     0.36874   0.89664   0.27355   0.00000  Uiso   1.00
H546   H     0.61839   0.89673   0.27318   0.00000  Uiso   1.00
H547   H     0.61666   0.86003   0.40060   0.00000  Uiso   1.00
H548   H     0.63375   0.82700   0.47773   0.00000  Uiso   1.00
H549   H     0.38631   0.85844   0.41524   0.00000  Uiso   1.00
H550   H     0.41970   0.87705   0.05900   0.00000  Uiso   1.00
N551   N     0.38093   0.83334   0.25001   0.00000  Uiso   1.00
N552   N     0.61906   0.83331   0.25000   0.00000  Uiso   1.00
N553   N     0.60379   0.72828   0.13868   0.00000  Uiso   1.00
N554   N     0.39567   0.72883   0.36014   0.00000  Uiso   1.00
N555   N     0.39294   0.93855   0.35715   0.00000  Uiso   1.00
N556   N     0.45295   0.92069   0.12837   0.00000  Uiso   1.00
N557   N     0.61142   0.93786   0.15151   0.00000  Uiso   1.00
O558   O     0.46179   0.89442   0.25000   0.00000  Uiso   1.00
O559   O     0.53823   0.89441   0.25000   0.00000  Uiso   1.00
O560   O     0.44280   0.83333   0.32681   0.00000  Uiso   1.00
O561   O     0.51924   0.83332   0.32681   0.00000  Uiso   1.00
O562   O     0.46177   0.77226   0.24999   0.00000  Uiso   1.00
O563   O     0.53821   0.77225   0.24999   0.00000  Uiso   1.00
O564   O     0.48076   0.83335   0.17319   0.00000  Uiso   1.00
O565   O     0.55720   0.83334   0.17319   0.00000  Uiso   1.00
O566   O     0.35349   0.88821   0.01647   0.00000  Uiso   1.00
Zn567  Zn    0.44896   0.83334   0.25000   0.00000  Uiso   1.00
Zn568  Zn    0.55104   0.83333   0.25000   0.00000  Uiso   1.00
C569   C     0.83332   0.91322   0.25033   0.00000  Uiso   1.00
C570   C     0.79471   0.85701   0.40604   0.00000  Uiso   1.00
C571   C     0.87192   0.97855   0.21405   0.00000  Uiso   1.00
C572   C     0.80805   0.83994   0.35087   0.00000  Uiso   1.00
C573   C     0.87100   0.68826   0.21244   0.00000  Uiso   1.00
C574   C     0.83327   0.70936   0.24983   0.00000  Uiso   1.00
C575   C     0.79582   0.68836   0.28785   0.00000  Uiso   1.00
C576   C     0.79549   0.97859   0.28758   0.00000  Uiso   1.00
C577   C     0.83352   0.95745   0.25064   0.00000  Uiso   1.00
C578   C     0.97971   0.79822   0.23674   0.00000  Uiso   1.00
C579   C     0.69429   0.79824   0.23669   0.00000  Uiso   1.00
C580   C     0.81611   0.86997   0.48767   0.00000  Uiso   1.00
C581   C     0.68700   0.86847   0.26310   0.00000  Uiso   1.00
C582   C     0.97249   0.86849   0.26295   0.00000  Uiso   1.00
C583   C     0.83336   0.75350   0.24977   0.00000  Uiso   1.00
C584   C     0.85920   0.83512   0.14822   0.00000  Uiso   1.00
C585   C     0.93190   0.83636   0.00278   0.00000  Uiso   1.00
C586   C     0.87416   0.84303   0.09068   0.00000  Uiso   1.00
C587   C     0.74662   0.86334   0.43468   0.00000  Uiso   1.00
C588   C     0.73318   0.87641   0.48850   0.00000  Uiso   1.00
C589   C     0.76686   0.87465   0.01594   0.00000  Uiso   1.00
C590   C     0.90785   0.71057   0.17140   0.00000  Uiso   1.00
C591   C     0.82977   0.86699   0.43101   0.00000  Uiso   1.00
C592   C     0.75859   0.71091   0.32812   0.00000  Uiso   1.00
C593   C     0.75703   0.95625   0.32640   0.00000  Uiso   1.00
C594   C     0.81162   0.89614   0.10178   0.00000  Uiso   1.00
C595   C     0.67111   0.91912   0.48712   0.00000  Uiso   1.00
C596   C     0.96199   0.94256   0.02460   0.00000  Uiso   1.00
C597   C     0.93787   0.97003   0.49315   0.00000  Uiso   1.00
C598   C     0.91241   0.95609   0.17874   0.00000  Uiso   1.00
C599   C     0.85232   0.86447   0.01278   0.00000  Uiso   1.00
C600   C     0.89930   0.85408   0.48016   0.00000  Uiso   1.00
C601   C     0.91300   0.86213   0.42534   0.00000  Uiso   1.00
C602   C     0.87853   0.87185   0.40175   0.00000  Uiso   1.00
C603   C     0.84375   0.86550   0.06863   0.00000  Uiso   1.00
C604   C     0.91830   0.82870   0.05770   0.00000  Uiso   1.00
H605   H     0.94262   0.81268   0.07456   0.00000  Uiso   1.00
H606   H     0.89061   0.88124   0.36010   0.00000  Uiso   1.00
H607   H     0.99315   0.90423   0.45475   0.00000  Uiso   1.00
H608   H     0.69958   0.94251   0.46886   0.00000  Uiso   1.00
H609   H     0.93542   0.92011   0.04920   0.00000  Uiso   1.00
H610   H     0.97473   0.96261   0.05187   0.00000  Uiso   1.00
H611   H     0.96368   0.99293   0.46825   0.00000  Uiso   1.00
H612   H     0.90792   0.98724   0.02169   0.00000  Uiso   1.00
H613   H     0.92343   0.95067   0.46664   0.00000  Uiso   1.00
H614   H     0.96469   0.77009   0.22604   0.00000  Uiso   1.00
H615   H     0.71527   0.77014   0.22590   0.00000  Uiso   1.00
H616   H     0.70207   0.89664   0.27355   0.00000  Uiso   1.00
H617   H     0.95172   0.89673   0.27318   0.00000  Uiso   1.00
H618   H     0.94999   0.86003   0.40060   0.00000  Uiso   1.00
H619   H     0.96708   0.82700   0.47773   0.00000  Uiso   1.00
H620   H     0.71965   0.85844   0.41524   0.00000  Uiso   1.00
H621   H     0.75304   0.87705   0.05900   0.00000  Uiso   1.00
N622   N     0.71426   0.83334   0.25001   0.00000  Uiso   1.00
N623   N     0.95239   0.83331   0.25000   0.00000  Uiso   1.00
N624   N     0.93712   0.72828   0.13868   0.00000  Uiso   1.00
N625   N     0.72900   0.72883   0.36014   0.00000  Uiso   1.00
N626   N     0.72628   0.93855   0.35715   0.00000  Uiso   1.00
N627   N     0.78628   0.92069   0.12837   0.00000  Uiso   1.00
N628   N     0.94475   0.93786   0.15151   0.00000  Uiso   1.00
O629   O     0.79512   0.89442   0.25000   0.00000  Uiso   1.00
O630   O     0.87157   0.89441   0.25000   0.00000  Uiso   1.00
O631   O     0.77613   0.83333   0.32681   0.00000  Uiso   1.00
O632   O     0.85258   0.83332   0.32681   0.00000  Uiso   1.00
O633   O     0.79510   0.77226   0.24999   0.00000  Uiso   1.00
O634   O     0.87154   0.77225   0.24999   0.00000  Uiso   1.00
O635   O     0.81409   0.83335   0.17319   0.00000  Uiso   1.00
O636   O     0.89053   0.83334   0.17319   0.00000  Uiso   1.00
O637   O     0.68683   0.88821   0.01647   0.00000  Uiso   1.00
Zn638  Zn    0.78229   0.83334   0.25000   0.00000  Uiso   1.00
Zn639  Zn    0.88438   0.83333   0.25000   0.00000  Uiso   1.00
C640   C     0.16665   0.24655   0.75033   0.00000  Uiso   1.00
C641   C     0.12804   0.19035   0.90604   0.00000  Uiso   1.00
C642   C     0.20525   0.31188   0.71405   0.00000  Uiso   1.00
C643   C     0.14138   0.17327   0.85087   0.00000  Uiso   1.00
C644   C     0.20433   0.02159   0.71244   0.00000  Uiso   1.00
C645   C     0.16660   0.04269   0.74983   0.00000  Uiso   1.00
C646   C     0.12915   0.02169   0.78785   0.00000  Uiso   1.00
C647   C     0.12882   0.31192   0.78758   0.00000  Uiso   1.00
C648   C     0.16685   0.29079   0.75064   0.00000  Uiso   1.00
C649   C     0.31305   0.13155   0.73674   0.00000  Uiso   1.00
C650   C     0.02763   0.13158   0.73669   0.00000  Uiso   1.00
C651   C     0.14945   0.20330   0.98767   0.00000  Uiso   1.00
C652   C     0.02033   0.20180   0.76310   0.00000  Uiso   1.00
C653   C     0.30582   0.20183   0.76295   0.00000  Uiso   1.00
C654   C     0.16669   0.08684   0.74977   0.00000  Uiso   1.00
C655   C     0.19254   0.16845   0.64822   0.00000  Uiso   1.00
C656   C     0.26523   0.16970   0.50278   0.00000  Uiso   1.00
C657   C     0.20749   0.17637   0.59068   0.00000  Uiso   1.00
C658   C     0.07996   0.19668   0.93468   0.00000  Uiso   1.00
C659   C     0.06651   0.20974   0.98850   0.00000  Uiso   1.00
C660   C     0.10019   0.20798   0.51594   0.00000  Uiso   1.00
C661   C     0.24119   0.04391   0.67140   0.00000  Uiso   1.00
C662   C     0.16311   0.20032   0.93101   0.00000  Uiso   1.00
C663   C     0.09193   0.04424   0.82812   0.00000  Uiso   1.00
C664   C     0.09037   0.28958   0.82640   0.00000  Uiso   1.00
C665   C     0.14495   0.22948   0.60178   0.00000  Uiso   1.00
C666   C     0.00444   0.25246   0.98712   0.00000  Uiso   1.00
C667   C     0.29532   0.27589   0.52460   0.00000  Uiso   1.00
C668   C     0.27120   0.30337   0.99315   0.00000  Uiso   1.00
C669   C     0.24574   0.28942   0.67874   0.00000  Uiso   1.00
C670   C     0.18566   0.19780   0.51278   0.00000  Uiso   1.00
C671   C     0.23263   0.18741   0.98016   0.00000  Uiso   1.00
C672   C     0.24633   0.19546   0.92534   0.00000  Uiso   1.00
C673   C     0.21186   0.20518   0.90175   0.00000  Uiso   1.00
C674   C     0.17708   0.19883   0.56863   0.00000  Uiso   1.00
C675   C     0.25163   0.16203   0.55770   0.00000  Uiso   1.00
H676   H     0.27595   0.14601   0.57456   0.00000  Uiso   1.00
H677   H     0.22395   0.21458   0.86010   0.00000  Uiso   1.00
H678   H     0.32648   0.23756   0.95475   0.00000  Uiso   1.00
H679   H     0.03291   0.27584   0.96886   0.00000  Uiso   1.00
H680   H     0.26876   0.25344   0.54920   0.00000  Uiso   1.00
H681   H     0.30806   0.29595   0.55187   0.00000  Uiso   1.00
H682   H     0.29701   0.32626   0.96825   0.00000  Uiso   1.00
H683   H     0.24125   0.32057   0.52169   0.00000  Uiso   1.00
H684   H     0.25677   0.28400   0.96664   0.00000  Uiso   1.00
H685   H     0.29802   0.10343   0.72604   0.00000  Uiso   1.00
H686   H     0.04861   0.10348   0.72590   0.00000  Uiso   1.00
H687   H     0.03540   0.22997   0.77355   0.00000  Uiso   1.00
H688   H     0.28505   0.23007   0.77318   0.00000  Uiso   1.00
H689   H     0.28333   0.19336   0.90060   0.00000  Uiso   1.00
H690   H     0.30041   0.16033   0.97773   0.00000  Uiso   1.00
H691   H     0.05298   0.19178   0.91524   0.00000  Uiso   1.00
H692   H     0.08637   0.21038   0.55900   0.00000  Uiso   1.00
N693   N     0.04760   0.16668   0.75001   0.00000  Uiso   1.00
N694   N     0.28573   0.16665   0.75000   0.00000  Uiso   1.00
N695   N     0.27046   0.06162   0.63868   0.00000  Uiso   1.00
N696   N     0.06234   0.06216   0.86014   0.00000  Uiso   1.00
N697   N     0.05961   0.27188   0.85715   0.00000  Uiso   1.00
N698   N     0.11962   0.25403   0.62837   0.00000  Uiso   1.00
N699   N     0.27808   0.27119   0.65151   0.00000  Uiso   1.00
O700   O     0.12846   0.22775   0.75000   0.00000  Uiso   1.00
O701   O     0.20490   0.22774   0.75000   0.00000  Uiso   1.00
O702   O     0.10947   0.16666   0.82681   0.00000  Uiso   1.00
O703   O     0.18591   0.16665   0.82681   0.00000  Uiso   1.00
O704   O     0.12843   0.10559   0.74999   0.00000  Uiso   1.00
O705   O     0.20488   0.10558   0.74999   0.00000  Uiso   1.00
O706   O     0.14742   0.16668   0.67319   0.00000  Uiso   1.00
O707   O     0.22387   0.16667   0.67319   0.00000  Uiso   1.00
O708   O     0.02016   0.22154   0.51647   0.00000  Uiso   1.00
Zn709  Zn    0.11562   0.16667   0.75000   0.00000  Uiso   1.00
Zn710  Zn    0.21771   0.16666   0.75000   0.00000  Uiso   1.00
C711   C     0.49998   0.24655   0.75033   0.00000  Uiso   1.00
C712   C     0.46137   0.19035   0.90604   0.00000  Uiso   1.00
C713   C     0.53858   0.31188   0.71405   0.00000  Uiso   1.00
C714   C     0.47472   0.17327   0.85087   0.00000  Uiso   1.00
C715   C     0.53766   0.02159   0.71244   0.00000  Uiso   1.00
C716   C     0.49994   0.04269   0.74983   0.00000  Uiso   1.00
C717   C     0.46249   0.02169   0.78785   0.00000  Uiso   1.00
C718   C     0.46216   0.31192   0.78758   0.00000  Uiso   1.00
C719   C     0.50018   0.29079   0.75064   0.00000  Uiso   1.00
C720   C     0.64638   0.13155   0.73674   0.00000  Uiso   1.00
C721   C     0.36096   0.13158   0.73669   0.00000  Uiso   1.00
C722   C     0.48278   0.20330   0.98767   0.00000  Uiso   1.00
C723   C     0.35366   0.20180   0.76310   0.00000  Uiso   1.00
C724   C     0.63916   0.20183   0.76295   0.00000  Uiso   1.00
C725   C     0.50002   0.08684   0.74977   0.00000  Uiso   1.00
C726   C     0.52587   0.16845   0.64822   0.00000  Uiso   1.00
C727   C     0.59856   0.16970   0.50278   0.00000  Uiso   1.00
C728   C     0.54082   0.17637   0.59068   0.00000  Uiso   1.00
C729   C     0.41329   0.19668   0.93468   0.00000  Uiso   1.00
C730   C     0.39985   0.20974   0.98850   0.00000  Uiso   1.00
C731   C     0.43353   0.20798   0.51594   0.00000  Uiso   1.00
C732   C     0.57452   0.04391   0.67140   0.00000  Uiso   1.00
C733   C     0.49644   0.20032   0.93101   0.00000  Uiso   1.00
C734   C     0.42526   0.04424   0.82812   0.00000  Uiso   1.00
C735   C     0.42370   0.28958   0.82640   0.00000  Uiso   1.00
C736   C     0.47828   0.22948   0.60178   0.00000  Uiso   1.00
C737   C     0.33777   0.25246   0.98712   0.00000  Uiso   1.00
C738   C     0.62865   0.27589   0.52460   0.00000  Uiso   1.00
C739   C     0.60454   0.30337   0.99315   0.00000  Uiso   1.00
C740   C     0.57907   0.28942   0.67874   0.00000  Uiso   1.00
C741   C     0.51899   0.19780   0.51278   0.00000  Uiso   1.00
C742   C     0.56596   0.18741   0.98016   0.00000  Uiso   1.00
C743   C     0.57966   0.19546   0.92534   0.00000  Uiso   1.00
C744   C     0.54520   0.20518   0.90175   0.00000  Uiso   1.00
C745   C     0.51042   0.19883   0.56863   0.00000  Uiso   1.00
C746   C     0.58497   0.16203   0.55770   0.00000  Uiso   1.00
H747   H     0.60929   0.14601   0.57456   0.00000  Uiso   1.00
H748   H     0.55728   0.21458   0.86010   0.00000  Uiso   1.00
H749   H     0.65982   0.23756   0.95475   0.00000  Uiso   1.00
H750   H     0.36625   0.27584   0.96886   0.00000  Uiso   1.00
H751   H     0.60209   0.25344   0.54920   0.00000  Uiso   1.00
H752   H     0.64139   0.29595   0.55187   0.00000  Uiso   1.00
H753   H     0.63035   0.32626   0.96825   0.00000  Uiso   1.00
H754   H     0.57458   0.32057   0.52169   0.00000  Uiso   1.00
H755   H     0.59010   0.28400   0.96664   0.00000  Uiso   1.00
H756   H     0.63135   0.10343   0.72604   0.00000  Uiso   1.00
H757   H     0.38194   0.10348   0.72590   0.00000  Uiso   1.00
H758   H     0.36874   0.22997   0.77355   0.00000  Uiso   1.00
H759   H     0.61839   0.23007   0.77318   0.00000  Uiso   1.00
H760   H     0.61666   0.19336   0.90060   0.00000  Uiso   1.00
H761   H     0.63375   0.16033   0.97773   0.00000  Uiso   1.00
H762   H     0.38631   0.19178   0.91524   0.00000  Uiso   1.00
H763   H     0.41970   0.21038   0.55900   0.00000  Uiso   1.00
N764   N     0.38093   0.16668   0.75001   0.00000  Uiso   1.00
N765   N     0.61906   0.16665   0.75000   0.00000  Uiso   1.00
N766   N     0.60379   0.06162   0.63868   0.00000  Uiso   1.00
N767   N     0.39567   0.06216   0.86014   0.00000  Uiso   1.00
N768   N     0.39294   0.27188   0.85715   0.00000  Uiso   1.00
N769   N     0.45295   0.25403   0.62837   0.00000  Uiso   1.00
N770   N     0.61142   0.27119   0.65151   0.00000  Uiso   1.00
O771   O     0.46179   0.22775   0.75000   0.00000  Uiso   1.00
O772   O     0.53823   0.22774   0.75000   0.00000  Uiso   1.00
O773   O     0.44280   0.16666   0.82681   0.00000  Uiso   1.00
O774   O     0.51924   0.16665   0.82681   0.00000  Uiso   1.00
O775   O     0.46177   0.10559   0.74999   0.00000  Uiso   1.00
O776   O     0.53821   0.10558   0.74999   0.00000  Uiso   1.00
O777   O     0.48076   0.16668   0.67319   0.00000  Uiso   1.00
O778   O     0.55720   0.16667   0.67319   0.00000  Uiso   1.00
O779   O     0.35349   0.22154   0.51647   0.00000  Uiso   1.00
Zn780  Zn    0.44896   0.16667   0.75000   0.00000  Uiso   1.00
Zn781  Zn    0.55104   0.16666   0.75000   0.00000  Uiso   1.00
C782   C     0.83332   0.24655   0.75033   0.00000  Uiso   1.00
C783   C     0.79471   0.19035   0.90604   0.00000  Uiso   1.00
C784   C     0.87192   0.31188   0.71405   0.00000  Uiso   1.00
C785   C     0.80805   0.17327   0.85087   0.00000  Uiso   1.00
C786   C     0.87100   0.02159   0.71244   0.00000  Uiso   1.00
C787   C     0.83327   0.04269   0.74983   0.00000  Uiso   1.00
C788   C     0.79582   0.02169   0.78785   0.00000  Uiso   1.00
C789   C     0.79549   0.31192   0.78758   0.00000  Uiso   1.00
C790   C     0.83352   0.29079   0.75064   0.00000  Uiso   1.00
C791   C     0.97971   0.13155   0.73674   0.00000  Uiso   1.00
C792   C     0.69429   0.13158   0.73669   0.00000  Uiso   1.00
C793   C     0.81611   0.20330   0.98767   0.00000  Uiso   1.00
C794   C     0.68700   0.20180   0.76310   0.00000  Uiso   1.00
C795   C     0.97249   0.20183   0.76295   0.00000  Uiso   1.00
C796   C     0.83336   0.08684   0.74977   0.00000  Uiso   1.00
C797   C     0.85920   0.16845   0.64822   0.00000  Uiso   1.00
C798   C     0.93190   0.16970   0.50278   0.00000  Uiso   1.00
C799   C     0.87416   0.17637   0.59068   0.00000  Uiso   1.00
C800   C     0.74662   0.19668   0.93468   0.00000  Uiso   1.00
C801   C     0.73318   0.20974   0.98850   0.00000  Uiso   1.00
C802   C     0.76686   0.20798   0.51594   0.00000  Uiso   1.00
C803   C     0.90785   0.04391   0.67140   0.00000  Uiso   1.00
C804   C     0.82977   0.20032   0.93101   0.00000  Uiso   1.00
C805   C     0.75859   0.04424   0.82812   0.00000  Uiso   1.00
C806   C     0.75703   0.28958   0.82640   0.00000  Uiso   1.00
C807   C     0.81162   0.22948   0.60178   0.00000  Uiso   1.00
C808   C     0.67111   0.25246   0.98712   0.00000  Uiso   1.00
C809   C     0.96199   0.27589   0.52460   0.00000  Uiso   1.00
C810   C     0.93787   0.30337   0.99315   0.00000  Uiso   1.00
C811   C     0.91241   0.28942   0.67874   0.00000  Uiso   1.00
C812   C     0.85232   0.19780   0.51278   0.00000  Uiso   1.00
C813   C     0.89930   0.18741   0.98016   0.00000  Uiso   1.00
C814   C     0.91300   0.19546   0.92534   0.00000  Uiso   1.00
C815   C     0.87853   0.20518   0.90175   0.00000  Uiso   1.00
C816   C     0.84375   0.19883   0.56863   0.00000  Uiso   1.00
C817   C     0.91830   0.16203   0.55770   0.00000  Uiso   1.00
H818   H     0.94262   0.14601   0.57456   0.00000  Uiso   1.00
H819   H     0.89061   0.21458   0.86010   0.00000  Uiso   1.00
H820   H     0.99315   0.23756   0.95475   0.00000  Uiso   1.00
H821   H     0.69958   0.27584   0.96886   0.00000  Uiso   1.00
H822   H     0.93542   0.25344   0.54920   0.00000  Uiso   1.00
H823   H     0.97473   0.29595   0.55187   0.00000  Uiso   1.00
H824   H     0.96368   0.32626   0.96825   0.00000  Uiso   1.00
H825   H     0.90792   0.32057   0.52169   0.00000  Uiso   1.00
H826   H     0.92343   0.28400   0.96664   0.00000  Uiso   1.00
H827   H     0.96469   0.10343   0.72604   0.00000  Uiso   1.00
H828   H     0.71527   0.10348   0.72590   0.00000  Uiso   1.00
H829   H     0.70207   0.22997   0.77355   0.00000  Uiso   1.00
H830   H     0.95172   0.23007   0.77318   0.00000  Uiso   1.00
H831   H     0.94999   0.19336   0.90060   0.00000  Uiso   1.00
H832   H     0.96708   0.16033   0.97773   0.00000  Uiso   1.00
H833   H     0.71965   0.19178   0.91524   0.00000  Uiso   1.00
H834   H     0.75304   0.21038   0.55900   0.00000  Uiso   1.00
N835   N     0.71426   0.16668   0.75001   0.00000  Uiso   1.00
N836   N     0.95239   0.16665   0.75000   0.00000  Uiso   1.00
N837   N     0.93712   0.06162   0.63868   0.00000  Uiso   1.00
N838   N     0.72900   0.06216   0.86014   0.00000  Uiso   1.00
N839   N     0.72628   0.27188   0.85715   0.00000  Uiso   1.00
N840   N     0.78628   0.25403   0.62837   0.00000  Uiso   1.00
N841   N     0.94475   0.27119   0.65151   0.00000  Uiso   1.00
O842   O     0.79512   0.22775   0.75000   0.00000  Uiso   1.00
O843   O     0.87157   0.22774   0.75000   0.00000  Uiso   1.00
O844   O     0.77613   0.16666   0.82681   0.00000  Uiso   1.00
O845   O     0.85258   0.16665   0.82681   0.00000  Uiso   1.00
O846   O     0.79510   0.10559   0.74999   0.00000  Uiso   1.00
O847   O     0.87154   0.10558   0.74999   0.00000  Uiso   1.00
O848   O     0.81409   0.16668   0.67319   0.00000  Uiso   1.00
O849   O     0.89053   0.16667   0.67319   0.00000  Uiso   1.00
O850   O     0.68683   0.22154   0.51647   0.00000  Uiso   1.00
Zn851  Zn    0.78229   0.16667   0.75000   0.00000  Uiso   1.00
Zn852  Zn    0.88438   0.16666   0.75000   0.00000  Uiso   1.00
C853   C     0.16665   0.57989   0.75033   0.00000  Uiso   1.00
C854   C     0.12804   0.52368   0.90604   0.00000  Uiso   1.00
C855   C     0.20525   0.64521   0.71405   0.00000  Uiso   1.00
C856   C     0.14138   0.50660   0.85087   0.00000  Uiso   1.00
C857   C     0.20433   0.35493   0.71244   0.00000  Uiso   1.00
C858   C     0.16660   0.37602   0.74983   0.00000  Uiso   1.00
C859   C     0.12915   0.35503   0.78785   0.00000  Uiso   1.00
C860   C     0.12882   0.64526   0.78758   0.00000  Uiso   1.00
C861   C     0.16685   0.62412   0.75064   0.00000  Uiso   1.00
C862   C     0.31305   0.46489   0.73674   0.00000  Uiso   1.00
C863   C     0.02763   0.46491   0.73669   0.00000  Uiso   1.00
C864   C     0.14945   0.53664   0.98767   0.00000  Uiso   1.00
C865   C     0.02033   0.53514   0.76310   0.00000  Uiso   1.00
C866   C     0.30582   0.53516   0.76295   0.00000  Uiso   1.00
C867   C     0.16669   0.42017   0.74977   0.00000  Uiso   1.00
C868   C     0.19254   0.50179   0.64822   0.00000  Uiso   1.00
C869   C     0.26523   0.50303   0.50278   0.00000  Uiso   1.00
C870   C     0.20749   0.50970   0.59068   0.00000  Uiso   1.00
C871   C     0.07996   0.53001   0.93468   0.00000  Uiso   1.00
C872   C     0.06651   0.54307   0.98850   0.00000  Uiso   1.00
C873   C     0.10019   0.54131   0.51594   0.00000  Uiso   1.00
C874   C     0.24119   0.37724   0.67140   0.00000  Uiso   1.00
C875   C     0.16311   0.53365   0.93101   0.00000  Uiso   1.00
C876   C     0.09193   0.37757   0.82812   0.00000  Uiso   1.00
C877   C     0.09037   0.62292   0.82640   0.00000  Uiso   1.00
C878   C     0.14495   0.56281   0.60178   0.00000  Uiso   1.00
C879   C     0.00444   0.58579   0.98712   0.00000  Uiso   1.00
C880   C     0.29532   0.60923   0.52460   0.00000  Uiso   1.00
C881   C     0.27120   0.63670   0.99315   0.00000  Uiso   1.00
C882   C     0.24574   0.62275   0.67874   0.00000  Uiso   1.00
C883   C     0.18566   0.53113   0.51278   0.00000  Uiso   1.00
C884   C     0.23263   0.52075   0.98016   0.00000  Uiso   1.00
C885   C     0.24633   0.52880   0.92534   0.00000  Uiso   1.00
C886   C     0.21186   0.53851   0.90175   0.00000  Uiso   1.00
C887   C     0.17708   0.53216   0.56863   0.00000  Uiso   1.00
C888   C     0.25163   0.49537   0.55770   0.00000  Uiso   1.00
H889   H     0.27595   0.47935   0.57456   0.00000  Uiso   1.00
H890   H     0.22395   0.54791   0.86010   0.00000  Uiso   1.00
H891   H     0.32648   0.57090   0.95475   0.00000  Uiso   1.00
H892   H     0.03291   0.60917   0.96886   0.00000  Uiso   1.00
H893   H     0.26876   0.58678   0.54920   0.00000  Uiso   1.00
H894   H     0.30806   0.62928   0.55187   0.00000  Uiso   1.00
H895   H     0.29701   0.65959   0.96825   0.00000  Uiso   1.00
H896   H     0.24125   0.65390   0.52169   0.00000  Uiso   1.00
H897   H     0.25677   0.61733   0.96664   0.00000  Uiso   1.00
H898   H     0.29802   0.43676   0.72604   0.00000  Uiso   1.00
H899   H     0.04861   0.43681   0.72590   0.00000  Uiso   1.00
H900   H     0.03540   0.56331   0.77355   0.00000  Uiso   1.00
H901   H     0.28505   0.56340   0.77318   0.00000  Uiso   1.00
H902   H     0.28333   0.52669   0.90060   0.00000  Uiso   1.00
H903   H     0.30041   0.49367   0.97773   0.00000  Uiso   1.00
H904   H     0.05298   0.52511   0.91524   0.00000  Uiso   1.00
H905   H     0.08637   0.54371   0.55900   0.00000  Uiso   1.00
N906   N     0.04760   0.50001   0.75001   0.00000  Uiso   1.00
N907   N     0.28573   0.49998   0.75000   0.00000  Uiso   1.00
N908   N     0.27046   0.39495   0.63868   0.00000  Uiso   1.00
N909   N     0.06234   0.39550   0.86014   0.00000  Uiso   1.00
N910   N     0.05961   0.60521   0.85715   0.00000  Uiso   1.00
N911   N     0.11962   0.58736   0.62837   0.00000  Uiso   1.00
N912   N     0.27808   0.60452   0.65151   0.00000  Uiso   1.00
O913   O     0.12846   0.56108   0.75000   0.00000  Uiso   1.00
O914   O     0.20490   0.56107   0.75000   0.00000  Uiso   1.00
O915   O     0.10947   0.50000   0.82681   0.00000  Uiso   1.00
O916   O     0.18591   0.49999   0.82681   0.00000  Uiso   1.00
O917   O     0.12843   0.43893   0.74999   0.00000  Uiso   1.00
O918   O     0.20488   0.43892   0.74999   0.00000  Uiso   1.00
O919   O     0.14742   0.50001   0.67319   0.00000  Uiso   1.00
O920   O     0.22387   0.50000   0.67319   0.00000  Uiso   1.00
O921   O     0.02016   0.55488   0.51647   0.00000  Uiso   1.00
Zn922  Zn    0.11562   0.50001   0.75000   0.00000  Uiso   1.00
Zn923  Zn    0.21771   0.49999   0.75000   0.00000  Uiso   1.00
C924   C     0.49998   0.57989   0.75033   0.00000  Uiso   1.00
C925   C     0.46137   0.52368   0.90604   0.00000  Uiso   1.00
C926   C     0.53858   0.64521   0.71405   0.00000  Uiso   1.00
C927   C     0.47472   0.50660   0.85087   0.00000  Uiso   1.00
C928   C     0.53766   0.35493   0.71244   0.00000  Uiso   1.00
C929   C     0.49994   0.37602   0.74983   0.00000  Uiso   1.00
C930   C     0.46249   0.35503   0.78785   0.00000  Uiso   1.00
C931   C     0.46216   0.64526   0.78758   0.00000  Uiso   1.00
C932   C     0.50018   0.62412   0.75064   0.00000  Uiso   1.00
C933   C     0.64638   0.46489   0.73674   0.00000  Uiso   1.00
C934   C     0.36096   0.46491   0.73669   0.00000  Uiso   1.00
C935   C     0.48278   0.53664   0.98767   0.00000  Uiso   1.00
C936   C     0.35366   0.53514   0.76310   0.00000  Uiso   1.00
C937   C     0.63916   0.53516   0.76295   0.00000  Uiso   1.00
C938   C     0.50002   0.42017   0.74977   0.00000  Uiso   1.00
C939   C     0.52587   0.50179   0.64822   0.00000  Uiso   1.00
C940   C     0.59856   0.50303   0.50278   0.00000  Uiso   1.00
C941   C     0.54082   0.50970   0.59068   0.00000  Uiso   1.00
C942   C     0.41329   0.53001   0.93468   0.00000  Uiso   1.00
C943   C     0.39985   0.54307   0.98850   0.00000  Uiso   1.00
C944   C     0.43353   0.54131   0.51594   0.00000  Uiso   1.00
C945   C     0.57452   0.37724   0.67140   0.00000  Uiso   1.00
C946   C     0.49644   0.53365   0.93101   0.00000  Uiso   1.00
C947   C     0.42526   0.37757   0.82812   0.00000  Uiso   1.00
C948   C     0.42370   0.62292   0.82640   0.00000  Uiso   1.00
C949   C     0.47828   0.56281   0.60178   0.00000  Uiso   1.00
C950   C     0.33777   0.58579   0.98712   0.00000  Uiso   1.00
C951   C     0.62865   0.60923   0.52460   0.00000  Uiso   1.00
C952   C     0.60454   0.63670   0.99315   0.00000  Uiso   1.00
C953   C     0.57907   0.62275   0.67874   0.00000  Uiso   1.00
C954   C     0.51899   0.53113   0.51278   0.00000  Uiso   1.00
C955   C     0.56596   0.52075   0.98016   0.00000  Uiso   1.00
C956   C     0.57966   0.52880   0.92534   0.00000  Uiso   1.00
C957   C     0.54520   0.53851   0.90175   0.00000  Uiso   1.00
C958   C     0.51042   0.53216   0.56863   0.00000  Uiso   1.00
C959   C     0.58497   0.49537   0.55770   0.00000  Uiso   1.00
H960   H     0.60929   0.47935   0.57456   0.00000  Uiso   1.00
H961   H     0.55728   0.54791   0.86010   0.00000  Uiso   1.00
H962   H     0.65982   0.57090   0.95475   0.00000  Uiso   1.00
H963   H     0.36625   0.60917   0.96886   0.00000  Uiso   1.00
H964   H     0.60209   0.58678   0.54920   0.00000  Uiso   1.00
H965   H     0.64139   0.62928   0.55187   0.00000  Uiso   1.00
H966   H     0.63035   0.65959   0.96825   0.00000  Uiso   1.00
H967   H     0.57458   0.65390   0.52169   0.00000  Uiso   1.00
H968   H     0.59010   0.61733   0.96664   0.00000  Uiso   1.00
H969   H     0.63135   0.43676   0.72604   0.00000  Uiso   1.00
H970   H     0.38194   0.43681   0.72590   0.00000  Uiso   1.00
H971   H     0.36874   0.56331   0.77355   0.00000  Uiso   1.00
H972   H     0.61839   0.56340   0.77318   0.00000  Uiso   1.00
H973   H     0.61666   0.52669   0.90060   0.00000  Uiso   1.00
H974   H     0.63375   0.49367   0.97773   0.00000  Uiso   1.00
H975   H     0.38631   0.52511   0.91524   0.00000  Uiso   1.00
H976   H     0.41970   0.54371   0.55900   0.00000  Uiso   1.00
N977   N     0.38093   0.50001   0.75001   0.00000  Uiso   1.00
N978   N     0.61906   0.49998   0.75000   0.00000  Uiso   1.00
N979   N     0.60379   0.39495   0.63868   0.00000  Uiso   1.00
N980   N     0.39567   0.39550   0.86014   0.00000  Uiso   1.00
N981   N     0.39294   0.60521   0.85715   0.00000  Uiso   1.00
N982   N     0.45295   0.58736   0.62837   0.00000  Uiso   1.00
N983   N     0.61142   0.60452   0.65151   0.00000  Uiso   1.00
O984   O     0.46179   0.56108   0.75000   0.00000  Uiso   1.00
O985   O     0.53823   0.56107   0.75000   0.00000  Uiso   1.00
O986   O     0.44280   0.50000   0.82681   0.00000  Uiso   1.00
O987   O     0.51924   0.49999   0.82681   0.00000  Uiso   1.00
O988   O     0.46177   0.43893   0.74999   0.00000  Uiso   1.00
O989   O     0.53821   0.43892   0.74999   0.00000  Uiso   1.00
O990   O     0.48076   0.50001   0.67319   0.00000  Uiso   1.00
O991   O     0.55720   0.50000   0.67319   0.00000  Uiso   1.00
O992   O     0.35349   0.55488   0.51647   0.00000  Uiso   1.00
Zn993  Zn    0.44896   0.50001   0.75000   0.00000  Uiso   1.00
Zn994  Zn    0.55104   0.49999   0.75000   0.00000  Uiso   1.00
C995   C     0.83332   0.57989   0.75033   0.00000  Uiso   1.00
C996   C     0.79471   0.52368   0.90604   0.00000  Uiso   1.00
C997   C     0.87192   0.64521   0.71405   0.00000  Uiso   1.00
C998   C     0.80805   0.50660   0.85087   0.00000  Uiso   1.00
C999   C     0.87100   0.35493   0.71244   0.00000  Uiso   1.00
C1000  C     0.83327   0.37602   0.74983   0.00000  Uiso   1.00
C1001  C     0.79582   0.35503   0.78785   0.00000  Uiso   1.00
C1002  C     0.79549   0.64526   0.78758   0.00000  Uiso   1.00
C1003  C     0.83352   0.62412   0.75064   0.00000  Uiso   1.00
C1004  C     0.97971   0.46489   0.73674   0.00000  Uiso   1.00
C1005  C     0.69429   0.46491   0.73669   0.00000  Uiso   1.00
C1006  C     0.81611   0.53664   0.98767   0.00000  Uiso   1.00
C1007  C     0.68700   0.53514   0.76310   0.00000  Uiso   1.00
C1008  C     0.97249   0.53516   0.76295   0.00000  Uiso   1.00
C1009  C     0.83336   0.42017   0.74977   0.00000  Uiso   1.00
C1010  C     0.85920   0.50179   0.64822   0.00000  Uiso   1.00
C1011  C     0.93190   0.50303   0.50278   0.00000  Uiso   1.00
C1012  C     0.87416   0.50970   0.59068   0.00000  Uiso   1.00
C1013  C     0.74662   0.53001   0.93468   0.00000  Uiso   1.00
C1014  C     0.73318   0.54307   0.98850   0.00000  Uiso   1.00
C1015  C     0.76686   0.54131   0.51594   0.00000  Uiso   1.00
C1016  C     0.90785   0.37724   0.67140   0.00000  Uiso   1.00
C1017  C     0.82977   0.53365   0.93101   0.00000  Uiso   1.00
C1018  C     0.75859   0.37757   0.82812   0.00000  Uiso   1.00
C1019  C     0.75703   0.62292   0.82640   0.00000  Uiso   1.00
C1020  C     0.81162   0.56281   0.60178   0.00000  Uiso   1.00
C1021  C     0.67111   0.58579   0.98712   0.00000  Uiso   1.00
C1022  C     0.96199   0.60923   0.52460   0.00000  Uiso   1.00
C1023  C     0.93787   0.63670   0.99315   0.00000  Uiso   1.00
C1024  C     0.91241   0.62275   0.67874   0.00000  Uiso   1.00
C1025  C     0.85232   0.53113   0.51278   0.00000  Uiso   1.00
C1026  C     0.89930   0.52075   0.98016   0.00000  Uiso   1.00
C1027  C     0.91300   0.52880   0.92534   0.00000  Uiso   1.00
C1028  C     0.87853   0.53851   0.90175   0.00000  Uiso   1.00
C1029  C     0.84375   0.53216   0.56863   0.00000  Uiso   1.00
C1030  C     0.91830   0.49537   0.55770   0.00000  Uiso   1.00
H1031  H     0.94262   0.47935   0.57456   0.00000  Uiso   1.00
H1032  H     0.89061   0.54791   0.86010   0.00000  Uiso   1.00
H1033  H     0.99315   0.57090   0.95475   0.00000  Uiso   1.00
H1034  H     0.69958   0.60917   0.96886   0.00000  Uiso   1.00
H1035  H     0.93542   0.58678   0.54920   0.00000  Uiso   1.00
H1036  H     0.97473   0.62928   0.55187   0.00000  Uiso   1.00
H1037  H     0.96368   0.65959   0.96825   0.00000  Uiso   1.00
H1038  H     0.90792   0.65390   0.52169   0.00000  Uiso   1.00
H1039  H     0.92343   0.61733   0.96664   0.00000  Uiso   1.00
H1040  H     0.96469   0.43676   0.72604   0.00000  Uiso   1.00
H1041  H     0.71527   0.43681   0.72590   0.00000  Uiso   1.00
H1042  H     0.70207   0.56331   0.77355   0.00000  Uiso   1.00
H1043  H     0.95172   0.56340   0.77318   0.00000  Uiso   1.00
H1044  H     0.94999   0.52669   0.90060   0.00000  Uiso   1.00
H1045  H     0.96708   0.49367   0.97773   0.00000  Uiso   1.00
H1046  H     0.71965   0.52511   0.91524   0.00000  Uiso   1.00
H1047  H     0.75304   0.54371   0.55900   0.00000  Uiso   1.00
N1048  N     0.71426   0.50001   0.75001   0.00000  Uiso   1.00
N1049  N     0.95239   0.49998   0.75000   0.00000  Uiso   1.00
N1050  N     0.93712   0.39495   0.63868   0.00000  Uiso   1.00
N1051  N     0.72900   0.39550   0.86014   0.00000  Uiso   1.00
N1052  N     0.72628   0.60521   0.85715   0.00000  Uiso   1.00
N1053  N     0.78628   0.58736   0.62837   0.00000  Uiso   1.00
N1054  N     0.94475   0.60452   0.65151   0.00000  Uiso   1.00
O1055  O     0.79512   0.56108   0.75000   0.00000  Uiso   1.00
O1056  O     0.87157   0.56107   0.75000   0.00000  Uiso   1.00
O1057  O     0.77613   0.50000   0.82681   0.00000  Uiso   1.00
O1058  O     0.85258   0.49999   0.82681   0.00000  Uiso   1.00
O1059  O     0.79510   0.43893   0.74999   0.00000  Uiso   1.00
O1060  O     0.87154   0.43892   0.74999   0.00000  Uiso   1.00
O1061  O     0.81409   0.50001   0.67319   0.00000  Uiso   1.00
O1062  O     0.89053   0.50000   0.67319   0.00000  Uiso   1.00
O1063  O     0.68683   0.55488   0.51647   0.00000  Uiso   1.00
Zn1064 Zn    0.78229   0.50001   0.75000   0.00000  Uiso   1.00
Zn1065 Zn    0.88438   0.49999   0.75000   0.00000  Uiso   1.00
C1066  C     0.16665   0.91322   0.75033   0.00000  Uiso   1.00
C1067  C     0.12804   0.85701   0.90604   0.00000  Uiso   1.00
C1068  C     0.20525   0.97855   0.71405   0.00000  Uiso   1.00
C1069  C     0.14138   0.83994   0.85087   0.00000  Uiso   1.00
C1070  C     0.20433   0.68826   0.71244   0.00000  Uiso   1.00
C1071  C     0.16660   0.70936   0.74983   0.00000  Uiso   1.00
C1072  C     0.12915   0.68836   0.78785   0.00000  Uiso   1.00
C1073  C     0.12882   0.97859   0.78758   0.00000  Uiso   1.00
C1074  C     0.16685   0.95745   0.75064   0.00000  Uiso   1.00
C1075  C     0.31305   0.79822   0.73674   0.00000  Uiso   1.00
C1076  C     0.02763   0.79824   0.73669   0.00000  Uiso   1.00
C1077  C     0.14945   0.86997   0.98767   0.00000  Uiso   1.00
C1078  C     0.02033   0.86847   0.76310   0.00000  Uiso   1.00
C1079  C     0.30582   0.86849   0.76295   0.00000  Uiso   1.00
C1080  C     0.16669   0.75350   0.74977   0.00000  Uiso   1.00
C1081  C     0.19254   0.83512   0.64822   0.00000  Uiso   1.00
C1082  C     0.26523   0.83636   0.50278   0.00000  Uiso   1.00
C1083  C     0.20749   0.84303   0.59068   0.00000  Uiso   1.00
C1084  C     0.07996   0.86334   0.93468   0.00000  Uiso   1.00
C1085  C     0.06651   0.87641   0.98850   0.00000  Uiso   1.00
C1086  C     0.10019   0.87465   0.51594   0.00000  Uiso   1.00
C1087  C     0.24119   0.71057   0.67140   0.00000  Uiso   1.00
C1088  C     0.16311   0.86699   0.93101   0.00000  Uiso   1.00
C1089  C     0.09193   0.71091   0.82812   0.00000  Uiso   1.00
C1090  C     0.09037   0.95625   0.82640   0.00000  Uiso   1.00
C1091  C     0.14495   0.89614   0.60178   0.00000  Uiso   1.00
C1092  C     0.00444   0.91912   0.98712   0.00000  Uiso   1.00
C1093  C     0.29532   0.94256   0.52460   0.00000  Uiso   1.00
C1094  C     0.27120   0.97003   0.99315   0.00000  Uiso   1.00
C1095  C     0.24574   0.95609   0.67874   0.00000  Uiso   1.00
C1096  C     0.18566   0.86447   0.51278   0.00000  Uiso   1.00
C1097  C     0.23263   0.85408   0.98016   0.00000  Uiso   1.00
C1098  C     0.24633   0.86213   0.92534   0.00000  Uiso   1.00
C1099  C     0.21186   0.87185   0.90175   0.00000  Uiso   1.00
C1100  C     0.17708   0.86550   0.56863   0.00000  Uiso   1.00
C1101  C     0.25163   0.82870   0.55770   0.00000  Uiso   1.00
H1102  H     0.27595   0.81268   0.57456   0.00000  Uiso   1.00
H1103  H     0.22395   0.88124   0.86010   0.00000  Uiso   1.00
H1104  H     0.32648   0.90423   0.95475   0.00000  Uiso   1.00
H1105  H     0.03291   0.94251   0.96886   0.00000  Uiso   1.00
H1106  H     0.26876   0.92011   0.54920   0.00000  Uiso   1.00
H1107  H     0.30806   0.96261   0.55187   0.00000  Uiso   1.00
H1108  H     0.29701   0.99293   0.96825   0.00000  Uiso   1.00
H1109  H     0.24125   0.98724   0.52169   0.00000  Uiso   1.00
H1110  H     0.25677   0.95067   0.96664   0.00000  Uiso   1.00
H1111  H     0.29802   0.77009   0.72604   0.00000  Uiso   1.00
H1112  H     0.04861   0.77014   0.72590   0.00000  Uiso   1.00
H1113  H     0.03540   0.89664   0.77355   0.00000  Uiso   1.00
H1114  H     0.28505   0.89673   0.77318   0.00000  Uiso   1.00
H1115  H     0.28333   0.86003   0.90060   0.00000  Uiso   1.00
H1116  H     0.30041   0.82700   0.97773   0.00000  Uiso   1.00
H1117  H     0.05298   0.85844   0.91524   0.00000  Uiso   1.00
H1118  H     0.08637   0.87705   0.55900   0.00000  Uiso   1.00
N1119  N     0.04760   0.83334   0.75001   0.00000  Uiso   1.00
N1120  N     0.28573   0.83331   0.75000   0.00000  Uiso   1.00
N1121  N     0.27046   0.72828   0.63868   0.00000  Uiso   1.00
N1122  N     0.06234   0.72883   0.86014   0.00000  Uiso   1.00
N1123  N     0.05961   0.93855   0.85715   0.00000  Uiso   1.00
N1124  N     0.11962   0.92069   0.62837   0.00000  Uiso   1.00
N1125  N     0.27808   0.93786   0.65151   0.00000  Uiso   1.00
O1126  O     0.12846   0.89442   0.75000   0.00000  Uiso   1.00
O1127  O     0.20490   0.89441   0.75000   0.00000  Uiso   1.00
O1128  O     0.10947   0.83333   0.82681   0.00000  Uiso   1.00
O1129  O     0.18591   0.83332   0.82681   0.00000  Uiso   1.00
O1130  O     0.12843   0.77226   0.74999   0.00000  Uiso   1.00
O1131  O     0.20488   0.77225   0.74999   0.00000  Uiso   1.00
O1132  O     0.14742   0.83335   0.67319   0.00000  Uiso   1.00
O1133  O     0.22387   0.83334   0.67319   0.00000  Uiso   1.00
O1134  O     0.02016   0.88821   0.51647   0.00000  Uiso   1.00
Zn1135 Zn    0.11562   0.83334   0.75000   0.00000  Uiso   1.00
Zn1136 Zn    0.21771   0.83333   0.75000   0.00000  Uiso   1.00
C1137  C     0.49998   0.91322   0.75033   0.00000  Uiso   1.00
C1138  C     0.46137   0.85701   0.90604   0.00000  Uiso   1.00
C1139  C     0.53858   0.97855   0.71405   0.00000  Uiso   1.00
C1140  C     0.47472   0.83994   0.85087   0.00000  Uiso   1.00
C1141  C     0.53766   0.68826   0.71244   0.00000  Uiso   1.00
C1142  C     0.49994   0.70936   0.74983   0.00000  Uiso   1.00
C1143  C     0.46249   0.68836   0.78785   0.00000  Uiso   1.00
C1144  C     0.46216   0.97859   0.78758   0.00000  Uiso   1.00
C1145  C     0.50018   0.95745   0.75064   0.00000  Uiso   1.00
C1146  C     0.64638   0.79822   0.73674   0.00000  Uiso   1.00
C1147  C     0.36096   0.79824   0.73669   0.00000  Uiso   1.00
C1148  C     0.48278   0.86997   0.98767   0.00000  Uiso   1.00
C1149  C     0.35366   0.86847   0.76310   0.00000  Uiso   1.00
C1150  C     0.63916   0.86849   0.76295   0.00000  Uiso   1.00
C1151  C     0.50002   0.75350   0.74977   0.00000  Uiso   1.00
C1152  C     0.52587   0.83512   0.64822   0.00000  Uiso   1.00
C1153  C     0.59856   0.83636   0.50278   0.00000  Uiso   1.00
C1154  C     0.54082   0.84303   0.59068   0.00000  Uiso   1.00
C1155  C     0.41329   0.86334   0.93468   0.00000  Uiso   1.00
C1156  C     0.39985   0.87641   0.98850   0.00000  Uiso   1.00
C1157  C     0.43353   0.87465   0.51594   0.00000  Uiso   1.00
C1158  C     0.57452   0.71057   0.67140   0.00000  Uiso   1.00
C1159  C     0.49644   0.86699   0.93101   0.00000  Uiso   1.00
C1160  C     0.42526   0.71091   0.82812   0.00000  Uiso   1.00
C1161  C     0.42370   0.95625   0.82640   0.00000  Uiso   1.00
C1162  C     0.47828   0.89614   0.60178   0.00000  Uiso   1.00
C1163  C     0.33777   0.91912   0.98712   0.00000  Uiso   1.00
C1164  C     0.62865   0.94256   0.52460   0.00000  Uiso   1.00
C1165  C     0.60454   0.97003   0.99315   0.00000  Uiso   1.00
C1166  C     0.57907   0.95609   0.67874   0.00000  Uiso   1.00
C1167  C     0.51899   0.86447   0.51278   0.00000  Uiso   1.00
C1168  C     0.56596   0.85408   0.98016   0.00000  Uiso   1.00
C1169  C     0.57966   0.86213   0.92534   0.00000  Uiso   1.00
C1170  C     0.54520   0.87185   0.90175   0.00000  Uiso   1.00
C1171  C     0.51042   0.86550   0.56863   0.00000  Uiso   1.00
C1172  C     0.58497   0.82870   0.55770   0.00000  Uiso   1.00
H1173  H     0.60929   0.81268   0.57456   0.00000  Uiso   1.00
H1174  H     0.55728   0.88124   0.86010   0.00000  Uiso   1.00
H1175  H     0.65982   0.90423   0.95475   0.00000  Uiso   1.00
H1176  H     0.36625   0.94251   0.96886   0.00000  Uiso   1.00
H1177  H     0.60209   0.92011   0.54920   0.00000  Uiso   1.00
H1178  H     0.64139   0.96261   0.55187   0.00000  Uiso   1.00
H1179  H     0.63035   0.99293   0.96825   0.00000  Uiso   1.00
H1180  H     0.57458   0.98724   0.52169   0.00000  Uiso   1.00
H1181  H     0.59010   0.95067   0.96664   0.00000  Uiso   1.00
H1182  H     0.63135   0.77009   0.72604   0.00000  Uiso   1.00
H1183  H     0.38194   0.77014   0.72590   0.00000  Uiso   1.00
H1184  H     0.36874   0.89664   0.77355   0.00000  Uiso   1.00
H1185  H     0.61839   0.89673   0.77318   0.00000  Uiso   1.00
H1186  H     0.61666   0.86003   0.90060   0.00000  Uiso   1.00
H1187  H     0.63375   0.82700   0.97773   0.00000  Uiso   1.00
H1188  H     0.38631   0.85844   0.91524   0.00000  Uiso   1.00
H1189  H     0.41970   0.87705   0.55900   0.00000  Uiso   1.00
N1190  N     0.38093   0.83334   0.75001   0.00000  Uiso   1.00
N1191  N     0.61906   0.83331   0.75000   0.00000  Uiso   1.00
N1192  N     0.60379   0.72828   0.63868   0.00000  Uiso   1.00
N1193  N     0.39567   0.72883   0.86014   0.00000  Uiso   1.00
N1194  N     0.39294   0.93855   0.85715   0.00000  Uiso   1.00
N1195  N     0.45295   0.92069   0.62837   0.00000  Uiso   1.00
N1196  N     0.61142   0.93786   0.65151   0.00000  Uiso   1.00
O1197  O     0.46179   0.89442   0.75000   0.00000  Uiso   1.00
O1198  O     0.53823   0.89441   0.75000   0.00000  Uiso   1.00
O1199  O     0.44280   0.83333   0.82681   0.00000  Uiso   1.00
O1200  O     0.51924   0.83332   0.82681   0.00000  Uiso   1.00
O1201  O     0.46177   0.77226   0.74999   0.00000  Uiso   1.00
O1202  O     0.53821   0.77225   0.74999   0.00000  Uiso   1.00
O1203  O     0.48076   0.83335   0.67319   0.00000  Uiso   1.00
O1204  O     0.55720   0.83334   0.67319   0.00000  Uiso   1.00
O1205  O     0.35349   0.88821   0.51647   0.00000  Uiso   1.00
Zn1206 Zn    0.44896   0.83334   0.75000   0.00000  Uiso   1.00
Zn1207 Zn    0.55104   0.83333   0.75000   0.00000  Uiso   1.00
C1208  C     0.83332   0.91322   0.75033   0.00000  Uiso   1.00
C1209  C     0.79471   0.85701   0.90604   0.00000  Uiso   1.00
C1210  C     0.87192   0.97855   0.71405   0.00000  Uiso   1.00
C1211  C     0.80805   0.83994   0.85087   0.00000  Uiso   1.00
C1212  C     0.87100   0.68826   0.71244   0.00000  Uiso   1.00
C1213  C     0.83327   0.70936   0.74983   0.00000  Uiso   1.00
C1214  C     0.79582   0.68836   0.78785   0.00000  Uiso   1.00
C1215  C     0.79549   0.97859   0.78758   0.00000  Uiso   1.00
C1216  C     0.83352   0.95745   0.75064   0.00000  Uiso   1.00
C1217  C     0.97971   0.79822   0.73674   0.00000  Uiso   1.00
C1218  C     0.69429   0.79824   0.73669   0.00000  Uiso   1.00
C1219  C     0.81611   0.86997   0.98767   0.00000  Uiso   1.00
C1220  C     0.68700   0.86847   0.76310   0.00000  Uiso   1.00
C1221  C     0.97249   0.86849   0.76295   0.00000  Uiso   1.00
C1222  C     0.83336   0.75350   0.74977   0.00000  Uiso   1.00
C1223  C     0.85920   0.83512   0.64822   0.00000  Uiso   1.00
C1224  C     0.93190   0.83636   0.50278   0.00000  Uiso   1.00
C1225  C     0.87416   0.84303   0.59068   0.00000  Uiso   1.00
C1226  C     0.74662   0.86334   0.93468   0.00000  Uiso   1.00
C1227  C     0.73318   0.87641   0.98850   0.00000  Uiso   1.00
C1228  C     0.76686   0.87465   0.51594   0.00000  Uiso   1.00
C1229  C     0.90785   0.71057   0.67140   0.00000  Uiso   1.00
C1230  C     0.82977   0.86699   0.93101   0.00000  Uiso   1.00
C1231  C     0.75859   0.71091   0.82812   0.00000  Uiso   1.00
C1232  C     0.75703   0.95625   0.82640   0.00000  Uiso   1.00
C1233  C     0.81162   0.89614   0.60178   0.00000  Uiso   1.00
C1234  C     0.67111   0.91912   0.98712   0.00000  Uiso   1.00
C1235  C     0.96199   0.94256   0.52460   0.00000  Uiso   1.00
C1236  C     0.93787   0.97003   0.99315   0.00000  Uiso   1.00
C1237  C     0.91241   0.95609   0.67874   0.00000  Uiso   1.00
C1238  C     0.85232   0.86447   0.51278   0.00000  Uiso   1.00
C1239  C     0.89930   0.85408   0.98016   0.00000  Uiso   1.00
C1240  C     0.91300   0.86213   0.92534   0.00000  Uiso   1.00
C1241  C     0.87853   0.87185   0.90175   0.00000  Uiso   1.00
C1242  C     0.84375   0.86550   0.56863   0.00000  Uiso   1.00
C1243  C     0.91830   0.82870   0.55770   0.00000  Uiso   1.00
H1244  H     0.94262   0.81268   0.57456   0.00000  Uiso   1.00
H1245  H     0.89061   0.88124   0.86010   0.00000  Uiso   1.00
H1246  H     0.99315   0.90423   0.95475   0.00000  Uiso   1.00
H1247  H     0.69958   0.94251   0.96886   0.00000  Uiso   1.00
H1248  H     0.93542   0.92011   0.54920   0.00000  Uiso   1.00
H1249  H     0.97473   0.96261   0.55187   0.00000  Uiso   1.00
H1250  H     0.96368   0.99293   0.96825   0.00000  Uiso   1.00
H1251  H     0.90792   0.98724   0.52169   0.00000  Uiso   1.00
H1252  H     0.92343   0.95067   0.96664   0.00000  Uiso   1.00
H1253  H     0.96469   0.77009   0.72604   0.00000  Uiso   1.00
H1254  H     0.71527   0.77014   0.72590   0.00000  Uiso   1.00
H1255  H     0.70207   0.89664   0.77355   0.00000  Uiso   1.00
H1256  H     0.95172   0.89673   0.77318   0.00000  Uiso   1.00
H1257  H     0.94999   0.86003   0.90060   0.00000  Uiso   1.00
H1258  H     0.96708   0.82700   0.97773   0.00000  Uiso   1.00
H1259  H     0.71965   0.85844   0.91524   0.00000  Uiso   1.00
H1260  H     0.75304   0.87705   0.55900   0.00000  Uiso   1.00
N1261  N     0.71426   0.83334   0.75001   0.00000  Uiso   1.00
N1262  N     0.95239   0.83331   0.75000   0.00000  Uiso   1.00
N1263  N     0.93712   0.72828   0.63868   0.00000  Uiso   1.00
N1264  N     0.72900   0.72883   0.86014   0.00000  Uiso   1.00
N1265  N     0.72628   0.93855   0.85715   0.00000  Uiso   1.00
N1266  N     0.78628   0.92069   0.62837   0.00000  Uiso   1.00
N1267  N     0.94475   0.93786   0.65151   0.00000  Uiso   1.00
O1268  O     0.79512   0.89442   0.75000   0.00000  Uiso   1.00
O1269  O     0.87157   0.89441   0.75000   0.00000  Uiso   1.00
O1270  O     0.77613   0.83333   0.82681   0.00000  Uiso   1.00
O1271  O     0.85258   0.83332   0.82681   0.00000  Uiso   1.00
O1272  O     0.79510   0.77226   0.74999   0.00000  Uiso   1.00
O1273  O     0.87154   0.77225   0.74999   0.00000  Uiso   1.00
O1274  O     0.81409   0.83335   0.67319   0.00000  Uiso   1.00
O1275  O     0.89053   0.83334   0.67319   0.00000  Uiso   1.00
O1276  O     0.68683   0.88821   0.51647   0.00000  Uiso   1.00
Zn1277 Zn    0.78229   0.83334   0.75000   0.00000  Uiso   1.00
Zn1278 Zn    0.88438   0.83333   0.75000   0.00000  Uiso   1.00
loop_
_geom_bond_atom_site_label_1
_geom_bond_atom_site_label_2
_geom_bond_distance
_geom_bond_site_symmetry_2
_ccdc_geom_bond_type
C1     O61     1.282   .     A
C1     C9      1.420   .     S
C1     O62     1.279   .     A
C2     C4      1.478   .     S
C2     C23     1.423   .     A
C2     C19     1.398   .     A
C3     C30     1.454   .     S
C3     C9      1.407   .     A
C3     C218    1.383   .     S
C4     O64     1.286   .     A
C4     O63     1.304   .     A
C5     C6      1.406   .     A
C5     C22     1.455   .     S
C5     C429    1.383   1_545 S
C6     C7      1.406   .     A
C6     C15     1.417   .     S
C7     C24     1.456   .     S
C7     C434    1.384   1_545 S
C8     C25     1.454   .     S
C8     C9      1.407   .     A
C8     C220    1.384   .     S
C10    H46     1.081   .     S
C10    N55     1.366   .     A
C10    C82     1.415   .     S
C11    H47     1.081   .     S
C11    N54     1.366   .     A
C11    C152    1.415   1_455 S
C12    C23     1.412   .     A
C12    C660    1.419   .     S
C12    C670    1.431   .     S
C13    H48     1.080   .     S
C13    N54     1.366   .     A
C13    C156    1.414   1_455 S
C14    N55     1.367   .     A
C14    H49     1.081   .     S
C14    C84     1.414   .     S
C15    O65     1.279   .     A
C15    O66     1.280   .     A
C16    O68     1.290   .     A
C16    O67     1.289   .     A
C16    C18     1.452   .     S
C17    C36     1.387   .     A
C17    C671    1.399   1_554 S
C17    H690    1.084   1_554 S
C18    C35     1.408   .     A
C18    C36     1.398   .     A
C19    C20     1.402   .     A
C19    H52     1.082   .     S
C20    C660    1.398   .     S
C20    O708    1.389   .     S
C21    H53     1.074   .     S
C21    C651    1.419   1_554 S
C21    C659    1.398   1_554 S
C22    N56     1.157   .     T
C23    C34     1.412   .     A
C24    N57     1.157   .     T
C25    N58     1.157   .     T
C26    N59     1.158   .     T
C26    C35     1.452   .     S
C27    H40     1.117   .     S
C27    C809    1.527   1_455 S
C27    H181    1.111   1_455 S
C27    O708    1.419   .     S
C28    H42     1.110   .     S
C28    H41     1.110   .     S
C28    C737    1.527   1_554 S
C28    C668    1.526   1_554 S
C29    H43     1.111   .     S
C29    H45     1.111   .     S
C29    C667    1.526   .     S
C29    H683    1.110   .     S
C30    N60     1.157   .     T
C31    C35     1.403   .     A
C31    C651    1.431   1_554 S
C31    C671    1.423   1_554 S
C32    C33     1.387   .     A
C32    C670    1.423   .     S
C32    C656    1.399   .     S
C33    C34     1.381   .     A
C33    H50     1.084   .     S
C34    H38     1.078   .     S
C36    H37     1.083   .     S
H39    C98     1.111   .     S
H44    C668    1.110   1_554 S
H51    C656    1.084   .     S
N54    Zn70    2.009   .     S
N55    Zn71    2.009   .     S
O61    Zn70    1.997   .     S
O62    Zn71    1.997   .     S
O63    Zn70    1.960   .     S
O64    Zn71    1.934   .     S
O65    Zn70    1.997   .     S
O66    Zn71    1.997   .     S
O67    Zn70    1.934   .     S
O68    Zn71    1.960   .     S
O69    C659    1.389   1_554 S
O69    C666    1.419   1_554 S
C72    O132    1.282   .     A
C72    C80     1.420   .     S
C72    O133    1.279   .     A
C73    C75     1.478   .     S
C73    C94     1.423   .     A
C73    C90     1.398   .     A
C74    C101    1.454   .     S
C74    C80     1.407   .     A
C74    C289    1.383   .     S
C75    O135    1.286   .     A
C75    O134    1.304   .     A
C76    C77     1.406   .     A
C76    C93     1.455   .     S
C76    C500    1.383   1_545 S
C77    C78     1.406   .     A
C77    C86     1.417   .     S
C78    C95     1.456   .     S
C78    C505    1.384   1_545 S
C79    C96     1.454   .     S
C79    C80     1.407   .     A
C79    C291    1.384   .     S
C81    H117    1.081   .     S
C81    N126    1.366   .     A
C81    C153    1.415   .     S
C82    H118    1.081   .     S
C82    N125    1.366   .     A
C83    C94     1.412   .     A
C83    C731    1.419   .     S
C83    C741    1.431   .     S
C84    H119    1.080   .     S
C84    N125    1.366   .     A
C85    N126    1.367   .     A
C85    H120    1.081   .     S
C85    C155    1.414   .     S
C86    O136    1.279   .     A
C86    O137    1.280   .     A
C87    O139    1.290   .     A
C87    O138    1.289   .     A
C87    C89     1.452   .     S
C88    C107    1.387   .     A
C88    C742    1.399   1_554 S
C88    H761    1.084   1_554 S
C89    C106    1.408   .     A
C89    C107    1.398   .     A
C90    C91     1.402   .     A
C90    H123    1.082   .     S
C91    C731    1.398   .     S
C91    O779    1.389   .     S
C92    H124    1.074   .     S
C92    C722    1.419   1_554 S
C92    C730    1.398   1_554 S
C93    N127    1.157   .     T
C94    C105    1.412   .     A
C95    N128    1.157   .     T
C96    N129    1.157   .     T
C97    N130    1.158   .     T
C97    C106    1.452   .     S
C98    H111    1.117   .     S
C98    C667    1.527   .     S
C98    O779    1.419   .     S
C99    H113    1.110   .     S
C99    H112    1.110   .     S
C99    C808    1.527   1_554 S
C99    C739    1.526   1_554 S
C100   H114    1.111   .     S
C100   H116    1.111   .     S
C100   C738    1.526   .     S
C100   H754    1.110   .     S
C101   N131    1.157   .     T
C102   C106    1.403   .     A
C102   C722    1.431   1_554 S
C102   C742    1.423   1_554 S
C103   C104    1.387   .     A
C103   C741    1.423   .     S
C103   C727    1.399   .     S
C104   C105    1.381   .     A
C104   H121    1.084   .     S
C105   H109    1.078   .     S
C107   H108    1.083   .     S
H110   C169    1.111   .     S
H115   C739    1.110   1_554 S
H122   C727    1.084   .     S
N125   Zn141   2.009   .     S
N126   Zn142   2.009   .     S
O132   Zn141   1.997   .     S
O133   Zn142   1.997   .     S
O134   Zn141   1.960   .     S
O135   Zn142   1.934   .     S
O136   Zn141   1.997   .     S
O137   Zn142   1.997   .     S
O138   Zn141   1.934   .     S
O139   Zn142   1.960   .     S
O140   C730    1.389   1_554 S
O140   C737    1.419   1_554 S
C143   O203    1.282   .     A
C143   C151    1.420   .     S
C143   O204    1.279   .     A
C144   C146    1.478   .     S
C144   C165    1.423   .     A
C144   C161    1.398   .     A
C145   C172    1.454   .     S
C145   C151    1.407   .     A
C145   C360    1.383   .     S
C146   O206    1.286   .     A
C146   O205    1.304   .     A
C147   C148    1.406   .     A
C147   C164    1.455   .     S
C147   C571    1.383   1_545 S
C148   C149    1.406   .     A
C148   C157    1.417   .     S
C149   C166    1.456   .     S
C149   C576    1.384   1_545 S
C150   C167    1.454   .     S
C150   C151    1.407   .     A
C150   C362    1.384   .     S
C152   H188    1.081   .     S
C152   N197    1.366   .     A
C152   C11     1.415   1_655 S
C153   H189    1.081   .     S
C153   N196    1.366   .     A
C154   C165    1.412   .     A
C154   C802    1.419   .     S
C154   C812    1.431   .     S
C155   H190    1.080   .     S
C155   N196    1.366   .     A
C156   N197    1.367   .     A
C156   H191    1.081   .     S
C156   C13     1.414   1_655 S
C157   O207    1.279   .     A
C157   O208    1.280   .     A
C158   O210    1.290   .     A
C158   O209    1.289   .     A
C158   C160    1.452   .     S
C159   C178    1.387   .     A
C159   C813    1.399   1_554 S
C159   H832    1.084   1_554 S
C160   C177    1.408   .     A
C160   C178    1.398   .     A
C161   C162    1.402   .     A
C161   H194    1.082   .     S
C162   C802    1.398   .     S
C162   O850    1.389   .     S
C163   H195    1.074   .     S
C163   C793    1.419   1_554 S
C163   C801    1.398   1_554 S
C164   N198    1.157   .     T
C165   C176    1.412   .     A
C166   N199    1.157   .     T
C167   N200    1.157   .     T
C168   N201    1.158   .     T
C168   C177    1.452   .     S
C169   H182    1.117   .     S
C169   C738    1.527   .     S
C169   O850    1.419   .     S
C170   H184    1.110   .     S
C170   H183    1.110   .     S
C170   C666    1.527   1_654 S
C170   C810    1.526   1_554 S
C171   H185    1.111   .     S
C171   H187    1.111   .     S
C171   C809    1.526   .     S
C171   H825    1.110   .     S
C172   N202    1.157   .     T
C173   C177    1.403   .     A
C173   C793    1.431   1_554 S
C173   C813    1.423   1_554 S
C174   C175    1.387   .     A
C174   C812    1.423   .     S
C174   C798    1.399   .     S
C175   C176    1.381   .     A
C175   H192    1.084   .     S
C176   H180    1.078   .     S
C178   H179    1.083   .     S
H181   C27     1.111   1_655 S
H186   C810    1.110   1_554 S
H193   C798    1.084   .     S
N196   Zn212   2.009   .     S
N197   Zn213   2.009   .     S
O203   Zn212   1.997   .     S
O204   Zn213   1.997   .     S
O205   Zn212   1.960   .     S
O206   Zn213   1.934   .     S
O207   Zn212   1.997   .     S
O208   Zn213   1.997   .     S
O209   Zn212   1.934   .     S
O210   Zn213   1.960   .     S
O211   C801    1.389   1_554 S
O211   C808    1.419   1_554 S
C214   O274    1.282   .     A
C214   C222    1.420   .     S
C214   O275    1.279   .     A
C215   C217    1.478   .     S
C215   C236    1.423   .     A
C215   C232    1.398   .     A
C216   C243    1.454   .     S
C216   C222    1.407   .     A
C216   C431    1.383   .     S
C217   O277    1.286   .     A
C217   O276    1.304   .     A
C218   C219    1.406   .     A
C218   C235    1.455   .     S
C219   C220    1.406   .     A
C219   C228    1.417   .     S
C220   C237    1.456   .     S
C221   C238    1.454   .     S
C221   C222    1.407   .     A
C221   C433    1.384   .     S
C223   H259    1.081   .     S
C223   N268    1.366   .     A
C223   C295    1.415   .     S
C224   H260    1.081   .     S
C224   N267    1.366   .     A
C224   C365    1.415   1_455 S
C225   C236    1.412   .     A
C225   C873    1.419   .     S
C225   C883    1.431   .     S
C226   H261    1.080   .     S
C226   N267    1.366   .     A
C226   C369    1.414   1_455 S
C227   N268    1.367   .     A
C227   H262    1.081   .     S
C227   C297    1.414   .     S
C228   O278    1.279   .     A
C228   O279    1.280   .     A
C229   O281    1.290   .     A
C229   O280    1.289   .     A
C229   C231    1.452   .     S
C230   C249    1.387   .     A
C230   C884    1.399   1_554 S
C230   H903    1.084   1_554 S
C231   C248    1.408   .     A
C231   C249    1.398   .     A
C232   C233    1.402   .     A
C232   H265    1.082   .     S
C233   C873    1.398   .     S
C233   O921    1.389   .     S
C234   H266    1.074   .     S
C234   C864    1.419   1_554 S
C234   C872    1.398   1_554 S
C235   N269    1.157   .     T
C236   C247    1.412   .     A
C237   N270    1.157   .     T
C238   N271    1.157   .     T
C239   N272    1.158   .     T
C239   C248    1.452   .     S
C240   H253    1.117   .     S
C240   C1022   1.527   1_455 S
C240   H394    1.111   1_455 S
C240   O921    1.419   .     S
C241   H255    1.110   .     S
C241   H254    1.110   .     S
C241   C950    1.527   1_554 S
C241   C881    1.526   1_554 S
C242   H256    1.111   .     S
C242   H258    1.111   .     S
C242   C880    1.526   .     S
C242   H896    1.110   .     S
C243   N273    1.157   .     T
C244   C248    1.403   .     A
C244   C864    1.431   1_554 S
C244   C884    1.423   1_554 S
C245   C246    1.387   .     A
C245   C883    1.423   .     S
C245   C869    1.399   .     S
C246   C247    1.381   .     A
C246   H263    1.084   .     S
C247   H251    1.078   .     S
C249   H250    1.083   .     S
H252   C311    1.111   .     S
H257   C881    1.110   1_554 S
H264   C869    1.084   .     S
N267   Zn283   2.009   .     S
N268   Zn284   2.009   .     S
O274   Zn283   1.997   .     S
O275   Zn284   1.997   .     S
O276   Zn283   1.960   .     S
O277   Zn284   1.934   .     S
O278   Zn283   1.997   .     S
O279   Zn284   1.997   .     S
O280   Zn283   1.934   .     S
O281   Zn284   1.960   .     S
O282   C872    1.389   1_554 S
O282   C879    1.419   1_554 S
C285   O345    1.282   .     A
C285   C293    1.420   .     S
C285   O346    1.279   .     A
C286   C288    1.478   .     S
C286   C307    1.423   .     A
C286   C303    1.398   .     A
C287   C314    1.454   .     S
C287   C293    1.407   .     A
C287   C502    1.383   .     S
C288   O348    1.286   .     A
C288   O347    1.304   .     A
C289   C290    1.406   .     A
C289   C306    1.455   .     S
C290   C291    1.406   .     A
C290   C299    1.417   .     S
C291   C308    1.456   .     S
C292   C309    1.454   .     S
C292   C293    1.407   .     A
C292   C504    1.384   .     S
C294   H330    1.081   .     S
C294   N339    1.366   .     A
C294   C366    1.415   .     S
C295   H331    1.081   .     S
C295   N338    1.366   .     A
C296   C307    1.412   .     A
C296   C944    1.419   .     S
C296   C954    1.431   .     S
C297   H332    1.080   .     S
C297   N338    1.366   .     A
C298   N339    1.367   .     A
C298   H333    1.081   .     S
C298   C368    1.414   .     S
C299   O349    1.279   .     A
C299   O350    1.280   .     A
C300   O352    1.290   .     A
C300   O351    1.289   .     A
C300   C302    1.452   .     S
C301   C320    1.387   .     A
C301   C955    1.399   1_554 S
C301   H974    1.084   1_554 S
C302   C319    1.408   .     A
C302   C320    1.398   .     A
C303   C304    1.402   .     A
C303   H336    1.082   .     S
C304   C944    1.398   .     S
C304   O992    1.389   .     S
C305   H337    1.074   .     S
C305   C935    1.419   1_554 S
C305   C943    1.398   1_554 S
C306   N340    1.157   .     T
C307   C318    1.412   .     A
C308   N341    1.157   .     T
C309   N342    1.157   .     T
C310   N343    1.158   .     T
C310   C319    1.452   .     S
C311   H324    1.117   .     S
C311   C880    1.527   .     S
C311   O992    1.419   .     S
C312   H326    1.110   .     S
C312   H325    1.110   .     S
C312   C1021   1.527   1_554 S
C312   C952    1.526   1_554 S
C313   H327    1.111   .     S
C313   H329    1.111   .     S
C313   C951    1.526   .     S
C313   H967    1.110   .     S
C314   N344    1.157   .     T
C315   C319    1.403   .     A
C315   C935    1.431   1_554 S
C315   C955    1.423   1_554 S
C316   C317    1.387   .     A
C316   C954    1.423   .     S
C316   C940    1.399   .     S
C317   C318    1.381   .     A
C317   H334    1.084   .     S
C318   H322    1.078   .     S
C320   H321    1.083   .     S
H323   C382    1.111   .     S
H328   C952    1.110   1_554 S
H335   C940    1.084   .     S
N338   Zn354   2.009   .     S
N339   Zn355   2.009   .     S
O345   Zn354   1.997   .     S
O346   Zn355   1.997   .     S
O347   Zn354   1.960   .     S
O348   Zn355   1.934   .     S
O349   Zn354   1.997   .     S
O350   Zn355   1.997   .     S
O351   Zn354   1.934   .     S
O352   Zn355   1.960   .     S
O353   C943    1.389   1_554 S
O353   C950    1.419   1_554 S
C356   O416    1.282   .     A
C356   C364    1.420   .     S
C356   O417    1.279   .     A
C357   C359    1.478   .     S
C357   C378    1.423   .     A
C357   C374    1.398   .     A
C358   C385    1.454   .     S
C358   C364    1.407   .     A
C358   C573    1.383   .     S
C359   O419    1.286   .     A
C359   O418    1.304   .     A
C360   C361    1.406   .     A
C360   C377    1.455   .     S
C361   C362    1.406   .     A
C361   C370    1.417   .     S
C362   C379    1.456   .     S
C363   C380    1.454   .     S
C363   C364    1.407   .     A
C363   C575    1.384   .     S
C365   H401    1.081   .     S
C365   N410    1.366   .     A
C365   C224    1.415   1_655 S
C366   H402    1.081   .     S
C366   N409    1.366   .     A
C367   C378    1.412   .     A
C367   C1015   1.419   .     S
C367   C1025   1.431   .     S
C368   H403    1.080   .     S
C368   N409    1.366   .     A
C369   N410    1.367   .     A
C369   H404    1.081   .     S
C369   C226    1.414   1_655 S
C370   O420    1.279   .     A
C370   O421    1.280   .     A
C371   O423    1.290   .     A
C371   O422    1.289   .     A
C371   C373    1.452   .     S
C372   C391    1.387   .     A
C372   C1026   1.399   1_554 S
C372   H1045   1.084   1_554 S
C373   C390    1.408   .     A
C373   C391    1.398   .     A
C374   C375    1.402   .     A
C374   H407    1.082   .     S
C375   C1015   1.398   .     S
C375   O1063   1.389   .     S
C376   H408    1.074   .     S
C376   C1006   1.419   1_554 S
C376   C1014   1.398   1_554 S
C377   N411    1.157   .     T
C378   C389    1.412   .     A
C379   N412    1.157   .     T
C380   N413    1.157   .     T
C381   N414    1.158   .     T
C381   C390    1.452   .     S
C382   H395    1.117   .     S
C382   C951    1.527   .     S
C382   O1063   1.419   .     S
C383   H397    1.110   .     S
C383   H396    1.110   .     S
C383   C879    1.527   1_654 S
C383   C1023   1.526   1_554 S
C384   H398    1.111   .     S
C384   H400    1.111   .     S
C384   C1022   1.526   .     S
C384   H1038   1.110   .     S
C385   N415    1.157   .     T
C386   C390    1.403   .     A
C386   C1006   1.431   1_554 S
C386   C1026   1.423   1_554 S
C387   C388    1.387   .     A
C387   C1025   1.423   .     S
C387   C1011   1.399   .     S
C388   C389    1.381   .     A
C388   H405    1.084   .     S
C389   H393    1.078   .     S
C391   H392    1.083   .     S
H394   C240    1.111   1_655 S
H399   C1023   1.110   1_554 S
H406   C1011   1.084   .     S
N409   Zn425   2.009   .     S
N410   Zn426   2.009   .     S
O416   Zn425   1.997   .     S
O417   Zn426   1.997   .     S
O418   Zn425   1.960   .     S
O419   Zn426   1.934   .     S
O420   Zn425   1.997   .     S
O421   Zn426   1.997   .     S
O422   Zn425   1.934   .     S
O423   Zn426   1.960   .     S
O424   C1014   1.389   1_554 S
O424   C1021   1.419   1_554 S
C427   O487    1.282   .     A
C427   C435    1.420   .     S
C427   O488    1.279   .     A
C428   C430    1.478   .     S
C428   C449    1.423   .     A
C428   C445    1.398   .     A
C429   C456    1.454   .     S
C429   C435    1.407   .     A
C429   C5      1.383   1_565 S
C430   O490    1.286   .     A
C430   O489    1.304   .     A
C431   C432    1.406   .     A
C431   C448    1.455   .     S
C432   C433    1.406   .     A
C432   C441    1.417   .     S
C433   C450    1.456   .     S
C434   C451    1.454   .     S
C434   C435    1.407   .     A
C434   C7      1.384   1_565 S
C436   H472    1.081   .     S
C436   N481    1.366   .     A
C436   C508    1.415   .     S
C437   H473    1.081   .     S
C437   N480    1.366   .     A
C437   C578    1.415   1_455 S
C438   C449    1.412   .     A
C438   C1086   1.419   .     S
C438   C1096   1.431   .     S
C439   H474    1.080   .     S
C439   N480    1.366   .     A
C439   C582    1.414   1_455 S
C440   N481    1.367   .     A
C440   H475    1.081   .     S
C440   C510    1.414   .     S
C441   O491    1.279   .     A
C441   O492    1.280   .     A
C442   O494    1.290   .     A
C442   O493    1.289   .     A
C442   C444    1.452   .     S
C443   C462    1.387   .     A
C443   C1097   1.399   1_554 S
C443   H1116   1.084   1_554 S
C444   C461    1.408   .     A
C444   C462    1.398   .     A
C445   C446    1.402   .     A
C445   H478    1.082   .     S
C446   C1086   1.398   .     S
C446   O1134   1.389   .     S
C447   H479    1.074   .     S
C447   C1077   1.419   1_554 S
C447   C1085   1.398   1_554 S
C448   N482    1.157   .     T
C449   C460    1.412   .     A
C450   N483    1.157   .     T
C451   N484    1.157   .     T
C452   N485    1.158   .     T
C452   C461    1.452   .     S
C453   H466    1.117   .     S
C453   C1235   1.527   1_455 S
C453   H607    1.111   1_455 S
C453   O1134   1.419   .     S
C454   H468    1.110   .     S
C454   H467    1.110   .     S
C454   C1163   1.527   1_554 S
C454   C1094   1.526   1_554 S
C455   H469    1.111   .     S
C455   H471    1.111   .     S
C455   C1093   1.526   .     S
C455   H1109   1.110   .     S
C456   N486    1.157   .     T
C457   C461    1.403   .     A
C457   C1077   1.431   1_554 S
C457   C1097   1.423   1_554 S
C458   C459    1.387   .     A
C458   C1096   1.423   .     S
C458   C1082   1.399   .     S
C459   C460    1.381   .     A
C459   H476    1.084   .     S
C460   H464    1.078   .     S
C462   H463    1.083   .     S
H465   C524    1.111   .     S
H470   C1094   1.110   1_554 S
H477   C1082   1.084   .     S
N480   Zn496   2.009   .     S
N481   Zn497   2.009   .     S
O487   Zn496   1.997   .     S
O488   Zn497   1.997   .     S
O489   Zn496   1.960   .     S
O490   Zn497   1.934   .     S
O491   Zn496   1.997   .     S
O492   Zn497   1.997   .     S
O493   Zn496   1.934   .     S
O494   Zn497   1.960   .     S
O495   C1085   1.389   1_554 S
O495   C1092   1.419   1_554 S
C498   O558    1.282   .     A
C498   C506    1.420   .     S
C498   O559    1.279   .     A
C499   C501    1.478   .     S
C499   C520    1.423   .     A
C499   C516    1.398   .     A
C500   C527    1.454   .     S
C500   C506    1.407   .     A
C500   C76     1.383   1_565 S
C501   O561    1.286   .     A
C501   O560    1.304   .     A
C502   C503    1.406   .     A
C502   C519    1.455   .     S
C503   C504    1.406   .     A
C503   C512    1.417   .     S
C504   C521    1.456   .     S
C505   C522    1.454   .     S
C505   C506    1.407   .     A
C505   C78     1.384   1_565 S
C507   H543    1.081   .     S
C507   N552    1.366   .     A
C507   C579    1.415   .     S
C508   H544    1.081   .     S
C508   N551    1.366   .     A
C509   C520    1.412   .     A
C509   C1157   1.419   .     S
C509   C1167   1.431   .     S
C510   H545    1.080   .     S
C510   N551    1.366   .     A
C511   N552    1.367   .     A
C511   H546    1.081   .     S
C511   C581    1.414   .     S
C512   O562    1.279   .     A
C512   O563    1.280   .     A
C513   O565    1.290   .     A
C513   O564    1.289   .     A
C513   C515    1.452   .     S
C514   C533    1.387   .     A
C514   C1168   1.399   1_554 S
C514   H1187   1.084   1_554 S
C515   C532    1.408   .     A
C515   C533    1.398   .     A
C516   C517    1.402   .     A
C516   H549    1.082   .     S
C517   C1157   1.398   .     S
C517   O1205   1.389   .     S
C518   H550    1.074   .     S
C518   C1148   1.419   1_554 S
C518   C1156   1.398   1_554 S
C519   N553    1.157   .     T
C520   C531    1.412   .     A
C521   N554    1.157   .     T
C522   N555    1.157   .     T
C523   N556    1.158   .     T
C523   C532    1.452   .     S
C524   H537    1.117   .     S
C524   C1093   1.527   .     S
C524   O1205   1.419   .     S
C525   H539    1.110   .     S
C525   H538    1.110   .     S
C525   C1234   1.527   1_554 S
C525   C1165   1.526   1_554 S
C526   H540    1.111   .     S
C526   H542    1.111   .     S
C526   C1164   1.526   .     S
C526   H1180   1.110   .     S
C527   N557    1.157   .     T
C528   C532    1.403   .     A
C528   C1148   1.431   1_554 S
C528   C1168   1.423   1_554 S
C529   C530    1.387   .     A
C529   C1167   1.423   .     S
C529   C1153   1.399   .     S
C530   C531    1.381   .     A
C530   H547    1.084   .     S
C531   H535    1.078   .     S
C533   H534    1.083   .     S
H536   C595    1.111   .     S
H541   C1165   1.110   1_554 S
H548   C1153   1.084   .     S
N551   Zn567   2.009   .     S
N552   Zn568   2.009   .     S
O558   Zn567   1.997   .     S
O559   Zn568   1.997   .     S
O560   Zn567   1.960   .     S
O561   Zn568   1.934   .     S
O562   Zn567   1.997   .     S
O563   Zn568   1.997   .     S
O564   Zn567   1.934   .     S
O565   Zn568   1.960   .     S
O566   C1156   1.389   1_554 S
O566   C1163   1.419   1_554 S
C569   O629    1.282   .     A
C569   C577    1.420   .     S
C569   O630    1.279   .     A
C570   C572    1.478   .     S
C570   C591    1.423   .     A
C570   C587    1.398   .     A
C571   C598    1.454   .     S
C571   C577    1.407   .     A
C571   C147    1.383   1_565 S
C572   O632    1.286   .     A
C572   O631    1.304   .     A
C573   C574    1.406   .     A
C573   C590    1.455   .     S
C574   C575    1.406   .     A
C574   C583    1.417   .     S
C575   C592    1.456   .     S
C576   C593    1.454   .     S
C576   C577    1.407   .     A
C576   C149    1.384   1_565 S
C578   H614    1.081   .     S
C578   N623    1.366   .     A
C578   C437    1.415   1_655 S
C579   H615    1.081   .     S
C579   N622    1.366   .     A
C580   C591    1.412   .     A
C580   C1228   1.419   .     S
C580   C1238   1.431   .     S
C581   H616    1.080   .     S
C581   N622    1.366   .     A
C582   N623    1.367   .     A
C582   H617    1.081   .     S
C582   C439    1.414   1_655 S
C583   O633    1.279   .     A
C583   O634    1.280   .     A
C584   O636    1.290   .     A
C584   O635    1.289   .     A
C584   C586    1.452   .     S
C585   C604    1.387   .     A
C585   C1239   1.399   1_554 S
C585   H1258   1.084   1_554 S
C586   C603    1.408   .     A
C586   C604    1.398   .     A
C587   C588    1.402   .     A
C587   H620    1.082   .     S
C588   C1228   1.398   .     S
C588   O1276   1.389   .     S
C589   H621    1.074   .     S
C589   C1219   1.419   1_554 S
C589   C1227   1.398   1_554 S
C590   N624    1.157   .     T
C591   C602    1.412   .     A
C592   N625    1.157   .     T
C593   N626    1.157   .     T
C594   N627    1.158   .     T
C594   C603    1.452   .     S
C595   H608    1.117   .     S
C595   C1164   1.527   .     S
C595   O1276   1.419   .     S
C596   H610    1.110   .     S
C596   H609    1.110   .     S
C596   C1092   1.527   1_654 S
C596   C1236   1.526   1_554 S
C597   H611    1.111   .     S
C597   H613    1.111   .     S
C597   C1235   1.526   .     S
C597   H1251   1.110   .     S
C598   N628    1.157   .     T
C599   C603    1.403   .     A
C599   C1219   1.431   1_554 S
C599   C1239   1.423   1_554 S
C600   C601    1.387   .     A
C600   C1238   1.423   .     S
C600   C1224   1.399   .     S
C601   C602    1.381   .     A
C601   H618    1.084   .     S
C602   H606    1.078   .     S
C604   H605    1.083   .     S
H607   C453    1.111   1_655 S
H612   C1236   1.110   1_554 S
H619   C1224   1.084   .     S
N622   Zn638   2.009   .     S
N623   Zn639   2.009   .     S
O629   Zn638   1.997   .     S
O630   Zn639   1.997   .     S
O631   Zn638   1.960   .     S
O632   Zn639   1.934   .     S
O633   Zn638   1.997   .     S
O634   Zn639   1.997   .     S
O635   Zn638   1.934   .     S
O636   Zn639   1.960   .     S
O637   C1227   1.389   1_554 S
O637   C1234   1.419   1_554 S
C640   O700    1.282   .     A
C640   C648    1.420   .     S
C640   O701    1.279   .     A
C641   C643    1.478   .     S
C641   C662    1.423   .     A
C641   C658    1.398   .     A
C642   C669    1.454   .     S
C642   C648    1.407   .     A
C642   C857    1.383   .     S
C643   O703    1.286   .     A
C643   O702    1.304   .     A
C644   C645    1.406   .     A
C644   C661    1.455   .     S
C644   C1068   1.383   1_545 S
C645   C646    1.406   .     A
C645   C654    1.417   .     S
C646   C663    1.456   .     S
C646   C1073   1.384   1_545 S
C647   C664    1.454   .     S
C647   C648    1.407   .     A
C647   C859    1.384   .     S
C649   H685    1.081   .     S
C649   N694    1.366   .     A
C649   C721    1.415   .     S
C650   H686    1.081   .     S
C650   N693    1.366   .     A
C650   C791    1.415   1_455 S
C651   C662    1.412   .     A
C651   C21     1.419   1_556 S
C651   C31     1.431   1_556 S
C652   H687    1.080   .     S
C652   N693    1.366   .     A
C652   C795    1.414   1_455 S
C653   N694    1.367   .     A
C653   H688    1.081   .     S
C653   C723    1.414   .     S
C654   O704    1.279   .     A
C654   O705    1.280   .     A
C655   O707    1.290   .     A
C655   O706    1.289   .     A
C655   C657    1.452   .     S
C656   C675    1.387   .     A
C657   C674    1.408   .     A
C657   C675    1.398   .     A
C658   C659    1.402   .     A
C658   H691    1.082   .     S
C659   C21     1.398   1_556 S
C659   O69     1.389   1_556 S
C660   H692    1.074   .     S
C661   N695    1.157   .     T
C662   C673    1.412   .     A
C663   N696    1.157   .     T
C664   N697    1.157   .     T
C665   N698    1.158   .     T
C665   C674    1.452   .     S
C666   H679    1.117   .     S
C666   C170    1.527   1_456 S
C666   H820    1.111   1_455 S
C666   O69     1.419   1_556 S
C667   H681    1.110   .     S
C667   H680    1.110   .     S
C668   H682    1.111   .     S
C668   H684    1.111   .     S
C668   C28     1.526   1_556 S
C668   H44     1.110   1_556 S
C669   N699    1.157   .     T
C670   C674    1.403   .     A
C671   C672    1.387   .     A
C671   C31     1.423   1_556 S
C671   C17     1.399   1_556 S
C672   C673    1.381   .     A
C672   H689    1.084   .     S
C673   H677    1.078   .     S
C675   H676    1.083   .     S
H678   C737    1.111   .     S
H690   C17     1.084   1_556 S
N693   Zn709   2.009   .     S
N694   Zn710   2.009   .     S
O700   Zn709   1.997   .     S
O701   Zn710   1.997   .     S
O702   Zn709   1.960   .     S
O703   Zn710   1.934   .     S
O704   Zn709   1.997   .     S
O705   Zn710   1.997   .     S
O706   Zn709   1.934   .     S
O707   Zn710   1.960   .     S
C711   O771    1.282   .     A
C711   C719    1.420   .     S
C711   O772    1.279   .     A
C712   C714    1.478   .     S
C712   C733    1.423   .     A
C712   C729    1.398   .     A
C713   C740    1.454   .     S
C713   C719    1.407   .     A
C713   C928    1.383   .     S
C714   O774    1.286   .     A
C714   O773    1.304   .     A
C715   C716    1.406   .     A
C715   C732    1.455   .     S
C715   C1139   1.383   1_545 S
C716   C717    1.406   .     A
C716   C725    1.417   .     S
C717   C734    1.456   .     S
C717   C1144   1.384   1_545 S
C718   C735    1.454   .     S
C718   C719    1.407   .     A
C718   C930    1.384   .     S
C720   H756    1.081   .     S
C720   N765    1.366   .     A
C720   C792    1.415   .     S
C721   H757    1.081   .     S
C721   N764    1.366   .     A
C722   C733    1.412   .     A
C722   C92     1.419   1_556 S
C722   C102    1.431   1_556 S
C723   H758    1.080   .     S
C723   N764    1.366   .     A
C724   N765    1.367   .     A
C724   H759    1.081   .     S
C724   C794    1.414   .     S
C725   O775    1.279   .     A
C725   O776    1.280   .     A
C726   O778    1.290   .     A
C726   O777    1.289   .     A
C726   C728    1.452   .     S
C727   C746    1.387   .     A
C728   C745    1.408   .     A
C728   C746    1.398   .     A
C729   C730    1.402   .     A
C729   H762    1.082   .     S
C730   C92     1.398   1_556 S
C730   O140    1.389   1_556 S
C731   H763    1.074   .     S
C732   N766    1.157   .     T
C733   C744    1.412   .     A
C734   N767    1.157   .     T
C735   N768    1.157   .     T
C736   N769    1.158   .     T
C736   C745    1.452   .     S
C737   H750    1.117   .     S
C737   C28     1.527   1_556 S
C737   O140    1.419   1_556 S
C738   H752    1.110   .     S
C738   H751    1.110   .     S
C739   H753    1.111   .     S
C739   H755    1.111   .     S
C739   C99     1.526   1_556 S
C739   H115    1.110   1_556 S
C740   N770    1.157   .     T
C741   C745    1.403   .     A
C742   C743    1.387   .     A
C742   C102    1.423   1_556 S
C742   C88     1.399   1_556 S
C743   C744    1.381   .     A
C743   H760    1.084   .     S
C744   H748    1.078   .     S
C746   H747    1.083   .     S
H749   C808    1.111   .     S
H761   C88     1.084   1_556 S
N764   Zn780   2.009   .     S
N765   Zn781   2.009   .     S
O771   Zn780   1.997   .     S
O772   Zn781   1.997   .     S
O773   Zn780   1.960   .     S
O774   Zn781   1.934   .     S
O775   Zn780   1.997   .     S
O776   Zn781   1.997   .     S
O777   Zn780   1.934   .     S
O778   Zn781   1.960   .     S
C782   O842    1.282   .     A
C782   C790    1.420   .     S
C782   O843    1.279   .     A
C783   C785    1.478   .     S
C783   C804    1.423   .     A
C783   C800    1.398   .     A
C784   C811    1.454   .     S
C784   C790    1.407   .     A
C784   C999    1.383   .     S
C785   O845    1.286   .     A
C785   O844    1.304   .     A
C786   C787    1.406   .     A
C786   C803    1.455   .     S
C786   C1210   1.383   1_545 S
C787   C788    1.406   .     A
C787   C796    1.417   .     S
C788   C805    1.456   .     S
C788   C1215   1.384   1_545 S
C789   C806    1.454   .     S
C789   C790    1.407   .     A
C789   C1001   1.384   .     S
C791   H827    1.081   .     S
C791   N836    1.366   .     A
C791   C650    1.415   1_655 S
C792   H828    1.081   .     S
C792   N835    1.366   .     A
C793   C804    1.412   .     A
C793   C163    1.419   1_556 S
C793   C173    1.431   1_556 S
C794   H829    1.080   .     S
C794   N835    1.366   .     A
C795   N836    1.367   .     A
C795   H830    1.081   .     S
C795   C652    1.414   1_655 S
C796   O846    1.279   .     A
C796   O847    1.280   .     A
C797   O849    1.290   .     A
C797   O848    1.289   .     A
C797   C799    1.452   .     S
C798   C817    1.387   .     A
C799   C816    1.408   .     A
C799   C817    1.398   .     A
C800   C801    1.402   .     A
C800   H833    1.082   .     S
C801   C163    1.398   1_556 S
C801   O211    1.389   1_556 S
C802   H834    1.074   .     S
C803   N837    1.157   .     T
C804   C815    1.412   .     A
C805   N838    1.157   .     T
C806   N839    1.157   .     T
C807   N840    1.158   .     T
C807   C816    1.452   .     S
C808   H821    1.117   .     S
C808   C99     1.527   1_556 S
C808   O211    1.419   1_556 S
C809   H823    1.110   .     S
C809   H822    1.110   .     S
C809   C27     1.527   1_655 S
C810   H824    1.111   .     S
C810   H826    1.111   .     S
C810   C170    1.526   1_556 S
C810   H186    1.110   1_556 S
C811   N841    1.157   .     T
C812   C816    1.403   .     A
C813   C814    1.387   .     A
C813   C173    1.423   1_556 S
C813   C159    1.399   1_556 S
C814   C815    1.381   .     A
C814   H831    1.084   .     S
C815   H819    1.078   .     S
C817   H818    1.083   .     S
H820   C666    1.111   1_655 S
H832   C159    1.084   1_556 S
N835   Zn851   2.009   .     S
N836   Zn852   2.009   .     S
O842   Zn851   1.997   .     S
O843   Zn852   1.997   .     S
O844   Zn851   1.960   .     S
O845   Zn852   1.934   .     S
O846   Zn851   1.997   .     S
O847   Zn852   1.997   .     S
O848   Zn851   1.934   .     S
O849   Zn852   1.960   .     S
C853   O913    1.282   .     A
C853   C861    1.420   .     S
C853   O914    1.279   .     A
C854   C856    1.478   .     S
C854   C875    1.423   .     A
C854   C871    1.398   .     A
C855   C882    1.454   .     S
C855   C861    1.407   .     A
C855   C1070   1.383   .     S
C856   O916    1.286   .     A
C856   O915    1.304   .     A
C857   C858    1.406   .     A
C857   C874    1.455   .     S
C858   C859    1.406   .     A
C858   C867    1.417   .     S
C859   C876    1.456   .     S
C860   C877    1.454   .     S
C860   C861    1.407   .     A
C860   C1072   1.384   .     S
C862   H898    1.081   .     S
C862   N907    1.366   .     A
C862   C934    1.415   .     S
C863   H899    1.081   .     S
C863   N906    1.366   .     A
C863   C1004   1.415   1_455 S
C864   C875    1.412   .     A
C864   C234    1.419   1_556 S
C864   C244    1.431   1_556 S
C865   H900    1.080   .     S
C865   N906    1.366   .     A
C865   C1008   1.414   1_455 S
C866   N907    1.367   .     A
C866   H901    1.081   .     S
C866   C936    1.414   .     S
C867   O917    1.279   .     A
C867   O918    1.280   .     A
C868   O920    1.290   .     A
C868   O919    1.289   .     A
C868   C870    1.452   .     S
C869   C888    1.387   .     A
C870   C887    1.408   .     A
C870   C888    1.398   .     A
C871   C872    1.402   .     A
C871   H904    1.082   .     S
C872   C234    1.398   1_556 S
C872   O282    1.389   1_556 S
C873   H905    1.074   .     S
C874   N908    1.157   .     T
C875   C886    1.412   .     A
C876   N909    1.157   .     T
C877   N910    1.157   .     T
C878   N911    1.158   .     T
C878   C887    1.452   .     S
C879   H892    1.117   .     S
C879   C383    1.527   1_456 S
C879   H1033   1.111   1_455 S
C879   O282    1.419   1_556 S
C880   H894    1.110   .     S
C880   H893    1.110   .     S
C881   H895    1.111   .     S
C881   H897    1.111   .     S
C881   C241    1.526   1_556 S
C881   H257    1.110   1_556 S
C882   N912    1.157   .     T
C883   C887    1.403   .     A
C884   C885    1.387   .     A
C884   C244    1.423   1_556 S
C884   C230    1.399   1_556 S
C885   C886    1.381   .     A
C885   H902    1.084   .     S
C886   H890    1.078   .     S
C888   H889    1.083   .     S
H891   C950    1.111   .     S
H903   C230    1.084   1_556 S
N906   Zn922   2.009   .     S
N907   Zn923   2.009   .     S
O913   Zn922   1.997   .     S
O914   Zn923   1.997   .     S
O915   Zn922   1.960   .     S
O916   Zn923   1.934   .     S
O917   Zn922   1.997   .     S
O918   Zn923   1.997   .     S
O919   Zn922   1.934   .     S
O920   Zn923   1.960   .     S
C924   O984    1.282   .     A
C924   C932    1.420   .     S
C924   O985    1.279   .     A
C925   C927    1.478   .     S
C925   C946    1.423   .     A
C925   C942    1.398   .     A
C926   C953    1.454   .     S
C926   C932    1.407   .     A
C926   C1141   1.383   .     S
C927   O987    1.286   .     A
C927   O986    1.304   .     A
C928   C929    1.406   .     A
C928   C945    1.455   .     S
C929   C930    1.406   .     A
C929   C938    1.417   .     S
C930   C947    1.456   .     S
C931   C948    1.454   .     S
C931   C932    1.407   .     A
C931   C1143   1.384   .     S
C933   H969    1.081   .     S
C933   N978    1.366   .     A
C933   C1005   1.415   .     S
C934   H970    1.081   .     S
C934   N977    1.366   .     A
C935   C946    1.412   .     A
C935   C305    1.419   1_556 S
C935   C315    1.431   1_556 S
C936   H971    1.080   .     S
C936   N977    1.366   .     A
C937   N978    1.367   .     A
C937   H972    1.081   .     S
C937   C1007   1.414   .     S
C938   O988    1.279   .     A
C938   O989    1.280   .     A
C939   O991    1.290   .     A
C939   O990    1.289   .     A
C939   C941    1.452   .     S
C940   C959    1.387   .     A
C941   C958    1.408   .     A
C941   C959    1.398   .     A
C942   C943    1.402   .     A
C942   H975    1.082   .     S
C943   C305    1.398   1_556 S
C943   O353    1.389   1_556 S
C944   H976    1.074   .     S
C945   N979    1.157   .     T
C946   C957    1.412   .     A
C947   N980    1.157   .     T
C948   N981    1.157   .     T
C949   N982    1.158   .     T
C949   C958    1.452   .     S
C950   H963    1.117   .     S
C950   C241    1.527   1_556 S
C950   O353    1.419   1_556 S
C951   H965    1.110   .     S
C951   H964    1.110   .     S
C952   H966    1.111   .     S
C952   H968    1.111   .     S
C952   C312    1.526   1_556 S
C952   H328    1.110   1_556 S
C953   N983    1.157   .     T
C954   C958    1.403   .     A
C955   C956    1.387   .     A
C955   C315    1.423   1_556 S
C955   C301    1.399   1_556 S
C956   C957    1.381   .     A
C956   H973    1.084   .     S
C957   H961    1.078   .     S
C959   H960    1.083   .     S
H962   C1021   1.111   .     S
H974   C301    1.084   1_556 S
N977   Zn993   2.009   .     S
N978   Zn994   2.009   .     S
O984   Zn993   1.997   .     S
O985   Zn994   1.997   .     S
O986   Zn993   1.960   .     S
O987   Zn994   1.934   .     S
O988   Zn993   1.997   .     S
O989   Zn994   1.997   .     S
O990   Zn993   1.934   .     S
O991   Zn994   1.960   .     S
C995   O1055   1.282   .     A
C995   C1003   1.420   .     S
C995   O1056   1.279   .     A
C996   C998    1.478   .     S
C996   C1017   1.423   .     A
C996   C1013   1.398   .     A
C997   C1024   1.454   .     S
C997   C1003   1.407   .     A
C997   C1212   1.383   .     S
C998   O1058   1.286   .     A
C998   O1057   1.304   .     A
C999   C1000   1.406   .     A
C999   C1016   1.455   .     S
C1000  C1001   1.406   .     A
C1000  C1009   1.417   .     S
C1001  C1018   1.456   .     S
C1002  C1019   1.454   .     S
C1002  C1003   1.407   .     A
C1002  C1214   1.384   .     S
C1004  H1040   1.081   .     S
C1004  N1049   1.366   .     A
C1004  C863    1.415   1_655 S
C1005  H1041   1.081   .     S
C1005  N1048   1.366   .     A
C1006  C1017   1.412   .     A
C1006  C376    1.419   1_556 S
C1006  C386    1.431   1_556 S
C1007  H1042   1.080   .     S
C1007  N1048   1.366   .     A
C1008  N1049   1.367   .     A
C1008  H1043   1.081   .     S
C1008  C865    1.414   1_655 S
C1009  O1059   1.279   .     A
C1009  O1060   1.280   .     A
C1010  O1062   1.290   .     A
C1010  O1061   1.289   .     A
C1010  C1012   1.452   .     S
C1011  C1030   1.387   .     A
C1012  C1029   1.408   .     A
C1012  C1030   1.398   .     A
C1013  C1014   1.402   .     A
C1013  H1046   1.082   .     S
C1014  C376    1.398   1_556 S
C1014  O424    1.389   1_556 S
C1015  H1047   1.074   .     S
C1016  N1050   1.157   .     T
C1017  C1028   1.412   .     A
C1018  N1051   1.157   .     T
C1019  N1052   1.157   .     T
C1020  N1053   1.158   .     T
C1020  C1029   1.452   .     S
C1021  H1034   1.117   .     S
C1021  C312    1.527   1_556 S
C1021  O424    1.419   1_556 S
C1022  H1036   1.110   .     S
C1022  H1035   1.110   .     S
C1022  C240    1.527   1_655 S
C1023  H1037   1.111   .     S
C1023  H1039   1.111   .     S
C1023  C383    1.526   1_556 S
C1023  H399    1.110   1_556 S
C1024  N1054   1.157   .     T
C1025  C1029   1.403   .     A
C1026  C1027   1.387   .     A
C1026  C386    1.423   1_556 S
C1026  C372    1.399   1_556 S
C1027  C1028   1.381   .     A
C1027  H1044   1.084   .     S
C1028  H1032   1.078   .     S
C1030  H1031   1.083   .     S
H1033  C879    1.111   1_655 S
H1045  C372    1.084   1_556 S
N1048  Zn1064  2.009   .     S
N1049  Zn1065  2.009   .     S
O1055  Zn1064  1.997   .     S
O1056  Zn1065  1.997   .     S
O1057  Zn1064  1.960   .     S
O1058  Zn1065  1.934   .     S
O1059  Zn1064  1.997   .     S
O1060  Zn1065  1.997   .     S
O1061  Zn1064  1.934   .     S
O1062  Zn1065  1.960   .     S
C1066  O1126   1.282   .     A
C1066  C1074   1.420   .     S
C1066  O1127   1.279   .     A
C1067  C1069   1.478   .     S
C1067  C1088   1.423   .     A
C1067  C1084   1.398   .     A
C1068  C1095   1.454   .     S
C1068  C1074   1.407   .     A
C1068  C644    1.383   1_565 S
C1069  O1129   1.286   .     A
C1069  O1128   1.304   .     A
C1070  C1071   1.406   .     A
C1070  C1087   1.455   .     S
C1071  C1072   1.406   .     A
C1071  C1080   1.417   .     S
C1072  C1089   1.456   .     S
C1073  C1090   1.454   .     S
C1073  C1074   1.407   .     A
C1073  C646    1.384   1_565 S
C1075  H1111   1.081   .     S
C1075  N1120   1.366   .     A
C1075  C1147   1.415   .     S
C1076  H1112   1.081   .     S
C1076  N1119   1.366   .     A
C1076  C1217   1.415   1_455 S
C1077  C1088   1.412   .     A
C1077  C447    1.419   1_556 S
C1077  C457    1.431   1_556 S
C1078  H1113   1.080   .     S
C1078  N1119   1.366   .     A
C1078  C1221   1.414   1_455 S
C1079  N1120   1.367   .     A
C1079  H1114   1.081   .     S
C1079  C1149   1.414   .     S
C1080  O1130   1.279   .     A
C1080  O1131   1.280   .     A
C1081  O1133   1.290   .     A
C1081  O1132   1.289   .     A
C1081  C1083   1.452   .     S
C1082  C1101   1.387   .     A
C1083  C1100   1.408   .     A
C1083  C1101   1.398   .     A
C1084  C1085   1.402   .     A
C1084  H1117   1.082   .     S
C1085  C447    1.398   1_556 S
C1085  O495    1.389   1_556 S
C1086  H1118   1.074   .     S
C1087  N1121   1.157   .     T
C1088  C1099   1.412   .     A
C1089  N1122   1.157   .     T
C1090  N1123   1.157   .     T
C1091  N1124   1.158   .     T
C1091  C1100   1.452   .     S
C1092  H1105   1.117   .     S
C1092  C596    1.527   1_456 S
C1092  H1246   1.111   1_455 S
C1092  O495    1.419   1_556 S
C1093  H1107   1.110   .     S
C1093  H1106   1.110   .     S
C1094  H1108   1.111   .     S
C1094  H1110   1.111   .     S
C1094  C454    1.526   1_556 S
C1094  H470    1.110   1_556 S
C1095  N1125   1.157   .     T
C1096  C1100   1.403   .     A
C1097  C1098   1.387   .     A
C1097  C457    1.423   1_556 S
C1097  C443    1.399   1_556 S
C1098  C1099   1.381   .     A
C1098  H1115   1.084   .     S
C1099  H1103   1.078   .     S
C1101  H1102   1.083   .     S
H1104  C1163   1.111   .     S
H1116  C443    1.084   1_556 S
N1119  Zn1135  2.009   .     S
N1120  Zn1136  2.009   .     S
O1126  Zn1135  1.997   .     S
O1127  Zn1136  1.997   .     S
O1128  Zn1135  1.960   .     S
O1129  Zn1136  1.934   .     S
O1130  Zn1135  1.997   .     S
O1131  Zn1136  1.997   .     S
O1132  Zn1135  1.934   .     S
O1133  Zn1136  1.960   .     S
C1137  O1197   1.282   .     A
C1137  C1145   1.420   .     S
C1137  O1198   1.279   .     A
C1138  C1140   1.478   .     S
C1138  C1159   1.423   .     A
C1138  C1155   1.398   .     A
C1139  C1166   1.454   .     S
C1139  C1145   1.407   .     A
C1139  C715    1.383   1_565 S
C1140  O1200   1.286   .     A
C1140  O1199   1.304   .     A
C1141  C1142   1.406   .     A
C1141  C1158   1.455   .     S
C1142  C1143   1.406   .     A
C1142  C1151   1.417   .     S
C1143  C1160   1.456   .     S
C1144  C1161   1.454   .     S
C1144  C1145   1.407   .     A
C1144  C717    1.384   1_565 S
C1146  H1182   1.081   .     S
C1146  N1191   1.366   .     A
C1146  C1218   1.415   .     S
C1147  H1183   1.081   .     S
C1147  N1190   1.366   .     A
C1148  C1159   1.412   .     A
C1148  C518    1.419   1_556 S
C1148  C528    1.431   1_556 S
C1149  H1184   1.080   .     S
C1149  N1190   1.366   .     A
C1150  N1191   1.367   .     A
C1150  H1185   1.081   .     S
C1150  C1220   1.414   .     S
C1151  O1201   1.279   .     A
C1151  O1202   1.280   .     A
C1152  O1204   1.290   .     A
C1152  O1203   1.289   .     A
C1152  C1154   1.452   .     S
C1153  C1172   1.387   .     A
C1154  C1171   1.408   .     A
C1154  C1172   1.398   .     A
C1155  C1156   1.402   .     A
C1155  H1188   1.082   .     S
C1156  C518    1.398   1_556 S
C1156  O566    1.389   1_556 S
C1157  H1189   1.074   .     S
C1158  N1192   1.157   .     T
C1159  C1170   1.412   .     A
C1160  N1193   1.157   .     T
C1161  N1194   1.157   .     T
C1162  N1195   1.158   .     T
C1162  C1171   1.452   .     S
C1163  H1176   1.117   .     S
C1163  C454    1.527   1_556 S
C1163  O566    1.419   1_556 S
C1164  H1178   1.110   .     S
C1164  H1177   1.110   .     S
C1165  H1179   1.111   .     S
C1165  H1181   1.111   .     S
C1165  C525    1.526   1_556 S
C1165  H541    1.110   1_556 S
C1166  N1196   1.157   .     T
C1167  C1171   1.403   .     A
C1168  C1169   1.387   .     A
C1168  C528    1.423   1_556 S
C1168  C514    1.399   1_556 S
C1169  C1170   1.381   .     A
C1169  H1186   1.084   .     S
C1170  H1174   1.078   .     S
C1172  H1173   1.083   .     S
H1175  C1234   1.111   .     S
H1187  C514    1.084   1_556 S
N1190  Zn1206  2.009   .     S
N1191  Zn1207  2.009   .     S
O1197  Zn1206  1.997   .     S
O1198  Zn1207  1.997   .     S
O1199  Zn1206  1.960   .     S
O1200  Zn1207  1.934   .     S
O1201  Zn1206  1.997   .     S
O1202  Zn1207  1.997   .     S
O1203  Zn1206  1.934   .     S
O1204  Zn1207  1.960   .     S
C1208  O1268   1.282   .     A
C1208  C1216   1.420   .     S
C1208  O1269   1.279   .     A
C1209  C1211   1.478   .     S
C1209  C1230   1.423   .     A
C1209  C1226   1.398   .     A
C1210  C1237   1.454   .     S
C1210  C1216   1.407   .     A
C1210  C786    1.383   1_565 S
C1211  O1271   1.286   .     A
C1211  O1270   1.304   .     A
C1212  C1213   1.406   .     A
C1212  C1229   1.455   .     S
C1213  C1214   1.406   .     A
C1213  C1222   1.417   .     S
C1214  C1231   1.456   .     S
C1215  C1232   1.454   .     S
C1215  C1216   1.407   .     A
C1215  C788    1.384   1_565 S
C1217  H1253   1.081   .     S
C1217  N1262   1.366   .     A
C1217  C1076   1.415   1_655 S
C1218  H1254   1.081   .     S
C1218  N1261   1.366   .     A
C1219  C1230   1.412   .     A
C1219  C589    1.419   1_556 S
C1219  C599    1.431   1_556 S
C1220  H1255   1.080   .     S
C1220  N1261   1.366   .     A
C1221  N1262   1.367   .     A
C1221  H1256   1.081   .     S
C1221  C1078   1.414   1_655 S
C1222  O1272   1.279   .     A
C1222  O1273   1.280   .     A
C1223  O1275   1.290   .     A
C1223  O1274   1.289   .     A
C1223  C1225   1.452   .     S
C1224  C1243   1.387   .     A
C1225  C1242   1.408   .     A
C1225  C1243   1.398   .     A
C1226  C1227   1.402   .     A
C1226  H1259   1.082   .     S
C1227  C589    1.398   1_556 S
C1227  O637    1.389   1_556 S
C1228  H1260   1.074   .     S
C1229  N1263   1.157   .     T
C1230  C1241   1.412   .     A
C1231  N1264   1.157   .     T
C1232  N1265   1.157   .     T
C1233  N1266   1.158   .     T
C1233  C1242   1.452   .     S
C1234  H1247   1.117   .     S
C1234  C525    1.527   1_556 S
C1234  O637    1.419   1_556 S
C1235  H1249   1.110   .     S
C1235  H1248   1.110   .     S
C1235  C453    1.527   1_655 S
C1236  H1250   1.111   .     S
C1236  H1252   1.111   .     S
C1236  C596    1.526   1_556 S
C1236  H612    1.110   1_556 S
C1237  N1267   1.157   .     T
C1238  C1242   1.403   .     A
C1239  C1240   1.387   .     A
C1239  C599    1.423   1_556 S
C1239  C585    1.399   1_556 S
C1240  C1241   1.381   .     A
C1240  H1257   1.084   .     S
C1241  H1245   1.078   .     S
C1243  H1244   1.083   .     S
H1246  C1092   1.111   1_655 S
H1258  C585    1.084   1_556 S
N1261  Zn1277  2.009   .     S
N1262  Zn1278  2.009   .     S
O1268  Zn1277  1.997   .     S
O1269  Zn1278  1.997   .     S
O1270  Zn1277  1.960   .     S
O1271  Zn1278  1.934   .     S
O1272  Zn1277  1.997   .     S
O1273  Zn1278  1.997   .     S
O1274  Zn1277  1.934   .     S
O1275  Zn1278  1.960   .     S
