data_str_m3_o5_o17_pcu_sym.8
_audit_creation_date              2020-01-03
_audit_creation_method            'Materials Studio'
_symmetry_space_group_name_H-M    'P1'
_symmetry_Int_Tables_number       1
_symmetry_cell_setting            triclinic
loop_
_symmetry_equiv_pos_as_xyz
  x,y,z
_cell_length_a                    29.7798
_cell_length_b                    26.7560
_cell_length_c                    24.3517
_cell_angle_alpha                 90.0575
_cell_angle_beta                  89.9722
_cell_angle_gamma                 90.0136
loop_
_atom_site_label
_atom_site_type_symbol
_atom_site_fract_x
_atom_site_fract_y
_atom_site_fract_z
_atom_site_U_iso_or_equiv
_atom_site_adp_type
_atom_site_occupancy
O1     O     0.25000   0.09512   0.21228   0.00000  Uiso   1.00
O2     O     0.25000   0.23822   0.12105   0.00000  Uiso   1.00
O3     O     0.25000   0.23822   0.21228   0.00000  Uiso   1.00
O4     O     0.25000   0.09512   0.12105   0.00000  Uiso   1.00
C5     C     0.25001   0.07269   0.16665   0.00000  Uiso   1.00
C6     C     0.24993   0.26065   0.16668   0.00000  Uiso   1.00
O7     O     0.18392   0.16667   0.21230   0.00000  Uiso   1.00
O8     O     0.31607   0.16667   0.12104   0.00000  Uiso   1.00
O9     O     0.31607   0.16667   0.21230   0.00000  Uiso   1.00
O10    O     0.18392   0.16667   0.12104   0.00000  Uiso   1.00
C11    C     0.16320   0.16671   0.16678   0.00000  Uiso   1.00
C12    C     0.33677   0.16687   0.16675   0.00000  Uiso   1.00
Zn13   Zn    0.25000   0.16667   0.22759   0.00000  Uiso   1.00
Zn14   Zn    0.25000   0.16667   0.10574   0.00000  Uiso   1.00
N15    N     0.25000   0.16667   0.02455   0.00000  Uiso   1.00
N16    N     0.25000   0.16667   0.30879   0.00000  Uiso   1.00
C17    C     0.40632   0.21414   0.15766   0.00000  Uiso   1.00
C18    C     0.09300   0.12669   0.19159   0.00000  Uiso   1.00
C19    C     0.40717   0.12720   0.18903   0.00000  Uiso   1.00
C20    C     0.09320   0.21202   0.15529   0.00000  Uiso   1.00
C21    C     0.38469   0.16875   0.16831   0.00000  Uiso   1.00
C22    C     0.11522   0.16760   0.16848   0.00000  Uiso   1.00
C23    C     0.45280   0.13114   0.20163   0.00000  Uiso   1.00
C24    C     0.04727   0.21657   0.16697   0.00000  Uiso   1.00
C25    C     0.45308   0.21764   0.16600   0.00000  Uiso   1.00
C26    C     0.04660   0.12978   0.20147   0.00000  Uiso   1.00
C27    C     0.47641   0.17457   0.18510   0.00000  Uiso   1.00
C28    C     0.02347   0.17390   0.18530   0.00000  Uiso   1.00
C29    C     0.47576   0.09271   0.22980   0.00000  Uiso   1.00
C30    C     0.02418   0.26237   0.16053   0.00000  Uiso   1.00
C31    C     0.47712   0.26269   0.15737   0.00000  Uiso   1.00
C32    C     0.02279   0.09093   0.22802   0.00000  Uiso   1.00
C33    C     0.24997   0.02174   0.16664   0.00000  Uiso   1.00
C34    C     0.24994   0.31159   0.16669   0.00000  Uiso   1.00
O35    O     0.45348   0.05852   0.26233   0.00000  Uiso   1.00
H36    H     0.42829   0.07624   0.28055   0.00000  Uiso   1.00
O37    O     0.04633   0.30763   0.16089   0.00000  Uiso   1.00
H38    H     0.07064   0.30533   0.18859   0.00000  Uiso   1.00
O39    O     0.45421   0.30706   0.14927   0.00000  Uiso   1.00
H40    H     0.47505   0.00079   0.13837   0.00000  Uiso   1.00
O41    O     0.04600   0.05385   0.25557   0.00000  Uiso   1.00
H42    H     0.02543   0.02679   0.26720   0.00000  Uiso   1.00
Cl43   Cl    0.37330   0.26423   0.13146   0.00000  Uiso   1.00
Cl44   Cl    0.12418   0.07056   0.20114   0.00000  Uiso   1.00
Cl45   Cl    0.37839   0.06886   0.19091   0.00000  Uiso   1.00
Cl46   Cl    0.12327   0.25876   0.11848   0.00000  Uiso   1.00
O47    O     0.75000   0.09512   0.21228   0.00000  Uiso   1.00
O48    O     0.75000   0.23822   0.12105   0.00000  Uiso   1.00
O49    O     0.75000   0.23822   0.21228   0.00000  Uiso   1.00
O50    O     0.75000   0.09512   0.12105   0.00000  Uiso   1.00
C51    C     0.75001   0.07269   0.16665   0.00000  Uiso   1.00
C52    C     0.74993   0.26065   0.16668   0.00000  Uiso   1.00
O53    O     0.68392   0.16667   0.21230   0.00000  Uiso   1.00
O54    O     0.81607   0.16667   0.12104   0.00000  Uiso   1.00
O55    O     0.81607   0.16667   0.21230   0.00000  Uiso   1.00
O56    O     0.68392   0.16667   0.12104   0.00000  Uiso   1.00
C57    C     0.66320   0.16671   0.16678   0.00000  Uiso   1.00
C58    C     0.83677   0.16687   0.16675   0.00000  Uiso   1.00
Zn59   Zn    0.75000   0.16667   0.22759   0.00000  Uiso   1.00
Zn60   Zn    0.75000   0.16667   0.10574   0.00000  Uiso   1.00
N61    N     0.75000   0.16667   0.02455   0.00000  Uiso   1.00
N62    N     0.75000   0.16667   0.30879   0.00000  Uiso   1.00
C63    C     0.90632   0.21414   0.15766   0.00000  Uiso   1.00
C64    C     0.59300   0.12669   0.19159   0.00000  Uiso   1.00
C65    C     0.90717   0.12720   0.18903   0.00000  Uiso   1.00
C66    C     0.59320   0.21202   0.15529   0.00000  Uiso   1.00
C67    C     0.88469   0.16875   0.16831   0.00000  Uiso   1.00
C68    C     0.61522   0.16760   0.16848   0.00000  Uiso   1.00
C69    C     0.95280   0.13114   0.20163   0.00000  Uiso   1.00
C70    C     0.54727   0.21657   0.16697   0.00000  Uiso   1.00
C71    C     0.95308   0.21764   0.16600   0.00000  Uiso   1.00
C72    C     0.54660   0.12978   0.20147   0.00000  Uiso   1.00
C73    C     0.97641   0.17457   0.18510   0.00000  Uiso   1.00
C74    C     0.52347   0.17390   0.18530   0.00000  Uiso   1.00
C75    C     0.97576   0.09271   0.22980   0.00000  Uiso   1.00
C76    C     0.52418   0.26237   0.16053   0.00000  Uiso   1.00
C77    C     0.97712   0.26269   0.15737   0.00000  Uiso   1.00
C78    C     0.52279   0.09093   0.22802   0.00000  Uiso   1.00
C79    C     0.74997   0.02174   0.16664   0.00000  Uiso   1.00
C80    C     0.74994   0.31159   0.16669   0.00000  Uiso   1.00
O81    O     0.95348   0.05852   0.26233   0.00000  Uiso   1.00
H82    H     0.92829   0.07624   0.28055   0.00000  Uiso   1.00
O83    O     0.54633   0.30763   0.16089   0.00000  Uiso   1.00
H84    H     0.57064   0.30533   0.18859   0.00000  Uiso   1.00
O85    O     0.95421   0.30706   0.14927   0.00000  Uiso   1.00
H86    H     0.97505   0.00079   0.13837   0.00000  Uiso   1.00
O87    O     0.54600   0.05385   0.25557   0.00000  Uiso   1.00
H88    H     0.52543   0.02679   0.26720   0.00000  Uiso   1.00
Cl89   Cl    0.87330   0.26423   0.13146   0.00000  Uiso   1.00
Cl90   Cl    0.62418   0.07056   0.20114   0.00000  Uiso   1.00
Cl91   Cl    0.87839   0.06886   0.19091   0.00000  Uiso   1.00
Cl92   Cl    0.62327   0.25876   0.11848   0.00000  Uiso   1.00
O93    O     0.25000   0.42845   0.21228   0.00000  Uiso   1.00
O94    O     0.25000   0.57155   0.12105   0.00000  Uiso   1.00
O95    O     0.25000   0.57155   0.21228   0.00000  Uiso   1.00
O96    O     0.25000   0.42845   0.12105   0.00000  Uiso   1.00
C97    C     0.25001   0.40602   0.16665   0.00000  Uiso   1.00
C98    C     0.24993   0.59398   0.16668   0.00000  Uiso   1.00
O99    O     0.18392   0.50000   0.21230   0.00000  Uiso   1.00
O100   O     0.31607   0.50000   0.12104   0.00000  Uiso   1.00
O101   O     0.31607   0.50000   0.21230   0.00000  Uiso   1.00
O102   O     0.18392   0.50000   0.12104   0.00000  Uiso   1.00
C103   C     0.16320   0.50004   0.16678   0.00000  Uiso   1.00
C104   C     0.33677   0.50020   0.16675   0.00000  Uiso   1.00
Zn105  Zn    0.25000   0.50000   0.22759   0.00000  Uiso   1.00
Zn106  Zn    0.25000   0.50000   0.10574   0.00000  Uiso   1.00
N107   N     0.25000   0.50000   0.02455   0.00000  Uiso   1.00
N108   N     0.25000   0.50000   0.30879   0.00000  Uiso   1.00
C109   C     0.40632   0.54747   0.15766   0.00000  Uiso   1.00
C110   C     0.09300   0.46002   0.19159   0.00000  Uiso   1.00
C111   C     0.40717   0.46054   0.18903   0.00000  Uiso   1.00
C112   C     0.09320   0.54536   0.15529   0.00000  Uiso   1.00
C113   C     0.38469   0.50208   0.16831   0.00000  Uiso   1.00
C114   C     0.11522   0.50094   0.16848   0.00000  Uiso   1.00
C115   C     0.45280   0.46448   0.20163   0.00000  Uiso   1.00
C116   C     0.04727   0.54991   0.16697   0.00000  Uiso   1.00
C117   C     0.45308   0.55098   0.16600   0.00000  Uiso   1.00
C118   C     0.04660   0.46311   0.20147   0.00000  Uiso   1.00
C119   C     0.47641   0.50790   0.18510   0.00000  Uiso   1.00
C120   C     0.02347   0.50723   0.18530   0.00000  Uiso   1.00
C121   C     0.47576   0.42604   0.22980   0.00000  Uiso   1.00
C122   C     0.02418   0.59571   0.16053   0.00000  Uiso   1.00
C123   C     0.47712   0.59602   0.15737   0.00000  Uiso   1.00
C124   C     0.02279   0.42426   0.22802   0.00000  Uiso   1.00
C125   C     0.24997   0.35508   0.16664   0.00000  Uiso   1.00
C126   C     0.24994   0.64492   0.16669   0.00000  Uiso   1.00
O127   O     0.45348   0.39185   0.26233   0.00000  Uiso   1.00
H128   H     0.42829   0.40958   0.28055   0.00000  Uiso   1.00
O129   O     0.04633   0.64097   0.16089   0.00000  Uiso   1.00
H130   H     0.07064   0.63866   0.18859   0.00000  Uiso   1.00
O131   O     0.45421   0.64039   0.14927   0.00000  Uiso   1.00
H132   H     0.47505   0.33412   0.13837   0.00000  Uiso   1.00
O133   O     0.04600   0.38718   0.25557   0.00000  Uiso   1.00
H134   H     0.02543   0.36013   0.26720   0.00000  Uiso   1.00
Cl135  Cl    0.37330   0.59756   0.13146   0.00000  Uiso   1.00
Cl136  Cl    0.12418   0.40389   0.20114   0.00000  Uiso   1.00
Cl137  Cl    0.37839   0.40219   0.19091   0.00000  Uiso   1.00
Cl138  Cl    0.12327   0.59210   0.11848   0.00000  Uiso   1.00
O139   O     0.75000   0.42845   0.21228   0.00000  Uiso   1.00
O140   O     0.75000   0.57155   0.12105   0.00000  Uiso   1.00
O141   O     0.75000   0.57155   0.21228   0.00000  Uiso   1.00
O142   O     0.75000   0.42845   0.12105   0.00000  Uiso   1.00
C143   C     0.75001   0.40602   0.16665   0.00000  Uiso   1.00
C144   C     0.74993   0.59398   0.16668   0.00000  Uiso   1.00
O145   O     0.68392   0.50000   0.21230   0.00000  Uiso   1.00
O146   O     0.81607   0.50000   0.12104   0.00000  Uiso   1.00
O147   O     0.81607   0.50000   0.21230   0.00000  Uiso   1.00
O148   O     0.68392   0.50000   0.12104   0.00000  Uiso   1.00
C149   C     0.66320   0.50004   0.16678   0.00000  Uiso   1.00
C150   C     0.83677   0.50020   0.16675   0.00000  Uiso   1.00
Zn151  Zn    0.75000   0.50000   0.22759   0.00000  Uiso   1.00
Zn152  Zn    0.75000   0.50000   0.10574   0.00000  Uiso   1.00
N153   N     0.75000   0.50000   0.02455   0.00000  Uiso   1.00
N154   N     0.75000   0.50000   0.30879   0.00000  Uiso   1.00
C155   C     0.90632   0.54747   0.15766   0.00000  Uiso   1.00
C156   C     0.59300   0.46002   0.19159   0.00000  Uiso   1.00
C157   C     0.90717   0.46054   0.18903   0.00000  Uiso   1.00
C158   C     0.59320   0.54536   0.15529   0.00000  Uiso   1.00
C159   C     0.88469   0.50208   0.16831   0.00000  Uiso   1.00
C160   C     0.61522   0.50094   0.16848   0.00000  Uiso   1.00
C161   C     0.95280   0.46448   0.20163   0.00000  Uiso   1.00
C162   C     0.54727   0.54991   0.16697   0.00000  Uiso   1.00
C163   C     0.95308   0.55098   0.16600   0.00000  Uiso   1.00
C164   C     0.54660   0.46311   0.20147   0.00000  Uiso   1.00
C165   C     0.97641   0.50790   0.18510   0.00000  Uiso   1.00
C166   C     0.52347   0.50723   0.18530   0.00000  Uiso   1.00
C167   C     0.97576   0.42604   0.22980   0.00000  Uiso   1.00
C168   C     0.52418   0.59571   0.16053   0.00000  Uiso   1.00
C169   C     0.97712   0.59602   0.15737   0.00000  Uiso   1.00
C170   C     0.52279   0.42426   0.22802   0.00000  Uiso   1.00
C171   C     0.74997   0.35508   0.16664   0.00000  Uiso   1.00
C172   C     0.74994   0.64492   0.16669   0.00000  Uiso   1.00
O173   O     0.95348   0.39185   0.26233   0.00000  Uiso   1.00
H174   H     0.92829   0.40958   0.28055   0.00000  Uiso   1.00
O175   O     0.54633   0.64097   0.16089   0.00000  Uiso   1.00
H176   H     0.57064   0.63866   0.18859   0.00000  Uiso   1.00
O177   O     0.95421   0.64039   0.14927   0.00000  Uiso   1.00
H178   H     0.97505   0.33412   0.13837   0.00000  Uiso   1.00
O179   O     0.54600   0.38718   0.25557   0.00000  Uiso   1.00
H180   H     0.52543   0.36013   0.26720   0.00000  Uiso   1.00
Cl181  Cl    0.87330   0.59756   0.13146   0.00000  Uiso   1.00
Cl182  Cl    0.62418   0.40389   0.20114   0.00000  Uiso   1.00
Cl183  Cl    0.87839   0.40219   0.19091   0.00000  Uiso   1.00
Cl184  Cl    0.62327   0.59210   0.11848   0.00000  Uiso   1.00
O185   O     0.25000   0.76178   0.21228   0.00000  Uiso   1.00
O186   O     0.25000   0.90488   0.12105   0.00000  Uiso   1.00
O187   O     0.25000   0.90488   0.21228   0.00000  Uiso   1.00
O188   O     0.25000   0.76178   0.12105   0.00000  Uiso   1.00
C189   C     0.25001   0.73935   0.16665   0.00000  Uiso   1.00
C190   C     0.24993   0.92731   0.16668   0.00000  Uiso   1.00
O191   O     0.18392   0.83333   0.21230   0.00000  Uiso   1.00
O192   O     0.31607   0.83333   0.12104   0.00000  Uiso   1.00
O193   O     0.31607   0.83333   0.21230   0.00000  Uiso   1.00
O194   O     0.18392   0.83333   0.12104   0.00000  Uiso   1.00
C195   C     0.16320   0.83337   0.16678   0.00000  Uiso   1.00
C196   C     0.33677   0.83354   0.16675   0.00000  Uiso   1.00
Zn197  Zn    0.25000   0.83333   0.22759   0.00000  Uiso   1.00
Zn198  Zn    0.25000   0.83333   0.10574   0.00000  Uiso   1.00
N199   N     0.25000   0.83333   0.02455   0.00000  Uiso   1.00
N200   N     0.25000   0.83333   0.30879   0.00000  Uiso   1.00
C201   C     0.40632   0.88081   0.15766   0.00000  Uiso   1.00
C202   C     0.09300   0.79336   0.19159   0.00000  Uiso   1.00
C203   C     0.40717   0.79387   0.18903   0.00000  Uiso   1.00
C204   C     0.09320   0.87869   0.15529   0.00000  Uiso   1.00
C205   C     0.38469   0.83541   0.16831   0.00000  Uiso   1.00
C206   C     0.11522   0.83427   0.16848   0.00000  Uiso   1.00
C207   C     0.45280   0.79781   0.20163   0.00000  Uiso   1.00
C208   C     0.04727   0.88324   0.16697   0.00000  Uiso   1.00
C209   C     0.45308   0.88431   0.16600   0.00000  Uiso   1.00
C210   C     0.04660   0.79645   0.20147   0.00000  Uiso   1.00
C211   C     0.47641   0.84123   0.18510   0.00000  Uiso   1.00
C212   C     0.02347   0.84056   0.18530   0.00000  Uiso   1.00
C213   C     0.47576   0.75938   0.22980   0.00000  Uiso   1.00
C214   C     0.02418   0.92904   0.16053   0.00000  Uiso   1.00
C215   C     0.47712   0.92935   0.15737   0.00000  Uiso   1.00
C216   C     0.02279   0.75760   0.22802   0.00000  Uiso   1.00
C217   C     0.24997   0.68841   0.16664   0.00000  Uiso   1.00
C218   C     0.24994   0.97826   0.16669   0.00000  Uiso   1.00
O219   O     0.45348   0.72518   0.26233   0.00000  Uiso   1.00
H220   H     0.42829   0.74291   0.28055   0.00000  Uiso   1.00
O221   O     0.04633   0.97430   0.16089   0.00000  Uiso   1.00
H222   H     0.07064   0.97199   0.18859   0.00000  Uiso   1.00
O223   O     0.45421   0.97373   0.14927   0.00000  Uiso   1.00
H224   H     0.47505   0.66745   0.13837   0.00000  Uiso   1.00
O225   O     0.04600   0.72051   0.25557   0.00000  Uiso   1.00
H226   H     0.02543   0.69346   0.26720   0.00000  Uiso   1.00
Cl227  Cl    0.37330   0.93090   0.13146   0.00000  Uiso   1.00
Cl228  Cl    0.12418   0.73722   0.20114   0.00000  Uiso   1.00
Cl229  Cl    0.37839   0.73553   0.19091   0.00000  Uiso   1.00
Cl230  Cl    0.12327   0.92543   0.11848   0.00000  Uiso   1.00
O231   O     0.75000   0.76178   0.21228   0.00000  Uiso   1.00
O232   O     0.75000   0.90488   0.12105   0.00000  Uiso   1.00
O233   O     0.75000   0.90488   0.21228   0.00000  Uiso   1.00
O234   O     0.75000   0.76178   0.12105   0.00000  Uiso   1.00
C235   C     0.75001   0.73935   0.16665   0.00000  Uiso   1.00
C236   C     0.74993   0.92731   0.16668   0.00000  Uiso   1.00
O237   O     0.68392   0.83333   0.21230   0.00000  Uiso   1.00
O238   O     0.81607   0.83333   0.12104   0.00000  Uiso   1.00
O239   O     0.81607   0.83333   0.21230   0.00000  Uiso   1.00
O240   O     0.68392   0.83333   0.12104   0.00000  Uiso   1.00
C241   C     0.66320   0.83337   0.16678   0.00000  Uiso   1.00
C242   C     0.83677   0.83354   0.16675   0.00000  Uiso   1.00
Zn243  Zn    0.75000   0.83333   0.22759   0.00000  Uiso   1.00
Zn244  Zn    0.75000   0.83333   0.10574   0.00000  Uiso   1.00
N245   N     0.75000   0.83333   0.02455   0.00000  Uiso   1.00
N246   N     0.75000   0.83333   0.30879   0.00000  Uiso   1.00
C247   C     0.90632   0.88081   0.15766   0.00000  Uiso   1.00
C248   C     0.59300   0.79336   0.19159   0.00000  Uiso   1.00
C249   C     0.90717   0.79387   0.18903   0.00000  Uiso   1.00
C250   C     0.59320   0.87869   0.15529   0.00000  Uiso   1.00
C251   C     0.88469   0.83541   0.16831   0.00000  Uiso   1.00
C252   C     0.61522   0.83427   0.16848   0.00000  Uiso   1.00
C253   C     0.95280   0.79781   0.20163   0.00000  Uiso   1.00
C254   C     0.54727   0.88324   0.16697   0.00000  Uiso   1.00
C255   C     0.95308   0.88431   0.16600   0.00000  Uiso   1.00
C256   C     0.54660   0.79645   0.20147   0.00000  Uiso   1.00
C257   C     0.97641   0.84123   0.18510   0.00000  Uiso   1.00
C258   C     0.52347   0.84056   0.18530   0.00000  Uiso   1.00
C259   C     0.97576   0.75938   0.22980   0.00000  Uiso   1.00
C260   C     0.52418   0.92904   0.16053   0.00000  Uiso   1.00
C261   C     0.97712   0.92935   0.15737   0.00000  Uiso   1.00
C262   C     0.52279   0.75760   0.22802   0.00000  Uiso   1.00
C263   C     0.74997   0.68841   0.16664   0.00000  Uiso   1.00
C264   C     0.74994   0.97826   0.16669   0.00000  Uiso   1.00
O265   O     0.95348   0.72518   0.26233   0.00000  Uiso   1.00
H266   H     0.92829   0.74291   0.28055   0.00000  Uiso   1.00
O267   O     0.54633   0.97430   0.16089   0.00000  Uiso   1.00
H268   H     0.57064   0.97199   0.18859   0.00000  Uiso   1.00
O269   O     0.95421   0.97373   0.14927   0.00000  Uiso   1.00
H270   H     0.97505   0.66745   0.13837   0.00000  Uiso   1.00
O271   O     0.54600   0.72051   0.25557   0.00000  Uiso   1.00
H272   H     0.52543   0.69346   0.26720   0.00000  Uiso   1.00
Cl273  Cl    0.87330   0.93090   0.13146   0.00000  Uiso   1.00
Cl274  Cl    0.62418   0.73722   0.20114   0.00000  Uiso   1.00
Cl275  Cl    0.87839   0.73553   0.19091   0.00000  Uiso   1.00
Cl276  Cl    0.62327   0.92543   0.11848   0.00000  Uiso   1.00
O277   O     0.25000   0.09512   0.54562   0.00000  Uiso   1.00
O278   O     0.25000   0.23822   0.45438   0.00000  Uiso   1.00
O279   O     0.25000   0.23822   0.54562   0.00000  Uiso   1.00
O280   O     0.25000   0.09512   0.45438   0.00000  Uiso   1.00
C281   C     0.25001   0.07269   0.49998   0.00000  Uiso   1.00
C282   C     0.24993   0.26065   0.50002   0.00000  Uiso   1.00
O283   O     0.18392   0.16667   0.54563   0.00000  Uiso   1.00
O284   O     0.31607   0.16667   0.45437   0.00000  Uiso   1.00
O285   O     0.31607   0.16667   0.54563   0.00000  Uiso   1.00
O286   O     0.18392   0.16667   0.45437   0.00000  Uiso   1.00
C287   C     0.16320   0.16671   0.50012   0.00000  Uiso   1.00
C288   C     0.33677   0.16687   0.50009   0.00000  Uiso   1.00
Zn289  Zn    0.25000   0.16667   0.56093   0.00000  Uiso   1.00
Zn290  Zn    0.25000   0.16667   0.43907   0.00000  Uiso   1.00
N291   N     0.25000   0.16667   0.35788   0.00000  Uiso   1.00
N292   N     0.25000   0.16667   0.64212   0.00000  Uiso   1.00
C293   C     0.40632   0.21414   0.49099   0.00000  Uiso   1.00
C294   C     0.09300   0.12669   0.52492   0.00000  Uiso   1.00
C295   C     0.40717   0.12720   0.52237   0.00000  Uiso   1.00
C296   C     0.09320   0.21202   0.48863   0.00000  Uiso   1.00
C297   C     0.38469   0.16875   0.50164   0.00000  Uiso   1.00
C298   C     0.11522   0.16760   0.50182   0.00000  Uiso   1.00
C299   C     0.45280   0.13114   0.53496   0.00000  Uiso   1.00
C300   C     0.04727   0.21657   0.50030   0.00000  Uiso   1.00
C301   C     0.45308   0.21764   0.49934   0.00000  Uiso   1.00
C302   C     0.04660   0.12978   0.53480   0.00000  Uiso   1.00
C303   C     0.47641   0.17457   0.51843   0.00000  Uiso   1.00
C304   C     0.02347   0.17390   0.51863   0.00000  Uiso   1.00
C305   C     0.47576   0.09271   0.56313   0.00000  Uiso   1.00
C306   C     0.02418   0.26237   0.49386   0.00000  Uiso   1.00
C307   C     0.47712   0.26269   0.49071   0.00000  Uiso   1.00
C308   C     0.02279   0.09093   0.56135   0.00000  Uiso   1.00
C309   C     0.24997   0.02174   0.49997   0.00000  Uiso   1.00
C310   C     0.24994   0.31159   0.50003   0.00000  Uiso   1.00
O311   O     0.45348   0.05852   0.59567   0.00000  Uiso   1.00
H312   H     0.42829   0.07624   0.61388   0.00000  Uiso   1.00
O313   O     0.04633   0.30763   0.49423   0.00000  Uiso   1.00
H314   H     0.07064   0.30533   0.52193   0.00000  Uiso   1.00
O315   O     0.45421   0.30706   0.48260   0.00000  Uiso   1.00
H316   H     0.47505   0.00079   0.47170   0.00000  Uiso   1.00
O317   O     0.04600   0.05385   0.58890   0.00000  Uiso   1.00
H318   H     0.02543   0.02679   0.60054   0.00000  Uiso   1.00
Cl319  Cl    0.37330   0.26423   0.46479   0.00000  Uiso   1.00
Cl320  Cl    0.12418   0.07056   0.53448   0.00000  Uiso   1.00
Cl321  Cl    0.37839   0.06886   0.52424   0.00000  Uiso   1.00
Cl322  Cl    0.12327   0.25876   0.45181   0.00000  Uiso   1.00
O323   O     0.75000   0.09512   0.54562   0.00000  Uiso   1.00
O324   O     0.75000   0.23822   0.45438   0.00000  Uiso   1.00
O325   O     0.75000   0.23822   0.54562   0.00000  Uiso   1.00
O326   O     0.75000   0.09512   0.45438   0.00000  Uiso   1.00
C327   C     0.75001   0.07269   0.49998   0.00000  Uiso   1.00
C328   C     0.74993   0.26065   0.50002   0.00000  Uiso   1.00
O329   O     0.68392   0.16667   0.54563   0.00000  Uiso   1.00
O330   O     0.81607   0.16667   0.45437   0.00000  Uiso   1.00
O331   O     0.81607   0.16667   0.54563   0.00000  Uiso   1.00
O332   O     0.68392   0.16667   0.45437   0.00000  Uiso   1.00
C333   C     0.66320   0.16671   0.50012   0.00000  Uiso   1.00
C334   C     0.83677   0.16687   0.50009   0.00000  Uiso   1.00
Zn335  Zn    0.75000   0.16667   0.56093   0.00000  Uiso   1.00
Zn336  Zn    0.75000   0.16667   0.43907   0.00000  Uiso   1.00
N337   N     0.75000   0.16667   0.35788   0.00000  Uiso   1.00
N338   N     0.75000   0.16667   0.64212   0.00000  Uiso   1.00
C339   C     0.90632   0.21414   0.49099   0.00000  Uiso   1.00
C340   C     0.59300   0.12669   0.52492   0.00000  Uiso   1.00
C341   C     0.90717   0.12720   0.52237   0.00000  Uiso   1.00
C342   C     0.59320   0.21202   0.48863   0.00000  Uiso   1.00
C343   C     0.88469   0.16875   0.50164   0.00000  Uiso   1.00
C344   C     0.61522   0.16760   0.50182   0.00000  Uiso   1.00
C345   C     0.95280   0.13114   0.53496   0.00000  Uiso   1.00
C346   C     0.54727   0.21657   0.50030   0.00000  Uiso   1.00
C347   C     0.95308   0.21764   0.49934   0.00000  Uiso   1.00
C348   C     0.54660   0.12978   0.53480   0.00000  Uiso   1.00
C349   C     0.97641   0.17457   0.51843   0.00000  Uiso   1.00
C350   C     0.52347   0.17390   0.51863   0.00000  Uiso   1.00
C351   C     0.97576   0.09271   0.56313   0.00000  Uiso   1.00
C352   C     0.52418   0.26237   0.49386   0.00000  Uiso   1.00
C353   C     0.97712   0.26269   0.49071   0.00000  Uiso   1.00
C354   C     0.52279   0.09093   0.56135   0.00000  Uiso   1.00
C355   C     0.74997   0.02174   0.49997   0.00000  Uiso   1.00
C356   C     0.74994   0.31159   0.50003   0.00000  Uiso   1.00
O357   O     0.95348   0.05852   0.59567   0.00000  Uiso   1.00
H358   H     0.92829   0.07624   0.61388   0.00000  Uiso   1.00
O359   O     0.54633   0.30763   0.49423   0.00000  Uiso   1.00
H360   H     0.57064   0.30533   0.52193   0.00000  Uiso   1.00
O361   O     0.95421   0.30706   0.48260   0.00000  Uiso   1.00
H362   H     0.97505   0.00079   0.47170   0.00000  Uiso   1.00
O363   O     0.54600   0.05385   0.58890   0.00000  Uiso   1.00
H364   H     0.52543   0.02679   0.60054   0.00000  Uiso   1.00
Cl365  Cl    0.87330   0.26423   0.46479   0.00000  Uiso   1.00
Cl366  Cl    0.62418   0.07056   0.53448   0.00000  Uiso   1.00
Cl367  Cl    0.87839   0.06886   0.52424   0.00000  Uiso   1.00
Cl368  Cl    0.62327   0.25876   0.45181   0.00000  Uiso   1.00
O369   O     0.25000   0.42845   0.54562   0.00000  Uiso   1.00
O370   O     0.25000   0.57155   0.45438   0.00000  Uiso   1.00
O371   O     0.25000   0.57155   0.54562   0.00000  Uiso   1.00
O372   O     0.25000   0.42845   0.45438   0.00000  Uiso   1.00
C373   C     0.25001   0.40602   0.49998   0.00000  Uiso   1.00
C374   C     0.24993   0.59398   0.50002   0.00000  Uiso   1.00
O375   O     0.18392   0.50000   0.54563   0.00000  Uiso   1.00
O376   O     0.31607   0.50000   0.45437   0.00000  Uiso   1.00
O377   O     0.31607   0.50000   0.54563   0.00000  Uiso   1.00
O378   O     0.18392   0.50000   0.45437   0.00000  Uiso   1.00
C379   C     0.16320   0.50004   0.50012   0.00000  Uiso   1.00
C380   C     0.33677   0.50020   0.50009   0.00000  Uiso   1.00
Zn381  Zn    0.25000   0.50000   0.56093   0.00000  Uiso   1.00
Zn382  Zn    0.25000   0.50000   0.43907   0.00000  Uiso   1.00
N383   N     0.25000   0.50000   0.35788   0.00000  Uiso   1.00
N384   N     0.25000   0.50000   0.64212   0.00000  Uiso   1.00
C385   C     0.40632   0.54747   0.49099   0.00000  Uiso   1.00
C386   C     0.09300   0.46002   0.52492   0.00000  Uiso   1.00
C387   C     0.40717   0.46054   0.52237   0.00000  Uiso   1.00
C388   C     0.09320   0.54536   0.48863   0.00000  Uiso   1.00
C389   C     0.38469   0.50208   0.50164   0.00000  Uiso   1.00
C390   C     0.11522   0.50094   0.50182   0.00000  Uiso   1.00
C391   C     0.45280   0.46448   0.53496   0.00000  Uiso   1.00
C392   C     0.04727   0.54991   0.50030   0.00000  Uiso   1.00
C393   C     0.45308   0.55098   0.49934   0.00000  Uiso   1.00
C394   C     0.04660   0.46311   0.53480   0.00000  Uiso   1.00
C395   C     0.47641   0.50790   0.51843   0.00000  Uiso   1.00
C396   C     0.02347   0.50723   0.51863   0.00000  Uiso   1.00
C397   C     0.47576   0.42604   0.56313   0.00000  Uiso   1.00
C398   C     0.02418   0.59571   0.49386   0.00000  Uiso   1.00
C399   C     0.47712   0.59602   0.49071   0.00000  Uiso   1.00
C400   C     0.02279   0.42426   0.56135   0.00000  Uiso   1.00
C401   C     0.24997   0.35508   0.49997   0.00000  Uiso   1.00
C402   C     0.24994   0.64492   0.50003   0.00000  Uiso   1.00
O403   O     0.45348   0.39185   0.59567   0.00000  Uiso   1.00
H404   H     0.42829   0.40958   0.61388   0.00000  Uiso   1.00
O405   O     0.04633   0.64097   0.49423   0.00000  Uiso   1.00
H406   H     0.07064   0.63866   0.52193   0.00000  Uiso   1.00
O407   O     0.45421   0.64039   0.48260   0.00000  Uiso   1.00
H408   H     0.47505   0.33412   0.47170   0.00000  Uiso   1.00
O409   O     0.04600   0.38718   0.58890   0.00000  Uiso   1.00
H410   H     0.02543   0.36013   0.60054   0.00000  Uiso   1.00
Cl411  Cl    0.37330   0.59756   0.46479   0.00000  Uiso   1.00
Cl412  Cl    0.12418   0.40389   0.53448   0.00000  Uiso   1.00
Cl413  Cl    0.37839   0.40219   0.52424   0.00000  Uiso   1.00
Cl414  Cl    0.12327   0.59210   0.45181   0.00000  Uiso   1.00
O415   O     0.75000   0.42845   0.54562   0.00000  Uiso   1.00
O416   O     0.75000   0.57155   0.45438   0.00000  Uiso   1.00
O417   O     0.75000   0.57155   0.54562   0.00000  Uiso   1.00
O418   O     0.75000   0.42845   0.45438   0.00000  Uiso   1.00
C419   C     0.75001   0.40602   0.49998   0.00000  Uiso   1.00
C420   C     0.74993   0.59398   0.50002   0.00000  Uiso   1.00
O421   O     0.68392   0.50000   0.54563   0.00000  Uiso   1.00
O422   O     0.81607   0.50000   0.45437   0.00000  Uiso   1.00
O423   O     0.81607   0.50000   0.54563   0.00000  Uiso   1.00
O424   O     0.68392   0.50000   0.45437   0.00000  Uiso   1.00
C425   C     0.66320   0.50004   0.50012   0.00000  Uiso   1.00
C426   C     0.83677   0.50020   0.50009   0.00000  Uiso   1.00
Zn427  Zn    0.75000   0.50000   0.56093   0.00000  Uiso   1.00
Zn428  Zn    0.75000   0.50000   0.43907   0.00000  Uiso   1.00
N429   N     0.75000   0.50000   0.35788   0.00000  Uiso   1.00
N430   N     0.75000   0.50000   0.64212   0.00000  Uiso   1.00
C431   C     0.90632   0.54747   0.49099   0.00000  Uiso   1.00
C432   C     0.59300   0.46002   0.52492   0.00000  Uiso   1.00
C433   C     0.90717   0.46054   0.52237   0.00000  Uiso   1.00
C434   C     0.59320   0.54536   0.48863   0.00000  Uiso   1.00
C435   C     0.88469   0.50208   0.50164   0.00000  Uiso   1.00
C436   C     0.61522   0.50094   0.50182   0.00000  Uiso   1.00
C437   C     0.95280   0.46448   0.53496   0.00000  Uiso   1.00
C438   C     0.54727   0.54991   0.50030   0.00000  Uiso   1.00
C439   C     0.95308   0.55098   0.49934   0.00000  Uiso   1.00
C440   C     0.54660   0.46311   0.53480   0.00000  Uiso   1.00
C441   C     0.97641   0.50790   0.51843   0.00000  Uiso   1.00
C442   C     0.52347   0.50723   0.51863   0.00000  Uiso   1.00
C443   C     0.97576   0.42604   0.56313   0.00000  Uiso   1.00
C444   C     0.52418   0.59571   0.49386   0.00000  Uiso   1.00
C445   C     0.97712   0.59602   0.49071   0.00000  Uiso   1.00
C446   C     0.52279   0.42426   0.56135   0.00000  Uiso   1.00
C447   C     0.74997   0.35508   0.49997   0.00000  Uiso   1.00
C448   C     0.74994   0.64492   0.50003   0.00000  Uiso   1.00
O449   O     0.95348   0.39185   0.59567   0.00000  Uiso   1.00
H450   H     0.92829   0.40958   0.61388   0.00000  Uiso   1.00
O451   O     0.54633   0.64097   0.49423   0.00000  Uiso   1.00
H452   H     0.57064   0.63866   0.52193   0.00000  Uiso   1.00
O453   O     0.95421   0.64039   0.48260   0.00000  Uiso   1.00
H454   H     0.97505   0.33412   0.47170   0.00000  Uiso   1.00
O455   O     0.54600   0.38718   0.58890   0.00000  Uiso   1.00
H456   H     0.52543   0.36013   0.60054   0.00000  Uiso   1.00
Cl457  Cl    0.87330   0.59756   0.46479   0.00000  Uiso   1.00
Cl458  Cl    0.62418   0.40389   0.53448   0.00000  Uiso   1.00
Cl459  Cl    0.87839   0.40219   0.52424   0.00000  Uiso   1.00
Cl460  Cl    0.62327   0.59210   0.45181   0.00000  Uiso   1.00
O461   O     0.25000   0.76178   0.54562   0.00000  Uiso   1.00
O462   O     0.25000   0.90488   0.45438   0.00000  Uiso   1.00
O463   O     0.25000   0.90488   0.54562   0.00000  Uiso   1.00
O464   O     0.25000   0.76178   0.45438   0.00000  Uiso   1.00
C465   C     0.25001   0.73935   0.49998   0.00000  Uiso   1.00
C466   C     0.24993   0.92731   0.50002   0.00000  Uiso   1.00
O467   O     0.18392   0.83333   0.54563   0.00000  Uiso   1.00
O468   O     0.31607   0.83333   0.45437   0.00000  Uiso   1.00
O469   O     0.31607   0.83333   0.54563   0.00000  Uiso   1.00
O470   O     0.18392   0.83333   0.45437   0.00000  Uiso   1.00
C471   C     0.16320   0.83337   0.50012   0.00000  Uiso   1.00
C472   C     0.33677   0.83354   0.50009   0.00000  Uiso   1.00
Zn473  Zn    0.25000   0.83333   0.56093   0.00000  Uiso   1.00
Zn474  Zn    0.25000   0.83333   0.43907   0.00000  Uiso   1.00
N475   N     0.25000   0.83333   0.35788   0.00000  Uiso   1.00
N476   N     0.25000   0.83333   0.64212   0.00000  Uiso   1.00
C477   C     0.40632   0.88081   0.49099   0.00000  Uiso   1.00
C478   C     0.09300   0.79336   0.52492   0.00000  Uiso   1.00
C479   C     0.40717   0.79387   0.52237   0.00000  Uiso   1.00
C480   C     0.09320   0.87869   0.48863   0.00000  Uiso   1.00
C481   C     0.38469   0.83541   0.50164   0.00000  Uiso   1.00
C482   C     0.11522   0.83427   0.50182   0.00000  Uiso   1.00
C483   C     0.45280   0.79781   0.53496   0.00000  Uiso   1.00
C484   C     0.04727   0.88324   0.50030   0.00000  Uiso   1.00
C485   C     0.45308   0.88431   0.49934   0.00000  Uiso   1.00
C486   C     0.04660   0.79645   0.53480   0.00000  Uiso   1.00
C487   C     0.47641   0.84123   0.51843   0.00000  Uiso   1.00
C488   C     0.02347   0.84056   0.51863   0.00000  Uiso   1.00
C489   C     0.47576   0.75938   0.56313   0.00000  Uiso   1.00
C490   C     0.02418   0.92904   0.49386   0.00000  Uiso   1.00
C491   C     0.47712   0.92935   0.49071   0.00000  Uiso   1.00
C492   C     0.02279   0.75760   0.56135   0.00000  Uiso   1.00
C493   C     0.24997   0.68841   0.49997   0.00000  Uiso   1.00
C494   C     0.24994   0.97826   0.50003   0.00000  Uiso   1.00
O495   O     0.45348   0.72518   0.59567   0.00000  Uiso   1.00
H496   H     0.42829   0.74291   0.61388   0.00000  Uiso   1.00
O497   O     0.04633   0.97430   0.49423   0.00000  Uiso   1.00
H498   H     0.07064   0.97199   0.52193   0.00000  Uiso   1.00
O499   O     0.45421   0.97373   0.48260   0.00000  Uiso   1.00
H500   H     0.47505   0.66745   0.47170   0.00000  Uiso   1.00
O501   O     0.04600   0.72051   0.58890   0.00000  Uiso   1.00
H502   H     0.02543   0.69346   0.60054   0.00000  Uiso   1.00
Cl503  Cl    0.37330   0.93090   0.46479   0.00000  Uiso   1.00
Cl504  Cl    0.12418   0.73722   0.53448   0.00000  Uiso   1.00
Cl505  Cl    0.37839   0.73553   0.52424   0.00000  Uiso   1.00
Cl506  Cl    0.12327   0.92543   0.45181   0.00000  Uiso   1.00
O507   O     0.75000   0.76178   0.54562   0.00000  Uiso   1.00
O508   O     0.75000   0.90488   0.45438   0.00000  Uiso   1.00
O509   O     0.75000   0.90488   0.54562   0.00000  Uiso   1.00
O510   O     0.75000   0.76178   0.45438   0.00000  Uiso   1.00
C511   C     0.75001   0.73935   0.49998   0.00000  Uiso   1.00
C512   C     0.74993   0.92731   0.50002   0.00000  Uiso   1.00
O513   O     0.68392   0.83333   0.54563   0.00000  Uiso   1.00
O514   O     0.81607   0.83333   0.45437   0.00000  Uiso   1.00
O515   O     0.81607   0.83333   0.54563   0.00000  Uiso   1.00
O516   O     0.68392   0.83333   0.45437   0.00000  Uiso   1.00
C517   C     0.66320   0.83337   0.50012   0.00000  Uiso   1.00
C518   C     0.83677   0.83354   0.50009   0.00000  Uiso   1.00
Zn519  Zn    0.75000   0.83333   0.56093   0.00000  Uiso   1.00
Zn520  Zn    0.75000   0.83333   0.43907   0.00000  Uiso   1.00
N521   N     0.75000   0.83333   0.35788   0.00000  Uiso   1.00
N522   N     0.75000   0.83333   0.64212   0.00000  Uiso   1.00
C523   C     0.90632   0.88081   0.49099   0.00000  Uiso   1.00
C524   C     0.59300   0.79336   0.52492   0.00000  Uiso   1.00
C525   C     0.90717   0.79387   0.52237   0.00000  Uiso   1.00
C526   C     0.59320   0.87869   0.48863   0.00000  Uiso   1.00
C527   C     0.88469   0.83541   0.50164   0.00000  Uiso   1.00
C528   C     0.61522   0.83427   0.50182   0.00000  Uiso   1.00
C529   C     0.95280   0.79781   0.53496   0.00000  Uiso   1.00
C530   C     0.54727   0.88324   0.50030   0.00000  Uiso   1.00
C531   C     0.95308   0.88431   0.49934   0.00000  Uiso   1.00
C532   C     0.54660   0.79645   0.53480   0.00000  Uiso   1.00
C533   C     0.97641   0.84123   0.51843   0.00000  Uiso   1.00
C534   C     0.52347   0.84056   0.51863   0.00000  Uiso   1.00
C535   C     0.97576   0.75938   0.56313   0.00000  Uiso   1.00
C536   C     0.52418   0.92904   0.49386   0.00000  Uiso   1.00
C537   C     0.97712   0.92935   0.49071   0.00000  Uiso   1.00
C538   C     0.52279   0.75760   0.56135   0.00000  Uiso   1.00
C539   C     0.74997   0.68841   0.49997   0.00000  Uiso   1.00
C540   C     0.74994   0.97826   0.50003   0.00000  Uiso   1.00
O541   O     0.95348   0.72518   0.59567   0.00000  Uiso   1.00
H542   H     0.92829   0.74291   0.61388   0.00000  Uiso   1.00
O543   O     0.54633   0.97430   0.49423   0.00000  Uiso   1.00
H544   H     0.57064   0.97199   0.52193   0.00000  Uiso   1.00
O545   O     0.95421   0.97373   0.48260   0.00000  Uiso   1.00
H546   H     0.97505   0.66745   0.47170   0.00000  Uiso   1.00
O547   O     0.54600   0.72051   0.58890   0.00000  Uiso   1.00
H548   H     0.52543   0.69346   0.60054   0.00000  Uiso   1.00
Cl549  Cl    0.87330   0.93090   0.46479   0.00000  Uiso   1.00
Cl550  Cl    0.62418   0.73722   0.53448   0.00000  Uiso   1.00
Cl551  Cl    0.87839   0.73553   0.52424   0.00000  Uiso   1.00
Cl552  Cl    0.62327   0.92543   0.45181   0.00000  Uiso   1.00
O553   O     0.25000   0.09512   0.87895   0.00000  Uiso   1.00
O554   O     0.25000   0.23822   0.78772   0.00000  Uiso   1.00
O555   O     0.25000   0.23822   0.87895   0.00000  Uiso   1.00
O556   O     0.25000   0.09512   0.78772   0.00000  Uiso   1.00
C557   C     0.25001   0.07269   0.83332   0.00000  Uiso   1.00
C558   C     0.24993   0.26065   0.83335   0.00000  Uiso   1.00
O559   O     0.18392   0.16667   0.87896   0.00000  Uiso   1.00
O560   O     0.31607   0.16667   0.78770   0.00000  Uiso   1.00
O561   O     0.31607   0.16667   0.87896   0.00000  Uiso   1.00
O562   O     0.18392   0.16667   0.78770   0.00000  Uiso   1.00
C563   C     0.16320   0.16671   0.83345   0.00000  Uiso   1.00
C564   C     0.33677   0.16687   0.83342   0.00000  Uiso   1.00
Zn565  Zn    0.25000   0.16667   0.89426   0.00000  Uiso   1.00
Zn566  Zn    0.25000   0.16667   0.77241   0.00000  Uiso   1.00
N567   N     0.25000   0.16667   0.69121   0.00000  Uiso   1.00
N568   N     0.25000   0.16667   0.97545   0.00000  Uiso   1.00
C569   C     0.40632   0.21414   0.82432   0.00000  Uiso   1.00
C570   C     0.09300   0.12669   0.85826   0.00000  Uiso   1.00
C571   C     0.40717   0.12720   0.85570   0.00000  Uiso   1.00
C572   C     0.09320   0.21202   0.82196   0.00000  Uiso   1.00
C573   C     0.38469   0.16875   0.83497   0.00000  Uiso   1.00
C574   C     0.11522   0.16760   0.83515   0.00000  Uiso   1.00
C575   C     0.45280   0.13114   0.86829   0.00000  Uiso   1.00
C576   C     0.04727   0.21657   0.83364   0.00000  Uiso   1.00
C577   C     0.45308   0.21764   0.83267   0.00000  Uiso   1.00
C578   C     0.04660   0.12978   0.86814   0.00000  Uiso   1.00
C579   C     0.47641   0.17457   0.85176   0.00000  Uiso   1.00
C580   C     0.02347   0.17390   0.85197   0.00000  Uiso   1.00
C581   C     0.47576   0.09271   0.89647   0.00000  Uiso   1.00
C582   C     0.02418   0.26237   0.82720   0.00000  Uiso   1.00
C583   C     0.47712   0.26269   0.82404   0.00000  Uiso   1.00
C584   C     0.02279   0.09093   0.89469   0.00000  Uiso   1.00
C585   C     0.24997   0.02174   0.83331   0.00000  Uiso   1.00
C586   C     0.24994   0.31159   0.83336   0.00000  Uiso   1.00
O587   O     0.45348   0.05852   0.92900   0.00000  Uiso   1.00
H588   H     0.42829   0.07624   0.94722   0.00000  Uiso   1.00
O589   O     0.04633   0.30763   0.82756   0.00000  Uiso   1.00
H590   H     0.07064   0.30533   0.85526   0.00000  Uiso   1.00
O591   O     0.45421   0.30706   0.81593   0.00000  Uiso   1.00
H592   H     0.47505   0.00079   0.80504   0.00000  Uiso   1.00
O593   O     0.04600   0.05385   0.92224   0.00000  Uiso   1.00
H594   H     0.02543   0.02679   0.93387   0.00000  Uiso   1.00
Cl595  Cl    0.37330   0.26423   0.79812   0.00000  Uiso   1.00
Cl596  Cl    0.12418   0.07056   0.86781   0.00000  Uiso   1.00
Cl597  Cl    0.37839   0.06886   0.85757   0.00000  Uiso   1.00
Cl598  Cl    0.12327   0.25876   0.78514   0.00000  Uiso   1.00
O599   O     0.75000   0.09512   0.87895   0.00000  Uiso   1.00
O600   O     0.75000   0.23822   0.78772   0.00000  Uiso   1.00
O601   O     0.75000   0.23822   0.87895   0.00000  Uiso   1.00
O602   O     0.75000   0.09512   0.78772   0.00000  Uiso   1.00
C603   C     0.75001   0.07269   0.83332   0.00000  Uiso   1.00
C604   C     0.74993   0.26065   0.83335   0.00000  Uiso   1.00
O605   O     0.68392   0.16667   0.87896   0.00000  Uiso   1.00
O606   O     0.81607   0.16667   0.78770   0.00000  Uiso   1.00
O607   O     0.81607   0.16667   0.87896   0.00000  Uiso   1.00
O608   O     0.68392   0.16667   0.78770   0.00000  Uiso   1.00
C609   C     0.66320   0.16671   0.83345   0.00000  Uiso   1.00
C610   C     0.83677   0.16687   0.83342   0.00000  Uiso   1.00
Zn611  Zn    0.75000   0.16667   0.89426   0.00000  Uiso   1.00
Zn612  Zn    0.75000   0.16667   0.77241   0.00000  Uiso   1.00
N613   N     0.75000   0.16667   0.69121   0.00000  Uiso   1.00
N614   N     0.75000   0.16667   0.97545   0.00000  Uiso   1.00
C615   C     0.90632   0.21414   0.82432   0.00000  Uiso   1.00
C616   C     0.59300   0.12669   0.85826   0.00000  Uiso   1.00
C617   C     0.90717   0.12720   0.85570   0.00000  Uiso   1.00
C618   C     0.59320   0.21202   0.82196   0.00000  Uiso   1.00
C619   C     0.88469   0.16875   0.83497   0.00000  Uiso   1.00
C620   C     0.61522   0.16760   0.83515   0.00000  Uiso   1.00
C621   C     0.95280   0.13114   0.86829   0.00000  Uiso   1.00
C622   C     0.54727   0.21657   0.83364   0.00000  Uiso   1.00
C623   C     0.95308   0.21764   0.83267   0.00000  Uiso   1.00
C624   C     0.54660   0.12978   0.86814   0.00000  Uiso   1.00
C625   C     0.97641   0.17457   0.85176   0.00000  Uiso   1.00
C626   C     0.52347   0.17390   0.85197   0.00000  Uiso   1.00
C627   C     0.97576   0.09271   0.89647   0.00000  Uiso   1.00
C628   C     0.52418   0.26237   0.82720   0.00000  Uiso   1.00
C629   C     0.97712   0.26269   0.82404   0.00000  Uiso   1.00
C630   C     0.52279   0.09093   0.89469   0.00000  Uiso   1.00
C631   C     0.74997   0.02174   0.83331   0.00000  Uiso   1.00
C632   C     0.74994   0.31159   0.83336   0.00000  Uiso   1.00
O633   O     0.95348   0.05852   0.92900   0.00000  Uiso   1.00
H634   H     0.92829   0.07624   0.94722   0.00000  Uiso   1.00
O635   O     0.54633   0.30763   0.82756   0.00000  Uiso   1.00
H636   H     0.57064   0.30533   0.85526   0.00000  Uiso   1.00
O637   O     0.95421   0.30706   0.81593   0.00000  Uiso   1.00
H638   H     0.97505   0.00079   0.80504   0.00000  Uiso   1.00
O639   O     0.54600   0.05385   0.92224   0.00000  Uiso   1.00
H640   H     0.52543   0.02679   0.93387   0.00000  Uiso   1.00
Cl641  Cl    0.87330   0.26423   0.79812   0.00000  Uiso   1.00
Cl642  Cl    0.62418   0.07056   0.86781   0.00000  Uiso   1.00
Cl643  Cl    0.87839   0.06886   0.85757   0.00000  Uiso   1.00
Cl644  Cl    0.62327   0.25876   0.78514   0.00000  Uiso   1.00
O645   O     0.25000   0.42845   0.87895   0.00000  Uiso   1.00
O646   O     0.25000   0.57155   0.78772   0.00000  Uiso   1.00
O647   O     0.25000   0.57155   0.87895   0.00000  Uiso   1.00
O648   O     0.25000   0.42845   0.78772   0.00000  Uiso   1.00
C649   C     0.25001   0.40602   0.83332   0.00000  Uiso   1.00
C650   C     0.24993   0.59398   0.83335   0.00000  Uiso   1.00
O651   O     0.18392   0.50000   0.87896   0.00000  Uiso   1.00
O652   O     0.31607   0.50000   0.78770   0.00000  Uiso   1.00
O653   O     0.31607   0.50000   0.87896   0.00000  Uiso   1.00
O654   O     0.18392   0.50000   0.78770   0.00000  Uiso   1.00
C655   C     0.16320   0.50004   0.83345   0.00000  Uiso   1.00
C656   C     0.33677   0.50020   0.83342   0.00000  Uiso   1.00
Zn657  Zn    0.25000   0.50000   0.89426   0.00000  Uiso   1.00
Zn658  Zn    0.25000   0.50000   0.77241   0.00000  Uiso   1.00
N659   N     0.25000   0.50000   0.69121   0.00000  Uiso   1.00
N660   N     0.25000   0.50000   0.97545   0.00000  Uiso   1.00
C661   C     0.40632   0.54747   0.82432   0.00000  Uiso   1.00
C662   C     0.09300   0.46002   0.85826   0.00000  Uiso   1.00
C663   C     0.40717   0.46054   0.85570   0.00000  Uiso   1.00
C664   C     0.09320   0.54536   0.82196   0.00000  Uiso   1.00
C665   C     0.38469   0.50208   0.83497   0.00000  Uiso   1.00
C666   C     0.11522   0.50094   0.83515   0.00000  Uiso   1.00
C667   C     0.45280   0.46448   0.86829   0.00000  Uiso   1.00
C668   C     0.04727   0.54991   0.83364   0.00000  Uiso   1.00
C669   C     0.45308   0.55098   0.83267   0.00000  Uiso   1.00
C670   C     0.04660   0.46311   0.86814   0.00000  Uiso   1.00
C671   C     0.47641   0.50790   0.85176   0.00000  Uiso   1.00
C672   C     0.02347   0.50723   0.85197   0.00000  Uiso   1.00
C673   C     0.47576   0.42604   0.89647   0.00000  Uiso   1.00
C674   C     0.02418   0.59571   0.82720   0.00000  Uiso   1.00
C675   C     0.47712   0.59602   0.82404   0.00000  Uiso   1.00
C676   C     0.02279   0.42426   0.89469   0.00000  Uiso   1.00
C677   C     0.24997   0.35508   0.83331   0.00000  Uiso   1.00
C678   C     0.24994   0.64492   0.83336   0.00000  Uiso   1.00
O679   O     0.45348   0.39185   0.92900   0.00000  Uiso   1.00
H680   H     0.42829   0.40958   0.94722   0.00000  Uiso   1.00
O681   O     0.04633   0.64097   0.82756   0.00000  Uiso   1.00
H682   H     0.07064   0.63866   0.85526   0.00000  Uiso   1.00
O683   O     0.45421   0.64039   0.81593   0.00000  Uiso   1.00
H684   H     0.47505   0.33412   0.80504   0.00000  Uiso   1.00
O685   O     0.04600   0.38718   0.92224   0.00000  Uiso   1.00
H686   H     0.02543   0.36013   0.93387   0.00000  Uiso   1.00
Cl687  Cl    0.37330   0.59756   0.79812   0.00000  Uiso   1.00
Cl688  Cl    0.12418   0.40389   0.86781   0.00000  Uiso   1.00
Cl689  Cl    0.37839   0.40219   0.85757   0.00000  Uiso   1.00
Cl690  Cl    0.12327   0.59210   0.78514   0.00000  Uiso   1.00
O691   O     0.75000   0.42845   0.87895   0.00000  Uiso   1.00
O692   O     0.75000   0.57155   0.78772   0.00000  Uiso   1.00
O693   O     0.75000   0.57155   0.87895   0.00000  Uiso   1.00
O694   O     0.75000   0.42845   0.78772   0.00000  Uiso   1.00
C695   C     0.75001   0.40602   0.83332   0.00000  Uiso   1.00
C696   C     0.74993   0.59398   0.83335   0.00000  Uiso   1.00
O697   O     0.68392   0.50000   0.87896   0.00000  Uiso   1.00
O698   O     0.81607   0.50000   0.78770   0.00000  Uiso   1.00
O699   O     0.81607   0.50000   0.87896   0.00000  Uiso   1.00
O700   O     0.68392   0.50000   0.78770   0.00000  Uiso   1.00
C701   C     0.66320   0.50004   0.83345   0.00000  Uiso   1.00
C702   C     0.83677   0.50020   0.83342   0.00000  Uiso   1.00
Zn703  Zn    0.75000   0.50000   0.89426   0.00000  Uiso   1.00
Zn704  Zn    0.75000   0.50000   0.77241   0.00000  Uiso   1.00
N705   N     0.75000   0.50000   0.69121   0.00000  Uiso   1.00
N706   N     0.75000   0.50000   0.97545   0.00000  Uiso   1.00
C707   C     0.90632   0.54747   0.82432   0.00000  Uiso   1.00
C708   C     0.59300   0.46002   0.85826   0.00000  Uiso   1.00
C709   C     0.90717   0.46054   0.85570   0.00000  Uiso   1.00
C710   C     0.59320   0.54536   0.82196   0.00000  Uiso   1.00
C711   C     0.88469   0.50208   0.83497   0.00000  Uiso   1.00
C712   C     0.61522   0.50094   0.83515   0.00000  Uiso   1.00
C713   C     0.95280   0.46448   0.86829   0.00000  Uiso   1.00
C714   C     0.54727   0.54991   0.83364   0.00000  Uiso   1.00
C715   C     0.95308   0.55098   0.83267   0.00000  Uiso   1.00
C716   C     0.54660   0.46311   0.86814   0.00000  Uiso   1.00
C717   C     0.97641   0.50790   0.85176   0.00000  Uiso   1.00
C718   C     0.52347   0.50723   0.85197   0.00000  Uiso   1.00
C719   C     0.97576   0.42604   0.89647   0.00000  Uiso   1.00
C720   C     0.52418   0.59571   0.82720   0.00000  Uiso   1.00
C721   C     0.97712   0.59602   0.82404   0.00000  Uiso   1.00
C722   C     0.52279   0.42426   0.89469   0.00000  Uiso   1.00
C723   C     0.74997   0.35508   0.83331   0.00000  Uiso   1.00
C724   C     0.74994   0.64492   0.83336   0.00000  Uiso   1.00
O725   O     0.95348   0.39185   0.92900   0.00000  Uiso   1.00
H726   H     0.92829   0.40958   0.94722   0.00000  Uiso   1.00
O727   O     0.54633   0.64097   0.82756   0.00000  Uiso   1.00
H728   H     0.57064   0.63866   0.85526   0.00000  Uiso   1.00
O729   O     0.95421   0.64039   0.81593   0.00000  Uiso   1.00
H730   H     0.97505   0.33412   0.80504   0.00000  Uiso   1.00
O731   O     0.54600   0.38718   0.92224   0.00000  Uiso   1.00
H732   H     0.52543   0.36013   0.93387   0.00000  Uiso   1.00
Cl733  Cl    0.87330   0.59756   0.79812   0.00000  Uiso   1.00
Cl734  Cl    0.62418   0.40389   0.86781   0.00000  Uiso   1.00
Cl735  Cl    0.87839   0.40219   0.85757   0.00000  Uiso   1.00
Cl736  Cl    0.62327   0.59210   0.78514   0.00000  Uiso   1.00
O737   O     0.25000   0.76178   0.87895   0.00000  Uiso   1.00
O738   O     0.25000   0.90488   0.78772   0.00000  Uiso   1.00
O739   O     0.25000   0.90488   0.87895   0.00000  Uiso   1.00
O740   O     0.25000   0.76178   0.78772   0.00000  Uiso   1.00
C741   C     0.25001   0.73935   0.83332   0.00000  Uiso   1.00
C742   C     0.24993   0.92731   0.83335   0.00000  Uiso   1.00
O743   O     0.18392   0.83333   0.87896   0.00000  Uiso   1.00
O744   O     0.31607   0.83333   0.78770   0.00000  Uiso   1.00
O745   O     0.31607   0.83333   0.87896   0.00000  Uiso   1.00
O746   O     0.18392   0.83333   0.78770   0.00000  Uiso   1.00
C747   C     0.16320   0.83337   0.83345   0.00000  Uiso   1.00
C748   C     0.33677   0.83354   0.83342   0.00000  Uiso   1.00
Zn749  Zn    0.25000   0.83333   0.89426   0.00000  Uiso   1.00
Zn750  Zn    0.25000   0.83333   0.77241   0.00000  Uiso   1.00
N751   N     0.25000   0.83333   0.69121   0.00000  Uiso   1.00
N752   N     0.25000   0.83333   0.97545   0.00000  Uiso   1.00
C753   C     0.40632   0.88081   0.82432   0.00000  Uiso   1.00
C754   C     0.09300   0.79336   0.85826   0.00000  Uiso   1.00
C755   C     0.40717   0.79387   0.85570   0.00000  Uiso   1.00
C756   C     0.09320   0.87869   0.82196   0.00000  Uiso   1.00
C757   C     0.38469   0.83541   0.83497   0.00000  Uiso   1.00
C758   C     0.11522   0.83427   0.83515   0.00000  Uiso   1.00
C759   C     0.45280   0.79781   0.86829   0.00000  Uiso   1.00
C760   C     0.04727   0.88324   0.83364   0.00000  Uiso   1.00
C761   C     0.45308   0.88431   0.83267   0.00000  Uiso   1.00
C762   C     0.04660   0.79645   0.86814   0.00000  Uiso   1.00
C763   C     0.47641   0.84123   0.85176   0.00000  Uiso   1.00
C764   C     0.02347   0.84056   0.85197   0.00000  Uiso   1.00
C765   C     0.47576   0.75938   0.89647   0.00000  Uiso   1.00
C766   C     0.02418   0.92904   0.82720   0.00000  Uiso   1.00
C767   C     0.47712   0.92935   0.82404   0.00000  Uiso   1.00
C768   C     0.02279   0.75760   0.89469   0.00000  Uiso   1.00
C769   C     0.24997   0.68841   0.83331   0.00000  Uiso   1.00
C770   C     0.24994   0.97826   0.83336   0.00000  Uiso   1.00
O771   O     0.45348   0.72518   0.92900   0.00000  Uiso   1.00
H772   H     0.42829   0.74291   0.94722   0.00000  Uiso   1.00
O773   O     0.04633   0.97430   0.82756   0.00000  Uiso   1.00
H774   H     0.07064   0.97199   0.85526   0.00000  Uiso   1.00
O775   O     0.45421   0.97373   0.81593   0.00000  Uiso   1.00
H776   H     0.47505   0.66745   0.80504   0.00000  Uiso   1.00
O777   O     0.04600   0.72051   0.92224   0.00000  Uiso   1.00
H778   H     0.02543   0.69346   0.93387   0.00000  Uiso   1.00
Cl779  Cl    0.37330   0.93090   0.79812   0.00000  Uiso   1.00
Cl780  Cl    0.12418   0.73722   0.86781   0.00000  Uiso   1.00
Cl781  Cl    0.37839   0.73553   0.85757   0.00000  Uiso   1.00
Cl782  Cl    0.12327   0.92543   0.78514   0.00000  Uiso   1.00
O783   O     0.75000   0.76178   0.87895   0.00000  Uiso   1.00
O784   O     0.75000   0.90488   0.78772   0.00000  Uiso   1.00
O785   O     0.75000   0.90488   0.87895   0.00000  Uiso   1.00
O786   O     0.75000   0.76178   0.78772   0.00000  Uiso   1.00
C787   C     0.75001   0.73935   0.83332   0.00000  Uiso   1.00
C788   C     0.74993   0.92731   0.83335   0.00000  Uiso   1.00
O789   O     0.68392   0.83333   0.87896   0.00000  Uiso   1.00
O790   O     0.81607   0.83333   0.78770   0.00000  Uiso   1.00
O791   O     0.81607   0.83333   0.87896   0.00000  Uiso   1.00
O792   O     0.68392   0.83333   0.78770   0.00000  Uiso   1.00
C793   C     0.66320   0.83337   0.83345   0.00000  Uiso   1.00
C794   C     0.83677   0.83354   0.83342   0.00000  Uiso   1.00
Zn795  Zn    0.75000   0.83333   0.89426   0.00000  Uiso   1.00
Zn796  Zn    0.75000   0.83333   0.77241   0.00000  Uiso   1.00
N797   N     0.75000   0.83333   0.69121   0.00000  Uiso   1.00
N798   N     0.75000   0.83333   0.97545   0.00000  Uiso   1.00
C799   C     0.90632   0.88081   0.82432   0.00000  Uiso   1.00
C800   C     0.59300   0.79336   0.85826   0.00000  Uiso   1.00
C801   C     0.90717   0.79387   0.85570   0.00000  Uiso   1.00
C802   C     0.59320   0.87869   0.82196   0.00000  Uiso   1.00
C803   C     0.88469   0.83541   0.83497   0.00000  Uiso   1.00
C804   C     0.61522   0.83427   0.83515   0.00000  Uiso   1.00
C805   C     0.95280   0.79781   0.86829   0.00000  Uiso   1.00
C806   C     0.54727   0.88324   0.83364   0.00000  Uiso   1.00
C807   C     0.95308   0.88431   0.83267   0.00000  Uiso   1.00
C808   C     0.54660   0.79645   0.86814   0.00000  Uiso   1.00
C809   C     0.97641   0.84123   0.85176   0.00000  Uiso   1.00
C810   C     0.52347   0.84056   0.85197   0.00000  Uiso   1.00
C811   C     0.97576   0.75938   0.89647   0.00000  Uiso   1.00
C812   C     0.52418   0.92904   0.82720   0.00000  Uiso   1.00
C813   C     0.97712   0.92935   0.82404   0.00000  Uiso   1.00
C814   C     0.52279   0.75760   0.89469   0.00000  Uiso   1.00
C815   C     0.74997   0.68841   0.83331   0.00000  Uiso   1.00
C816   C     0.74994   0.97826   0.83336   0.00000  Uiso   1.00
O817   O     0.95348   0.72518   0.92900   0.00000  Uiso   1.00
H818   H     0.92829   0.74291   0.94722   0.00000  Uiso   1.00
O819   O     0.54633   0.97430   0.82756   0.00000  Uiso   1.00
H820   H     0.57064   0.97199   0.85526   0.00000  Uiso   1.00
O821   O     0.95421   0.97373   0.81593   0.00000  Uiso   1.00
H822   H     0.97505   0.66745   0.80504   0.00000  Uiso   1.00
O823   O     0.54600   0.72051   0.92224   0.00000  Uiso   1.00
H824   H     0.52543   0.69346   0.93387   0.00000  Uiso   1.00
Cl825  Cl    0.87330   0.93090   0.79812   0.00000  Uiso   1.00
Cl826  Cl    0.62418   0.73722   0.86781   0.00000  Uiso   1.00
Cl827  Cl    0.87839   0.73553   0.85757   0.00000  Uiso   1.00
Cl828  Cl    0.62327   0.92543   0.78514   0.00000  Uiso   1.00
loop_
_geom_bond_atom_site_label_1
_geom_bond_atom_site_label_2
_geom_bond_distance
_geom_bond_site_symmetry_2
_ccdc_geom_bond_type
O1     C5      1.262   .     A
O1     Zn13    1.950   .     S
O2     C6      1.262   .     A
O2     Zn14    1.950   .     S
O3     Zn13    1.951   .     S
O3     C6      1.263   .     A
O4     Zn14    1.951   .     S
O4     C5      1.263   .     A
C5     C33     1.363   .     S
C6     C34     1.363   .     S
O7     C11     1.269   .     A
O7     Zn13    2.003   .     S
O8     C12     1.273   .     A
O8     Zn14    2.003   .     S
O9     C12     1.268   .     A
O9     Zn13    2.002   .     S
O10    C11     1.273   .     A
O10    Zn14    2.002   .     S
C11    C22     1.430   .     S
C12    C21     1.428   .     S
Zn13   N16     1.977   .     S
Zn14   N15     1.977   .     S
N15    N568    1.196   1_554 S
N16    N291    1.196   .     S
C17    C25     1.410   .     A
C17    Cl43    1.781   .     S
C17    C21     1.399   .     A
C18    Cl44    1.781   .     S
C18    C26     1.405   .     A
C18    C22     1.398   .     A
C19    C23     1.397   .     A
C19    Cl45    1.781   .     S
C19    C21     1.393   .     A
C20    C22     1.395   .     A
C20    C24     1.402   .     A
C20    Cl46    1.781   .     S
C23    C29     1.413   .     A
C23    C27     1.416   .     A
C24    C30     1.414   .     A
C24    C28     1.416   .     A
C25    C31     1.417   .     A
C25    C27     1.424   .     A
C26    C32     1.415   .     A
C26    C28     1.423   .     A
C27    C74     1.402   .     S
C28    C73     1.402   1_455 S
C29    O35     1.380   .     S
C29    C78     1.402   .     S
C30    O37     1.379   .     S
C30    C77     1.404   1_455 S
C31    O39     1.384   .     S
C31    C76     1.404   .     S
C32    O41     1.384   .     S
C32    C75     1.402   1_455 S
C33    C218    1.164   1_545 S
C34    C125    1.164   .     S
O35    H36     0.992   .     S
O37    H38     0.992   .     S
O39    H132    0.990   .     S
H40    O223    0.990   1_545 S
O41    H42     0.990   .     S
O47    C51     1.262   .     A
O47    Zn59    1.950   .     S
O48    C52     1.262   .     A
O48    Zn60    1.950   .     S
O49    Zn59    1.951   .     S
O49    C52     1.263   .     A
O50    Zn60    1.951   .     S
O50    C51     1.263   .     A
C51    C79     1.363   .     S
C52    C80     1.363   .     S
O53    C57     1.269   .     A
O53    Zn59    2.003   .     S
O54    C58     1.273   .     A
O54    Zn60    2.003   .     S
O55    C58     1.268   .     A
O55    Zn59    2.002   .     S
O56    C57     1.273   .     A
O56    Zn60    2.002   .     S
C57    C68     1.430   .     S
C58    C67     1.428   .     S
Zn59   N62     1.977   .     S
Zn60   N61     1.977   .     S
N61    N614    1.196   1_554 S
N62    N337    1.196   .     S
C63    C71     1.410   .     A
C63    Cl89    1.781   .     S
C63    C67     1.399   .     A
C64    Cl90    1.781   .     S
C64    C72     1.405   .     A
C64    C68     1.398   .     A
C65    C69     1.397   .     A
C65    Cl91    1.781   .     S
C65    C67     1.393   .     A
C66    C68     1.395   .     A
C66    C70     1.402   .     A
C66    Cl92    1.781   .     S
C69    C75     1.413   .     A
C69    C73     1.416   .     A
C70    C76     1.414   .     A
C70    C74     1.416   .     A
C71    C77     1.417   .     A
C71    C73     1.424   .     A
C72    C78     1.415   .     A
C72    C74     1.423   .     A
C73    C28     1.402   1_655 S
C75    O81     1.380   .     S
C75    C32     1.402   1_655 S
C76    O83     1.379   .     S
C77    O85     1.384   .     S
C77    C30     1.404   1_655 S
C78    O87     1.384   .     S
C79    C264    1.164   1_545 S
C80    C171    1.164   .     S
O81    H82     0.992   .     S
O83    H84     0.992   .     S
O85    H178    0.990   .     S
H86    O269    0.990   1_545 S
O87    H88     0.990   .     S
O93    C97     1.262   .     A
O93    Zn105   1.950   .     S
O94    C98     1.262   .     A
O94    Zn106   1.950   .     S
O95    Zn105   1.951   .     S
O95    C98     1.263   .     A
O96    Zn106   1.951   .     S
O96    C97     1.263   .     A
C97    C125    1.363   .     S
C98    C126    1.363   .     S
O99    C103    1.269   .     A
O99    Zn105   2.003   .     S
O100   C104    1.273   .     A
O100   Zn106   2.003   .     S
O101   C104    1.268   .     A
O101   Zn105   2.002   .     S
O102   C103    1.273   .     A
O102   Zn106   2.002   .     S
C103   C114    1.430   .     S
C104   C113    1.428   .     S
Zn105  N108    1.977   .     S
Zn106  N107    1.977   .     S
N107   N660    1.196   1_554 S
N108   N383    1.196   .     S
C109   C117    1.410   .     A
C109   Cl135   1.781   .     S
C109   C113    1.399   .     A
C110   Cl136   1.781   .     S
C110   C118    1.405   .     A
C110   C114    1.398   .     A
C111   C115    1.397   .     A
C111   Cl137   1.781   .     S
C111   C113    1.393   .     A
C112   C114    1.395   .     A
C112   C116    1.402   .     A
C112   Cl138   1.781   .     S
C115   C121    1.413   .     A
C115   C119    1.416   .     A
C116   C122    1.414   .     A
C116   C120    1.416   .     A
C117   C123    1.417   .     A
C117   C119    1.424   .     A
C118   C124    1.415   .     A
C118   C120    1.423   .     A
C119   C166    1.402   .     S
C120   C165    1.402   1_455 S
C121   O127    1.380   .     S
C121   C170    1.402   .     S
C122   O129    1.379   .     S
C122   C169    1.404   1_455 S
C123   O131    1.384   .     S
C123   C168    1.404   .     S
C124   O133    1.384   .     S
C124   C167    1.402   1_455 S
C126   C217    1.164   .     S
O127   H128    0.992   .     S
O129   H130    0.992   .     S
O131   H224    0.990   .     S
O133   H134    0.990   .     S
O139   C143    1.262   .     A
O139   Zn151   1.950   .     S
O140   C144    1.262   .     A
O140   Zn152   1.950   .     S
O141   Zn151   1.951   .     S
O141   C144    1.263   .     A
O142   Zn152   1.951   .     S
O142   C143    1.263   .     A
C143   C171    1.363   .     S
C144   C172    1.363   .     S
O145   C149    1.269   .     A
O145   Zn151   2.003   .     S
O146   C150    1.273   .     A
O146   Zn152   2.003   .     S
O147   C150    1.268   .     A
O147   Zn151   2.002   .     S
O148   C149    1.273   .     A
O148   Zn152   2.002   .     S
C149   C160    1.430   .     S
C150   C159    1.428   .     S
Zn151  N154    1.977   .     S
Zn152  N153    1.977   .     S
N153   N706    1.196   1_554 S
N154   N429    1.196   .     S
C155   C163    1.410   .     A
C155   Cl181   1.781   .     S
C155   C159    1.399   .     A
C156   Cl182   1.781   .     S
C156   C164    1.405   .     A
C156   C160    1.398   .     A
C157   C161    1.397   .     A
C157   Cl183   1.781   .     S
C157   C159    1.393   .     A
C158   C160    1.395   .     A
C158   C162    1.402   .     A
C158   Cl184   1.781   .     S
C161   C167    1.413   .     A
C161   C165    1.416   .     A
C162   C168    1.414   .     A
C162   C166    1.416   .     A
C163   C169    1.417   .     A
C163   C165    1.424   .     A
C164   C170    1.415   .     A
C164   C166    1.423   .     A
C165   C120    1.402   1_655 S
C167   O173    1.380   .     S
C167   C124    1.402   1_655 S
C168   O175    1.379   .     S
C169   O177    1.384   .     S
C169   C122    1.404   1_655 S
C170   O179    1.384   .     S
C172   C263    1.164   .     S
O173   H174    0.992   .     S
O175   H176    0.992   .     S
O177   H270    0.990   .     S
O179   H180    0.990   .     S
O185   C189    1.262   .     A
O185   Zn197   1.950   .     S
O186   C190    1.262   .     A
O186   Zn198   1.950   .     S
O187   Zn197   1.951   .     S
O187   C190    1.263   .     A
O188   Zn198   1.951   .     S
O188   C189    1.263   .     A
C189   C217    1.363   .     S
C190   C218    1.363   .     S
O191   C195    1.269   .     A
O191   Zn197   2.003   .     S
O192   C196    1.273   .     A
O192   Zn198   2.003   .     S
O193   C196    1.268   .     A
O193   Zn197   2.002   .     S
O194   C195    1.273   .     A
O194   Zn198   2.002   .     S
C195   C206    1.430   .     S
C196   C205    1.428   .     S
Zn197  N200    1.977   .     S
Zn198  N199    1.977   .     S
N199   N752    1.196   1_554 S
N200   N475    1.196   .     S
C201   C209    1.410   .     A
C201   Cl227   1.781   .     S
C201   C205    1.399   .     A
C202   Cl228   1.781   .     S
C202   C210    1.405   .     A
C202   C206    1.398   .     A
C203   C207    1.397   .     A
C203   Cl229   1.781   .     S
C203   C205    1.393   .     A
C204   C206    1.395   .     A
C204   C208    1.402   .     A
C204   Cl230   1.781   .     S
C207   C213    1.413   .     A
C207   C211    1.416   .     A
C208   C214    1.414   .     A
C208   C212    1.416   .     A
C209   C215    1.417   .     A
C209   C211    1.424   .     A
C210   C216    1.415   .     A
C210   C212    1.423   .     A
C211   C258    1.402   .     S
C212   C257    1.402   1_455 S
C213   O219    1.380   .     S
C213   C262    1.402   .     S
C214   O221    1.379   .     S
C214   C261    1.404   1_455 S
C215   O223    1.384   .     S
C215   C260    1.404   .     S
C216   O225    1.384   .     S
C216   C259    1.402   1_455 S
C218   C33     1.164   1_565 S
O219   H220    0.992   .     S
O221   H222    0.992   .     S
O223   H40     0.990   1_565 S
O225   H226    0.990   .     S
O231   C235    1.262   .     A
O231   Zn243   1.950   .     S
O232   C236    1.262   .     A
O232   Zn244   1.950   .     S
O233   Zn243   1.951   .     S
O233   C236    1.263   .     A
O234   Zn244   1.951   .     S
O234   C235    1.263   .     A
C235   C263    1.363   .     S
C236   C264    1.363   .     S
O237   C241    1.269   .     A
O237   Zn243   2.003   .     S
O238   C242    1.273   .     A
O238   Zn244   2.003   .     S
O239   C242    1.268   .     A
O239   Zn243   2.002   .     S
O240   C241    1.273   .     A
O240   Zn244   2.002   .     S
C241   C252    1.430   .     S
C242   C251    1.428   .     S
Zn243  N246    1.977   .     S
Zn244  N245    1.977   .     S
N245   N798    1.196   1_554 S
N246   N521    1.196   .     S
C247   C255    1.410   .     A
C247   Cl273   1.781   .     S
C247   C251    1.399   .     A
C248   Cl274   1.781   .     S
C248   C256    1.405   .     A
C248   C252    1.398   .     A
C249   C253    1.397   .     A
C249   Cl275   1.781   .     S
C249   C251    1.393   .     A
C250   C252    1.395   .     A
C250   C254    1.402   .     A
C250   Cl276   1.781   .     S
C253   C259    1.413   .     A
C253   C257    1.416   .     A
C254   C260    1.414   .     A
C254   C258    1.416   .     A
C255   C261    1.417   .     A
C255   C257    1.424   .     A
C256   C262    1.415   .     A
C256   C258    1.423   .     A
C257   C212    1.402   1_655 S
C259   O265    1.380   .     S
C259   C216    1.402   1_655 S
C260   O267    1.379   .     S
C261   O269    1.384   .     S
C261   C214    1.404   1_655 S
C262   O271    1.384   .     S
C264   C79     1.164   1_565 S
O265   H266    0.992   .     S
O267   H268    0.992   .     S
O269   H86     0.990   1_565 S
O271   H272    0.990   .     S
O277   C281    1.262   .     A
O277   Zn289   1.950   .     S
O278   C282    1.262   .     A
O278   Zn290   1.950   .     S
O279   Zn289   1.951   .     S
O279   C282    1.263   .     A
O280   Zn290   1.951   .     S
O280   C281    1.263   .     A
C281   C309    1.363   .     S
C282   C310    1.363   .     S
O283   C287    1.269   .     A
O283   Zn289   2.003   .     S
O284   C288    1.273   .     A
O284   Zn290   2.003   .     S
O285   C288    1.268   .     A
O285   Zn289   2.002   .     S
O286   C287    1.273   .     A
O286   Zn290   2.002   .     S
C287   C298    1.430   .     S
C288   C297    1.428   .     S
Zn289  N292    1.977   .     S
Zn290  N291    1.977   .     S
N292   N567    1.196   .     S
C293   C301    1.410   .     A
C293   Cl319   1.781   .     S
C293   C297    1.399   .     A
C294   Cl320   1.781   .     S
C294   C302    1.405   .     A
C294   C298    1.398   .     A
C295   C299    1.397   .     A
C295   Cl321   1.781   .     S
C295   C297    1.393   .     A
C296   C298    1.395   .     A
C296   C300    1.402   .     A
C296   Cl322   1.781   .     S
C299   C305    1.413   .     A
C299   C303    1.416   .     A
C300   C306    1.414   .     A
C300   C304    1.416   .     A
C301   C307    1.417   .     A
C301   C303    1.424   .     A
C302   C308    1.415   .     A
C302   C304    1.423   .     A
C303   C350    1.402   .     S
C304   C349    1.402   1_455 S
C305   O311    1.380   .     S
C305   C354    1.402   .     S
C306   O313    1.379   .     S
C306   C353    1.404   1_455 S
C307   O315    1.384   .     S
C307   C352    1.404   .     S
C308   O317    1.384   .     S
C308   C351    1.402   1_455 S
C309   C494    1.164   1_545 S
C310   C401    1.164   .     S
O311   H312    0.992   .     S
O313   H314    0.992   .     S
O315   H408    0.990   .     S
H316   O499    0.990   1_545 S
O317   H318    0.990   .     S
O323   C327    1.262   .     A
O323   Zn335   1.950   .     S
O324   C328    1.262   .     A
O324   Zn336   1.950   .     S
O325   Zn335   1.951   .     S
O325   C328    1.263   .     A
O326   Zn336   1.951   .     S
O326   C327    1.263   .     A
C327   C355    1.363   .     S
C328   C356    1.363   .     S
O329   C333    1.269   .     A
O329   Zn335   2.003   .     S
O330   C334    1.273   .     A
O330   Zn336   2.003   .     S
O331   C334    1.268   .     A
O331   Zn335   2.002   .     S
O332   C333    1.273   .     A
O332   Zn336   2.002   .     S
C333   C344    1.430   .     S
C334   C343    1.428   .     S
Zn335  N338    1.977   .     S
Zn336  N337    1.977   .     S
N338   N613    1.196   .     S
C339   C347    1.410   .     A
C339   Cl365   1.781   .     S
C339   C343    1.399   .     A
C340   Cl366   1.781   .     S
C340   C348    1.405   .     A
C340   C344    1.398   .     A
C341   C345    1.397   .     A
C341   Cl367   1.781   .     S
C341   C343    1.393   .     A
C342   C344    1.395   .     A
C342   C346    1.402   .     A
C342   Cl368   1.781   .     S
C345   C351    1.413   .     A
C345   C349    1.416   .     A
C346   C352    1.414   .     A
C346   C350    1.416   .     A
C347   C353    1.417   .     A
C347   C349    1.424   .     A
C348   C354    1.415   .     A
C348   C350    1.423   .     A
C349   C304    1.402   1_655 S
C351   O357    1.380   .     S
C351   C308    1.402   1_655 S
C352   O359    1.379   .     S
C353   O361    1.384   .     S
C353   C306    1.404   1_655 S
C354   O363    1.384   .     S
C355   C540    1.164   1_545 S
C356   C447    1.164   .     S
O357   H358    0.992   .     S
O359   H360    0.992   .     S
O361   H454    0.990   .     S
H362   O545    0.990   1_545 S
O363   H364    0.990   .     S
O369   C373    1.262   .     A
O369   Zn381   1.950   .     S
O370   C374    1.262   .     A
O370   Zn382   1.950   .     S
O371   Zn381   1.951   .     S
O371   C374    1.263   .     A
O372   Zn382   1.951   .     S
O372   C373    1.263   .     A
C373   C401    1.363   .     S
C374   C402    1.363   .     S
O375   C379    1.269   .     A
O375   Zn381   2.003   .     S
O376   C380    1.273   .     A
O376   Zn382   2.003   .     S
O377   C380    1.268   .     A
O377   Zn381   2.002   .     S
O378   C379    1.273   .     A
O378   Zn382   2.002   .     S
C379   C390    1.430   .     S
C380   C389    1.428   .     S
Zn381  N384    1.977   .     S
Zn382  N383    1.977   .     S
N384   N659    1.196   .     S
C385   C393    1.410   .     A
C385   Cl411   1.781   .     S
C385   C389    1.399   .     A
C386   Cl412   1.781   .     S
C386   C394    1.405   .     A
C386   C390    1.398   .     A
C387   C391    1.397   .     A
C387   Cl413   1.781   .     S
C387   C389    1.393   .     A
C388   C390    1.395   .     A
C388   C392    1.402   .     A
C388   Cl414   1.781   .     S
C391   C397    1.413   .     A
C391   C395    1.416   .     A
C392   C398    1.414   .     A
C392   C396    1.416   .     A
C393   C399    1.417   .     A
C393   C395    1.424   .     A
C394   C400    1.415   .     A
C394   C396    1.423   .     A
C395   C442    1.402   .     S
C396   C441    1.402   1_455 S
C397   O403    1.380   .     S
C397   C446    1.402   .     S
C398   O405    1.379   .     S
C398   C445    1.404   1_455 S
C399   O407    1.384   .     S
C399   C444    1.404   .     S
C400   O409    1.384   .     S
C400   C443    1.402   1_455 S
C402   C493    1.164   .     S
O403   H404    0.992   .     S
O405   H406    0.992   .     S
O407   H500    0.990   .     S
O409   H410    0.990   .     S
O415   C419    1.262   .     A
O415   Zn427   1.950   .     S
O416   C420    1.262   .     A
O416   Zn428   1.950   .     S
O417   Zn427   1.951   .     S
O417   C420    1.263   .     A
O418   Zn428   1.951   .     S
O418   C419    1.263   .     A
C419   C447    1.363   .     S
C420   C448    1.363   .     S
O421   C425    1.269   .     A
O421   Zn427   2.003   .     S
O422   C426    1.273   .     A
O422   Zn428   2.003   .     S
O423   C426    1.268   .     A
O423   Zn427   2.002   .     S
O424   C425    1.273   .     A
O424   Zn428   2.002   .     S
C425   C436    1.430   .     S
C426   C435    1.428   .     S
Zn427  N430    1.977   .     S
Zn428  N429    1.977   .     S
N430   N705    1.196   .     S
C431   C439    1.410   .     A
C431   Cl457   1.781   .     S
C431   C435    1.399   .     A
C432   Cl458   1.781   .     S
C432   C440    1.405   .     A
C432   C436    1.398   .     A
C433   C437    1.397   .     A
C433   Cl459   1.781   .     S
C433   C435    1.393   .     A
C434   C436    1.395   .     A
C434   C438    1.402   .     A
C434   Cl460   1.781   .     S
C437   C443    1.413   .     A
C437   C441    1.416   .     A
C438   C444    1.414   .     A
C438   C442    1.416   .     A
C439   C445    1.417   .     A
C439   C441    1.424   .     A
C440   C446    1.415   .     A
C440   C442    1.423   .     A
C441   C396    1.402   1_655 S
C443   O449    1.380   .     S
C443   C400    1.402   1_655 S
C444   O451    1.379   .     S
C445   O453    1.384   .     S
C445   C398    1.404   1_655 S
C446   O455    1.384   .     S
C448   C539    1.164   .     S
O449   H450    0.992   .     S
O451   H452    0.992   .     S
O453   H546    0.990   .     S
O455   H456    0.990   .     S
O461   C465    1.262   .     A
O461   Zn473   1.950   .     S
O462   C466    1.262   .     A
O462   Zn474   1.950   .     S
O463   Zn473   1.951   .     S
O463   C466    1.263   .     A
O464   Zn474   1.951   .     S
O464   C465    1.263   .     A
C465   C493    1.363   .     S
C466   C494    1.363   .     S
O467   C471    1.269   .     A
O467   Zn473   2.003   .     S
O468   C472    1.273   .     A
O468   Zn474   2.003   .     S
O469   C472    1.268   .     A
O469   Zn473   2.002   .     S
O470   C471    1.273   .     A
O470   Zn474   2.002   .     S
C471   C482    1.430   .     S
C472   C481    1.428   .     S
Zn473  N476    1.977   .     S
Zn474  N475    1.977   .     S
N476   N751    1.196   .     S
C477   C485    1.410   .     A
C477   Cl503   1.781   .     S
C477   C481    1.399   .     A
C478   Cl504   1.781   .     S
C478   C486    1.405   .     A
C478   C482    1.398   .     A
C479   C483    1.397   .     A
C479   Cl505   1.781   .     S
C479   C481    1.393   .     A
C480   C482    1.395   .     A
C480   C484    1.402   .     A
C480   Cl506   1.781   .     S
C483   C489    1.413   .     A
C483   C487    1.416   .     A
C484   C490    1.414   .     A
C484   C488    1.416   .     A
C485   C491    1.417   .     A
C485   C487    1.424   .     A
C486   C492    1.415   .     A
C486   C488    1.423   .     A
C487   C534    1.402   .     S
C488   C533    1.402   1_455 S
C489   O495    1.380   .     S
C489   C538    1.402   .     S
C490   O497    1.379   .     S
C490   C537    1.404   1_455 S
C491   O499    1.384   .     S
C491   C536    1.404   .     S
C492   O501    1.384   .     S
C492   C535    1.402   1_455 S
C494   C309    1.164   1_565 S
O495   H496    0.992   .     S
O497   H498    0.992   .     S
O499   H316    0.990   1_565 S
O501   H502    0.990   .     S
O507   C511    1.262   .     A
O507   Zn519   1.950   .     S
O508   C512    1.262   .     A
O508   Zn520   1.950   .     S
O509   Zn519   1.951   .     S
O509   C512    1.263   .     A
O510   Zn520   1.951   .     S
O510   C511    1.263   .     A
C511   C539    1.363   .     S
C512   C540    1.363   .     S
O513   C517    1.269   .     A
O513   Zn519   2.003   .     S
O514   C518    1.273   .     A
O514   Zn520   2.003   .     S
O515   C518    1.268   .     A
O515   Zn519   2.002   .     S
O516   C517    1.273   .     A
O516   Zn520   2.002   .     S
C517   C528    1.430   .     S
C518   C527    1.428   .     S
Zn519  N522    1.977   .     S
Zn520  N521    1.977   .     S
N522   N797    1.196   .     S
C523   C531    1.410   .     A
C523   Cl549   1.781   .     S
C523   C527    1.399   .     A
C524   Cl550   1.781   .     S
C524   C532    1.405   .     A
C524   C528    1.398   .     A
C525   C529    1.397   .     A
C525   Cl551   1.781   .     S
C525   C527    1.393   .     A
C526   C528    1.395   .     A
C526   C530    1.402   .     A
C526   Cl552   1.781   .     S
C529   C535    1.413   .     A
C529   C533    1.416   .     A
C530   C536    1.414   .     A
C530   C534    1.416   .     A
C531   C537    1.417   .     A
C531   C533    1.424   .     A
C532   C538    1.415   .     A
C532   C534    1.423   .     A
C533   C488    1.402   1_655 S
C535   O541    1.380   .     S
C535   C492    1.402   1_655 S
C536   O543    1.379   .     S
C537   O545    1.384   .     S
C537   C490    1.404   1_655 S
C538   O547    1.384   .     S
C540   C355    1.164   1_565 S
O541   H542    0.992   .     S
O543   H544    0.992   .     S
O545   H362    0.990   1_565 S
O547   H548    0.990   .     S
O553   C557    1.262   .     A
O553   Zn565   1.950   .     S
O554   C558    1.262   .     A
O554   Zn566   1.950   .     S
O555   Zn565   1.951   .     S
O555   C558    1.263   .     A
O556   Zn566   1.951   .     S
O556   C557    1.263   .     A
C557   C585    1.363   .     S
C558   C586    1.363   .     S
O559   C563    1.269   .     A
O559   Zn565   2.003   .     S
O560   C564    1.273   .     A
O560   Zn566   2.003   .     S
O561   C564    1.268   .     A
O561   Zn565   2.002   .     S
O562   C563    1.273   .     A
O562   Zn566   2.002   .     S
C563   C574    1.430   .     S
C564   C573    1.428   .     S
Zn565  N568    1.977   .     S
Zn566  N567    1.977   .     S
N568   N15     1.196   1_556 S
C569   C577    1.410   .     A
C569   Cl595   1.781   .     S
C569   C573    1.399   .     A
C570   Cl596   1.781   .     S
C570   C578    1.405   .     A
C570   C574    1.398   .     A
C571   C575    1.397   .     A
C571   Cl597   1.781   .     S
C571   C573    1.393   .     A
C572   C574    1.395   .     A
C572   C576    1.402   .     A
C572   Cl598   1.781   .     S
C575   C581    1.413   .     A
C575   C579    1.416   .     A
C576   C582    1.414   .     A
C576   C580    1.416   .     A
C577   C583    1.417   .     A
C577   C579    1.424   .     A
C578   C584    1.415   .     A
C578   C580    1.423   .     A
C579   C626    1.402   .     S
C580   C625    1.402   1_455 S
C581   O587    1.380   .     S
C581   C630    1.402   .     S
C582   O589    1.379   .     S
C582   C629    1.404   1_455 S
C583   O591    1.384   .     S
C583   C628    1.404   .     S
C584   O593    1.384   .     S
C584   C627    1.402   1_455 S
C585   C770    1.164   1_545 S
C586   C677    1.164   .     S
O587   H588    0.992   .     S
O589   H590    0.992   .     S
O591   H684    0.990   .     S
H592   O775    0.990   1_545 S
O593   H594    0.990   .     S
O599   C603    1.262   .     A
O599   Zn611   1.950   .     S
O600   C604    1.262   .     A
O600   Zn612   1.950   .     S
O601   Zn611   1.951   .     S
O601   C604    1.263   .     A
O602   Zn612   1.951   .     S
O602   C603    1.263   .     A
C603   C631    1.363   .     S
C604   C632    1.363   .     S
O605   C609    1.269   .     A
O605   Zn611   2.003   .     S
O606   C610    1.273   .     A
O606   Zn612   2.003   .     S
O607   C610    1.268   .     A
O607   Zn611   2.002   .     S
O608   C609    1.273   .     A
O608   Zn612   2.002   .     S
C609   C620    1.430   .     S
C610   C619    1.428   .     S
Zn611  N614    1.977   .     S
Zn612  N613    1.977   .     S
N614   N61     1.196   1_556 S
C615   C623    1.410   .     A
C615   Cl641   1.781   .     S
C615   C619    1.399   .     A
C616   Cl642   1.781   .     S
C616   C624    1.405   .     A
C616   C620    1.398   .     A
C617   C621    1.397   .     A
C617   Cl643   1.781   .     S
C617   C619    1.393   .     A
C618   C620    1.395   .     A
C618   C622    1.402   .     A
C618   Cl644   1.781   .     S
C621   C627    1.413   .     A
C621   C625    1.416   .     A
C622   C628    1.414   .     A
C622   C626    1.416   .     A
C623   C629    1.417   .     A
C623   C625    1.424   .     A
C624   C630    1.415   .     A
C624   C626    1.423   .     A
C625   C580    1.402   1_655 S
C627   O633    1.380   .     S
C627   C584    1.402   1_655 S
C628   O635    1.379   .     S
C629   O637    1.384   .     S
C629   C582    1.404   1_655 S
C630   O639    1.384   .     S
C631   C816    1.164   1_545 S
C632   C723    1.164   .     S
O633   H634    0.992   .     S
O635   H636    0.992   .     S
O637   H730    0.990   .     S
H638   O821    0.990   1_545 S
O639   H640    0.990   .     S
O645   C649    1.262   .     A
O645   Zn657   1.950   .     S
O646   C650    1.262   .     A
O646   Zn658   1.950   .     S
O647   Zn657   1.951   .     S
O647   C650    1.263   .     A
O648   Zn658   1.951   .     S
O648   C649    1.263   .     A
C649   C677    1.363   .     S
C650   C678    1.363   .     S
O651   C655    1.269   .     A
O651   Zn657   2.003   .     S
O652   C656    1.273   .     A
O652   Zn658   2.003   .     S
O653   C656    1.268   .     A
O653   Zn657   2.002   .     S
O654   C655    1.273   .     A
O654   Zn658   2.002   .     S
C655   C666    1.430   .     S
C656   C665    1.428   .     S
Zn657  N660    1.977   .     S
Zn658  N659    1.977   .     S
N660   N107    1.196   1_556 S
C661   C669    1.410   .     A
C661   Cl687   1.781   .     S
C661   C665    1.399   .     A
C662   Cl688   1.781   .     S
C662   C670    1.405   .     A
C662   C666    1.398   .     A
C663   C667    1.397   .     A
C663   Cl689   1.781   .     S
C663   C665    1.393   .     A
C664   C666    1.395   .     A
C664   C668    1.402   .     A
C664   Cl690   1.781   .     S
C667   C673    1.413   .     A
C667   C671    1.416   .     A
C668   C674    1.414   .     A
C668   C672    1.416   .     A
C669   C675    1.417   .     A
C669   C671    1.424   .     A
C670   C676    1.415   .     A
C670   C672    1.423   .     A
C671   C718    1.402   .     S
C672   C717    1.402   1_455 S
C673   O679    1.380   .     S
C673   C722    1.402   .     S
C674   O681    1.379   .     S
C674   C721    1.404   1_455 S
C675   O683    1.384   .     S
C675   C720    1.404   .     S
C676   O685    1.384   .     S
C676   C719    1.402   1_455 S
C678   C769    1.164   .     S
O679   H680    0.992   .     S
O681   H682    0.992   .     S
O683   H776    0.990   .     S
O685   H686    0.990   .     S
O691   C695    1.262   .     A
O691   Zn703   1.950   .     S
O692   C696    1.262   .     A
O692   Zn704   1.950   .     S
O693   Zn703   1.951   .     S
O693   C696    1.263   .     A
O694   Zn704   1.951   .     S
O694   C695    1.263   .     A
C695   C723    1.363   .     S
C696   C724    1.363   .     S
O697   C701    1.269   .     A
O697   Zn703   2.003   .     S
O698   C702    1.273   .     A
O698   Zn704   2.003   .     S
O699   C702    1.268   .     A
O699   Zn703   2.002   .     S
O700   C701    1.273   .     A
O700   Zn704   2.002   .     S
C701   C712    1.430   .     S
C702   C711    1.428   .     S
Zn703  N706    1.977   .     S
Zn704  N705    1.977   .     S
N706   N153    1.196   1_556 S
C707   C715    1.410   .     A
C707   Cl733   1.781   .     S
C707   C711    1.399   .     A
C708   Cl734   1.781   .     S
C708   C716    1.405   .     A
C708   C712    1.398   .     A
C709   C713    1.397   .     A
C709   Cl735   1.781   .     S
C709   C711    1.393   .     A
C710   C712    1.395   .     A
C710   C714    1.402   .     A
C710   Cl736   1.781   .     S
C713   C719    1.413   .     A
C713   C717    1.416   .     A
C714   C720    1.414   .     A
C714   C718    1.416   .     A
C715   C721    1.417   .     A
C715   C717    1.424   .     A
C716   C722    1.415   .     A
C716   C718    1.423   .     A
C717   C672    1.402   1_655 S
C719   O725    1.380   .     S
C719   C676    1.402   1_655 S
C720   O727    1.379   .     S
C721   O729    1.384   .     S
C721   C674    1.404   1_655 S
C722   O731    1.384   .     S
C724   C815    1.164   .     S
O725   H726    0.992   .     S
O727   H728    0.992   .     S
O729   H822    0.990   .     S
O731   H732    0.990   .     S
O737   C741    1.262   .     A
O737   Zn749   1.950   .     S
O738   C742    1.262   .     A
O738   Zn750   1.950   .     S
O739   Zn749   1.951   .     S
O739   C742    1.263   .     A
O740   Zn750   1.951   .     S
O740   C741    1.263   .     A
C741   C769    1.363   .     S
C742   C770    1.363   .     S
O743   C747    1.269   .     A
O743   Zn749   2.003   .     S
O744   C748    1.273   .     A
O744   Zn750   2.003   .     S
O745   C748    1.268   .     A
O745   Zn749   2.002   .     S
O746   C747    1.273   .     A
O746   Zn750   2.002   .     S
C747   C758    1.430   .     S
C748   C757    1.428   .     S
Zn749  N752    1.977   .     S
Zn750  N751    1.977   .     S
N752   N199    1.196   1_556 S
C753   C761    1.410   .     A
C753   Cl779   1.781   .     S
C753   C757    1.399   .     A
C754   Cl780   1.781   .     S
C754   C762    1.405   .     A
C754   C758    1.398   .     A
C755   C759    1.397   .     A
C755   Cl781   1.781   .     S
C755   C757    1.393   .     A
C756   C758    1.395   .     A
C756   C760    1.402   .     A
C756   Cl782   1.781   .     S
C759   C765    1.413   .     A
C759   C763    1.416   .     A
C760   C766    1.414   .     A
C760   C764    1.416   .     A
C761   C767    1.417   .     A
C761   C763    1.424   .     A
C762   C768    1.415   .     A
C762   C764    1.423   .     A
C763   C810    1.402   .     S
C764   C809    1.402   1_455 S
C765   O771    1.380   .     S
C765   C814    1.402   .     S
C766   O773    1.379   .     S
C766   C813    1.404   1_455 S
C767   O775    1.384   .     S
C767   C812    1.404   .     S
C768   O777    1.384   .     S
C768   C811    1.402   1_455 S
C770   C585    1.164   1_565 S
O771   H772    0.992   .     S
O773   H774    0.992   .     S
O775   H592    0.990   1_565 S
O777   H778    0.990   .     S
O783   C787    1.262   .     A
O783   Zn795   1.950   .     S
O784   C788    1.262   .     A
O784   Zn796   1.950   .     S
O785   Zn795   1.951   .     S
O785   C788    1.263   .     A
O786   Zn796   1.951   .     S
O786   C787    1.263   .     A
C787   C815    1.363   .     S
C788   C816    1.363   .     S
O789   C793    1.269   .     A
O789   Zn795   2.003   .     S
O790   C794    1.273   .     A
O790   Zn796   2.003   .     S
O791   C794    1.268   .     A
O791   Zn795   2.002   .     S
O792   C793    1.273   .     A
O792   Zn796   2.002   .     S
C793   C804    1.430   .     S
C794   C803    1.428   .     S
Zn795  N798    1.977   .     S
Zn796  N797    1.977   .     S
N798   N245    1.196   1_556 S
C799   C807    1.410   .     A
C799   Cl825   1.781   .     S
C799   C803    1.399   .     A
C800   Cl826   1.781   .     S
C800   C808    1.405   .     A
C800   C804    1.398   .     A
C801   C805    1.397   .     A
C801   Cl827   1.781   .     S
C801   C803    1.393   .     A
C802   C804    1.395   .     A
C802   C806    1.402   .     A
C802   Cl828   1.781   .     S
C805   C811    1.413   .     A
C805   C809    1.416   .     A
C806   C812    1.414   .     A
C806   C810    1.416   .     A
C807   C813    1.417   .     A
C807   C809    1.424   .     A
C808   C814    1.415   .     A
C808   C810    1.423   .     A
C809   C764    1.402   1_655 S
C811   O817    1.380   .     S
C811   C768    1.402   1_655 S
C812   O819    1.379   .     S
C813   O821    1.384   .     S
C813   C766    1.404   1_655 S
C814   O823    1.384   .     S
C816   C631    1.164   1_565 S
O817   H818    0.992   .     S
O819   H820    0.992   .     S
O821   H638    0.990   1_565 S
O823   H824    0.990   .     S
