data_str_m3_o2_o10_pcu_sym.136
_audit_creation_date              2020-01-03
_audit_creation_method            'Materials Studio'
_symmetry_space_group_name_H-M    'P1'
_symmetry_Int_Tables_number       1
_symmetry_cell_setting            triclinic
loop_
_symmetry_equiv_pos_as_xyz
  x,y,z
_cell_length_a                    25.8358
_cell_length_b                    29.8719
_cell_length_c                    28.5397
_cell_angle_alpha                 90.7804
_cell_angle_beta                  98.3623
_cell_angle_gamma                 91.2188
loop_
_atom_site_label
_atom_site_type_symbol
_atom_site_fract_x
_atom_site_fract_y
_atom_site_fract_z
_atom_site_U_iso_or_equiv
_atom_site_adp_type
_atom_site_occupancy
C1     C     0.16785   0.16408   0.24984   0.00000  Uiso   1.00
C2     C     0.16633   0.33578   0.25024   0.00000  Uiso   1.00
C3     C     0.12671   0.22870   0.04668   0.00000  Uiso   1.00
C4     C     0.19059   0.28479   0.45134   0.00000  Uiso   1.00
C5     C     0.12789   0.22752   0.09601   0.00000  Uiso   1.00
C6     C     0.19197   0.28375   0.40230   0.00000  Uiso   1.00
C7     C     0.20526   0.27285   0.10756   0.00000  Uiso   1.00
C8     C     0.14113   0.21636   0.39405   0.00000  Uiso   1.00
C9     C     0.20661   0.27210   0.05814   0.00000  Uiso   1.00
C10    C     0.14203   0.21529   0.44373   0.00000  Uiso   1.00
C11    C     0.16668   0.25029   0.02658   0.00000  Uiso   1.00
C12    C     0.16642   0.25007   0.47338   0.00000  Uiso   1.00
C13    C     0.06725   0.24894   0.23783   0.00000  Uiso   1.00
C14    C     0.26608   0.25130   0.26213   0.00000  Uiso   1.00
C15    C     0.01248   0.24202   0.23266   0.00000  Uiso   1.00
C16    C     0.32078   0.25870   0.26705   0.00000  Uiso   1.00
C17    C     0.20566   0.04737   0.28087   0.00000  Uiso   1.00
C18    C     0.12403   0.45352   0.25520   0.00000  Uiso   1.00
C19    C     0.20690   0.09364   0.28194   0.00000  Uiso   1.00
C20    C     0.12126   0.40730   0.25643   0.00000  Uiso   1.00
C21    C     0.17072   0.11624   0.24914   0.00000  Uiso   1.00
C22    C     0.16652   0.38343   0.25078   0.00000  Uiso   1.00
C23    C     0.13596   0.09275   0.21494   0.00000  Uiso   1.00
C24    C     0.21322   0.40528   0.24461   0.00000  Uiso   1.00
C25    C     0.13587   0.04635   0.21308   0.00000  Uiso   1.00
C26    C     0.21569   0.45160   0.24281   0.00000  Uiso   1.00
C27    C     0.17090   0.02384   0.24667   0.00000  Uiso   1.00
C28    C     0.17042   0.47555   0.24785   0.00000  Uiso   1.00
H29    H     0.23228   0.02957   0.30664   0.00000  Uiso   1.00
H30    H     0.08971   0.47245   0.25977   0.00000  Uiso   1.00
H31    H     0.10847   0.11059   0.18993   0.00000  Uiso   1.00
H32    H     0.24766   0.38617   0.24089   0.00000  Uiso   1.00
H33    H     0.09433   0.21204   0.02441   0.00000  Uiso   1.00
H34    H     0.20927   0.31291   0.47193   0.00000  Uiso   1.00
H35    H     0.23913   0.28862   0.04495   0.00000  Uiso   1.00
H36    H     0.12370   0.18703   0.45865   0.00000  Uiso   1.00
N37    N     0.16667   0.24999   0.12624   0.00000  Uiso   1.00
N38    N     0.16667   0.25001   0.37377   0.00000  Uiso   1.00
O39    O     0.16667   0.18454   0.28974   0.00000  Uiso   1.00
O40    O     0.16666   0.31547   0.21026   0.00000  Uiso   1.00
O41    O     0.16667   0.18453   0.21026   0.00000  Uiso   1.00
O42    O     0.16666   0.31547   0.28974   0.00000  Uiso   1.00
O43    O     0.09058   0.25000   0.28045   0.00000  Uiso   1.00
O44    O     0.24275   0.25000   0.21956   0.00000  Uiso   1.00
O45    O     0.09058   0.25000   0.20097   0.00000  Uiso   1.00
O46    O     0.24275   0.25001   0.29904   0.00000  Uiso   1.00
Zn47   Zn    0.16667   0.25001   0.30307   0.00000  Uiso   1.00
Zn48   Zn    0.16667   0.25000   0.19693   0.00000  Uiso   1.00
O49    O     0.32062   0.21436   0.19645   0.00000  Uiso   1.00
H50    H     0.01323   0.20250   0.17739   0.00000  Uiso   1.00
O51    O     0.01252   0.28681   0.30290   0.00000  Uiso   1.00
H52    H     0.31991   0.29833   0.32217   0.00000  Uiso   1.00
O53    O     0.24419   0.11501   0.31478   0.00000  Uiso   1.00
H54    H     0.25031   0.14593   0.30452   0.00000  Uiso   1.00
O55    O     0.07392   0.38738   0.26246   0.00000  Uiso   1.00
H56    H     0.07612   0.35442   0.26060   0.00000  Uiso   1.00
N57    N     0.09921   0.02270   0.17884   0.00000  Uiso   1.00
H58    H     0.06553   0.04000   0.16802   0.00000  Uiso   1.00
C59    C     0.12105   0.00403   0.13917   0.00000  Uiso   1.00
H60    H     0.08949   0.48695   0.11430   0.00000  Uiso   1.00
H61    H     0.15072   0.47881   0.15125   0.00000  Uiso   1.00
H62    H     0.13908   0.03102   0.12002   0.00000  Uiso   1.00
N63    N     0.26378   0.47370   0.23706   0.00000  Uiso   1.00
H64    H     0.29651   0.45630   0.25070   0.00000  Uiso   1.00
C65    C     0.26676   0.48891   0.18961   0.00000  Uiso   1.00
H66    H     0.30569   0.00503   0.18853   0.00000  Uiso   1.00
H67    H     0.23657   0.01411   0.17894   0.00000  Uiso   1.00
H68    H     0.26156   0.46014   0.16411   0.00000  Uiso   1.00
O69    O     0.08884   0.20302   0.11235   0.00000  Uiso   1.00
H70    H     0.10198   0.19394   0.14478   0.00000  Uiso   1.00
O71    O     0.21973   0.31762   0.38449   0.00000  Uiso   1.00
H72    H     0.23149   0.30612   0.35547   0.00000  Uiso   1.00
N73    N     0.24499   0.29669   0.13807   0.00000  Uiso   1.00
H74    H     0.28195   0.28589   0.13471   0.00000  Uiso   1.00
C75    C     0.24195   0.34491   0.13514   0.00000  Uiso   1.00
H76    H     0.27151   0.36068   0.16291   0.00000  Uiso   1.00
H77    H     0.20257   0.35611   0.14076   0.00000  Uiso   1.00
H78    H     0.25015   0.35630   0.10000   0.00000  Uiso   1.00
N79    N     0.11467   0.18157   0.36514   0.00000  Uiso   1.00
H80    H     0.12934   0.15043   0.37379   0.00000  Uiso   1.00
C81    C     0.05826   0.18178   0.36162   0.00000  Uiso   1.00
H82    H     0.04580   0.17182   0.39573   0.00000  Uiso   1.00
H83    H     0.04079   0.15764   0.33350   0.00000  Uiso   1.00
H84    H     0.04339   0.21554   0.35227   0.00000  Uiso   1.00
C85    C     0.50118   0.16408   0.24984   0.00000  Uiso   1.00
C86    C     0.49966   0.33578   0.25024   0.00000  Uiso   1.00
C87    C     0.46005   0.22870   0.04668   0.00000  Uiso   1.00
C88    C     0.52393   0.28479   0.45134   0.00000  Uiso   1.00
C89    C     0.46122   0.22752   0.09601   0.00000  Uiso   1.00
C90    C     0.52531   0.28375   0.40230   0.00000  Uiso   1.00
C91    C     0.53859   0.27285   0.10756   0.00000  Uiso   1.00
C92    C     0.47446   0.21636   0.39405   0.00000  Uiso   1.00
C93    C     0.53995   0.27210   0.05814   0.00000  Uiso   1.00
C94    C     0.47536   0.21529   0.44373   0.00000  Uiso   1.00
C95    C     0.50002   0.25029   0.02658   0.00000  Uiso   1.00
C96    C     0.49976   0.25007   0.47338   0.00000  Uiso   1.00
C97    C     0.40059   0.24894   0.23783   0.00000  Uiso   1.00
C98    C     0.59941   0.25130   0.26213   0.00000  Uiso   1.00
C99    C     0.34582   0.24202   0.23266   0.00000  Uiso   1.00
C100   C     0.65412   0.25870   0.26705   0.00000  Uiso   1.00
C101   C     0.53899   0.04737   0.28087   0.00000  Uiso   1.00
C102   C     0.45736   0.45352   0.25520   0.00000  Uiso   1.00
C103   C     0.54023   0.09364   0.28194   0.00000  Uiso   1.00
C104   C     0.45459   0.40730   0.25643   0.00000  Uiso   1.00
C105   C     0.50406   0.11624   0.24914   0.00000  Uiso   1.00
C106   C     0.49986   0.38343   0.25078   0.00000  Uiso   1.00
C107   C     0.46929   0.09275   0.21494   0.00000  Uiso   1.00
C108   C     0.54655   0.40528   0.24461   0.00000  Uiso   1.00
C109   C     0.46920   0.04635   0.21308   0.00000  Uiso   1.00
C110   C     0.54902   0.45160   0.24281   0.00000  Uiso   1.00
C111   C     0.50424   0.02384   0.24667   0.00000  Uiso   1.00
C112   C     0.50375   0.47555   0.24785   0.00000  Uiso   1.00
H113   H     0.56561   0.02957   0.30664   0.00000  Uiso   1.00
H114   H     0.42304   0.47245   0.25977   0.00000  Uiso   1.00
H115   H     0.44181   0.11059   0.18993   0.00000  Uiso   1.00
H116   H     0.58099   0.38617   0.24089   0.00000  Uiso   1.00
H117   H     0.42766   0.21204   0.02441   0.00000  Uiso   1.00
H118   H     0.54260   0.31291   0.47193   0.00000  Uiso   1.00
H119   H     0.57246   0.28862   0.04495   0.00000  Uiso   1.00
H120   H     0.45704   0.18703   0.45865   0.00000  Uiso   1.00
N121   N     0.50000   0.24999   0.12624   0.00000  Uiso   1.00
N122   N     0.50000   0.25001   0.37377   0.00000  Uiso   1.00
O123   O     0.50000   0.18454   0.28974   0.00000  Uiso   1.00
O124   O     0.50000   0.31547   0.21026   0.00000  Uiso   1.00
O125   O     0.50000   0.18453   0.21026   0.00000  Uiso   1.00
O126   O     0.50000   0.31547   0.28974   0.00000  Uiso   1.00
O127   O     0.42392   0.25000   0.28045   0.00000  Uiso   1.00
O128   O     0.57608   0.25000   0.21956   0.00000  Uiso   1.00
O129   O     0.42392   0.25000   0.20097   0.00000  Uiso   1.00
O130   O     0.57608   0.25001   0.29904   0.00000  Uiso   1.00
Zn131  Zn    0.50000   0.25001   0.30307   0.00000  Uiso   1.00
Zn132  Zn    0.50000   0.25000   0.19693   0.00000  Uiso   1.00
O133   O     0.65395   0.21436   0.19645   0.00000  Uiso   1.00
H134   H     0.34656   0.20250   0.17739   0.00000  Uiso   1.00
O135   O     0.34586   0.28681   0.30290   0.00000  Uiso   1.00
H136   H     0.65324   0.29833   0.32217   0.00000  Uiso   1.00
O137   O     0.57752   0.11501   0.31478   0.00000  Uiso   1.00
H138   H     0.58364   0.14593   0.30452   0.00000  Uiso   1.00
O139   O     0.40725   0.38738   0.26246   0.00000  Uiso   1.00
H140   H     0.40945   0.35442   0.26060   0.00000  Uiso   1.00
N141   N     0.43254   0.02270   0.17884   0.00000  Uiso   1.00
H142   H     0.39887   0.04000   0.16802   0.00000  Uiso   1.00
C143   C     0.45438   0.00403   0.13917   0.00000  Uiso   1.00
H144   H     0.42282   0.48695   0.11430   0.00000  Uiso   1.00
H145   H     0.48405   0.47881   0.15125   0.00000  Uiso   1.00
H146   H     0.47241   0.03102   0.12002   0.00000  Uiso   1.00
N147   N     0.59711   0.47370   0.23706   0.00000  Uiso   1.00
H148   H     0.62984   0.45630   0.25070   0.00000  Uiso   1.00
C149   C     0.60009   0.48891   0.18961   0.00000  Uiso   1.00
H150   H     0.63902   0.00503   0.18853   0.00000  Uiso   1.00
H151   H     0.56991   0.01411   0.17894   0.00000  Uiso   1.00
H152   H     0.59489   0.46014   0.16411   0.00000  Uiso   1.00
O153   O     0.42217   0.20302   0.11235   0.00000  Uiso   1.00
H154   H     0.43531   0.19394   0.14478   0.00000  Uiso   1.00
O155   O     0.55307   0.31762   0.38449   0.00000  Uiso   1.00
H156   H     0.56482   0.30612   0.35547   0.00000  Uiso   1.00
N157   N     0.57833   0.29669   0.13807   0.00000  Uiso   1.00
H158   H     0.61529   0.28589   0.13471   0.00000  Uiso   1.00
C159   C     0.57528   0.34491   0.13514   0.00000  Uiso   1.00
H160   H     0.60485   0.36068   0.16291   0.00000  Uiso   1.00
H161   H     0.53590   0.35611   0.14076   0.00000  Uiso   1.00
H162   H     0.58348   0.35630   0.10000   0.00000  Uiso   1.00
N163   N     0.44801   0.18157   0.36514   0.00000  Uiso   1.00
H164   H     0.46267   0.15043   0.37379   0.00000  Uiso   1.00
C165   C     0.39159   0.18178   0.36162   0.00000  Uiso   1.00
H166   H     0.37914   0.17182   0.39573   0.00000  Uiso   1.00
H167   H     0.37413   0.15764   0.33350   0.00000  Uiso   1.00
H168   H     0.37672   0.21554   0.35227   0.00000  Uiso   1.00
C169   C     0.83452   0.16408   0.24984   0.00000  Uiso   1.00
C170   C     0.83299   0.33578   0.25024   0.00000  Uiso   1.00
C171   C     0.79338   0.22870   0.04668   0.00000  Uiso   1.00
C172   C     0.85726   0.28479   0.45134   0.00000  Uiso   1.00
C173   C     0.79455   0.22752   0.09601   0.00000  Uiso   1.00
C174   C     0.85864   0.28375   0.40230   0.00000  Uiso   1.00
C175   C     0.87192   0.27285   0.10756   0.00000  Uiso   1.00
C176   C     0.80780   0.21636   0.39405   0.00000  Uiso   1.00
C177   C     0.87328   0.27210   0.05814   0.00000  Uiso   1.00
C178   C     0.80869   0.21529   0.44373   0.00000  Uiso   1.00
C179   C     0.83335   0.25029   0.02658   0.00000  Uiso   1.00
C180   C     0.83309   0.25007   0.47338   0.00000  Uiso   1.00
C181   C     0.73392   0.24894   0.23783   0.00000  Uiso   1.00
C182   C     0.93274   0.25130   0.26213   0.00000  Uiso   1.00
C183   C     0.67915   0.24202   0.23266   0.00000  Uiso   1.00
C184   C     0.98745   0.25870   0.26705   0.00000  Uiso   1.00
C185   C     0.87233   0.04737   0.28087   0.00000  Uiso   1.00
C186   C     0.79070   0.45352   0.25520   0.00000  Uiso   1.00
C187   C     0.87357   0.09364   0.28194   0.00000  Uiso   1.00
C188   C     0.78793   0.40730   0.25643   0.00000  Uiso   1.00
C189   C     0.83739   0.11624   0.24914   0.00000  Uiso   1.00
C190   C     0.83319   0.38343   0.25078   0.00000  Uiso   1.00
C191   C     0.80263   0.09275   0.21494   0.00000  Uiso   1.00
C192   C     0.87988   0.40528   0.24461   0.00000  Uiso   1.00
C193   C     0.80253   0.04635   0.21308   0.00000  Uiso   1.00
C194   C     0.88236   0.45160   0.24281   0.00000  Uiso   1.00
C195   C     0.83757   0.02384   0.24667   0.00000  Uiso   1.00
C196   C     0.83708   0.47555   0.24785   0.00000  Uiso   1.00
H197   H     0.89895   0.02957   0.30664   0.00000  Uiso   1.00
H198   H     0.75637   0.47245   0.25977   0.00000  Uiso   1.00
H199   H     0.77514   0.11059   0.18993   0.00000  Uiso   1.00
H200   H     0.91433   0.38617   0.24089   0.00000  Uiso   1.00
H201   H     0.76100   0.21204   0.02441   0.00000  Uiso   1.00
H202   H     0.87593   0.31291   0.47193   0.00000  Uiso   1.00
H203   H     0.90579   0.28862   0.04495   0.00000  Uiso   1.00
H204   H     0.79037   0.18703   0.45865   0.00000  Uiso   1.00
N205   N     0.83333   0.24999   0.12624   0.00000  Uiso   1.00
N206   N     0.83333   0.25001   0.37377   0.00000  Uiso   1.00
O207   O     0.83334   0.18454   0.28974   0.00000  Uiso   1.00
O208   O     0.83333   0.31547   0.21026   0.00000  Uiso   1.00
O209   O     0.83334   0.18453   0.21026   0.00000  Uiso   1.00
O210   O     0.83333   0.31547   0.28974   0.00000  Uiso   1.00
O211   O     0.75725   0.25000   0.28045   0.00000  Uiso   1.00
O212   O     0.90942   0.25000   0.21956   0.00000  Uiso   1.00
O213   O     0.75725   0.25000   0.20097   0.00000  Uiso   1.00
O214   O     0.90942   0.25001   0.29904   0.00000  Uiso   1.00
Zn215  Zn    0.83333   0.25001   0.30307   0.00000  Uiso   1.00
Zn216  Zn    0.83333   0.25000   0.19693   0.00000  Uiso   1.00
O217   O     0.98728   0.21436   0.19645   0.00000  Uiso   1.00
H218   H     0.67989   0.20250   0.17739   0.00000  Uiso   1.00
O219   O     0.67919   0.28681   0.30290   0.00000  Uiso   1.00
H220   H     0.98658   0.29833   0.32217   0.00000  Uiso   1.00
O221   O     0.91085   0.11501   0.31478   0.00000  Uiso   1.00
H222   H     0.91697   0.14593   0.30452   0.00000  Uiso   1.00
O223   O     0.74058   0.38738   0.26246   0.00000  Uiso   1.00
H224   H     0.74278   0.35442   0.26060   0.00000  Uiso   1.00
N225   N     0.76588   0.02270   0.17884   0.00000  Uiso   1.00
H226   H     0.73220   0.04000   0.16802   0.00000  Uiso   1.00
C227   C     0.78771   0.00403   0.13917   0.00000  Uiso   1.00
H228   H     0.75616   0.48695   0.11430   0.00000  Uiso   1.00
H229   H     0.81739   0.47881   0.15125   0.00000  Uiso   1.00
H230   H     0.80574   0.03102   0.12002   0.00000  Uiso   1.00
N231   N     0.93044   0.47370   0.23706   0.00000  Uiso   1.00
H232   H     0.96318   0.45630   0.25070   0.00000  Uiso   1.00
C233   C     0.93343   0.48891   0.18961   0.00000  Uiso   1.00
H234   H     0.97235   0.00503   0.18853   0.00000  Uiso   1.00
H235   H     0.90324   0.01411   0.17894   0.00000  Uiso   1.00
H236   H     0.92822   0.46014   0.16411   0.00000  Uiso   1.00
O237   O     0.75551   0.20302   0.11235   0.00000  Uiso   1.00
H238   H     0.76864   0.19394   0.14478   0.00000  Uiso   1.00
O239   O     0.88640   0.31762   0.38449   0.00000  Uiso   1.00
H240   H     0.89815   0.30612   0.35547   0.00000  Uiso   1.00
N241   N     0.91166   0.29669   0.13807   0.00000  Uiso   1.00
H242   H     0.94862   0.28589   0.13471   0.00000  Uiso   1.00
C243   C     0.90862   0.34491   0.13514   0.00000  Uiso   1.00
H244   H     0.93818   0.36068   0.16291   0.00000  Uiso   1.00
H245   H     0.86923   0.35611   0.14076   0.00000  Uiso   1.00
H246   H     0.91681   0.35630   0.10000   0.00000  Uiso   1.00
N247   N     0.78134   0.18157   0.36514   0.00000  Uiso   1.00
H248   H     0.79601   0.15043   0.37379   0.00000  Uiso   1.00
C249   C     0.72493   0.18178   0.36162   0.00000  Uiso   1.00
H250   H     0.71247   0.17182   0.39573   0.00000  Uiso   1.00
H251   H     0.70746   0.15764   0.33350   0.00000  Uiso   1.00
H252   H     0.71006   0.21554   0.35227   0.00000  Uiso   1.00
C253   C     0.16785   0.66408   0.24984   0.00000  Uiso   1.00
C254   C     0.16633   0.83578   0.25024   0.00000  Uiso   1.00
C255   C     0.12671   0.72870   0.04668   0.00000  Uiso   1.00
C256   C     0.19059   0.78479   0.45134   0.00000  Uiso   1.00
C257   C     0.12789   0.72752   0.09601   0.00000  Uiso   1.00
C258   C     0.19197   0.78375   0.40230   0.00000  Uiso   1.00
C259   C     0.20526   0.77285   0.10756   0.00000  Uiso   1.00
C260   C     0.14113   0.71636   0.39405   0.00000  Uiso   1.00
C261   C     0.20661   0.77210   0.05814   0.00000  Uiso   1.00
C262   C     0.14203   0.71529   0.44373   0.00000  Uiso   1.00
C263   C     0.16668   0.75029   0.02658   0.00000  Uiso   1.00
C264   C     0.16642   0.75007   0.47338   0.00000  Uiso   1.00
C265   C     0.06725   0.74894   0.23783   0.00000  Uiso   1.00
C266   C     0.26608   0.75130   0.26213   0.00000  Uiso   1.00
C267   C     0.01248   0.74202   0.23266   0.00000  Uiso   1.00
C268   C     0.32078   0.75870   0.26705   0.00000  Uiso   1.00
C269   C     0.20566   0.54737   0.28087   0.00000  Uiso   1.00
C270   C     0.12403   0.95352   0.25520   0.00000  Uiso   1.00
C271   C     0.20690   0.59364   0.28194   0.00000  Uiso   1.00
C272   C     0.12126   0.90730   0.25643   0.00000  Uiso   1.00
C273   C     0.17072   0.61624   0.24914   0.00000  Uiso   1.00
C274   C     0.16652   0.88343   0.25078   0.00000  Uiso   1.00
C275   C     0.13596   0.59275   0.21494   0.00000  Uiso   1.00
C276   C     0.21322   0.90528   0.24461   0.00000  Uiso   1.00
C277   C     0.13587   0.54635   0.21308   0.00000  Uiso   1.00
C278   C     0.21569   0.95160   0.24281   0.00000  Uiso   1.00
C279   C     0.17090   0.52384   0.24667   0.00000  Uiso   1.00
C280   C     0.17042   0.97555   0.24785   0.00000  Uiso   1.00
H281   H     0.23228   0.52957   0.30664   0.00000  Uiso   1.00
H282   H     0.08971   0.97245   0.25977   0.00000  Uiso   1.00
H283   H     0.10847   0.61059   0.18993   0.00000  Uiso   1.00
H284   H     0.24766   0.88617   0.24089   0.00000  Uiso   1.00
H285   H     0.09433   0.71204   0.02441   0.00000  Uiso   1.00
H286   H     0.20927   0.81291   0.47193   0.00000  Uiso   1.00
H287   H     0.23913   0.78862   0.04495   0.00000  Uiso   1.00
H288   H     0.12370   0.68703   0.45865   0.00000  Uiso   1.00
N289   N     0.16667   0.74999   0.12624   0.00000  Uiso   1.00
N290   N     0.16667   0.75001   0.37377   0.00000  Uiso   1.00
O291   O     0.16667   0.68454   0.28974   0.00000  Uiso   1.00
O292   O     0.16666   0.81547   0.21026   0.00000  Uiso   1.00
O293   O     0.16667   0.68453   0.21026   0.00000  Uiso   1.00
O294   O     0.16666   0.81547   0.28974   0.00000  Uiso   1.00
O295   O     0.09058   0.75000   0.28045   0.00000  Uiso   1.00
O296   O     0.24275   0.75000   0.21956   0.00000  Uiso   1.00
O297   O     0.09058   0.75000   0.20097   0.00000  Uiso   1.00
O298   O     0.24275   0.75001   0.29904   0.00000  Uiso   1.00
Zn299  Zn    0.16667   0.75001   0.30307   0.00000  Uiso   1.00
Zn300  Zn    0.16667   0.75000   0.19693   0.00000  Uiso   1.00
O301   O     0.32062   0.71436   0.19645   0.00000  Uiso   1.00
H302   H     0.01323   0.70250   0.17739   0.00000  Uiso   1.00
O303   O     0.01252   0.78681   0.30290   0.00000  Uiso   1.00
H304   H     0.31991   0.79833   0.32217   0.00000  Uiso   1.00
O305   O     0.24419   0.61501   0.31478   0.00000  Uiso   1.00
H306   H     0.25031   0.64593   0.30452   0.00000  Uiso   1.00
O307   O     0.07392   0.88738   0.26246   0.00000  Uiso   1.00
H308   H     0.07612   0.85442   0.26060   0.00000  Uiso   1.00
N309   N     0.09921   0.52270   0.17884   0.00000  Uiso   1.00
H310   H     0.06553   0.54000   0.16802   0.00000  Uiso   1.00
C311   C     0.12105   0.50403   0.13917   0.00000  Uiso   1.00
H312   H     0.08949   0.98695   0.11430   0.00000  Uiso   1.00
H313   H     0.15072   0.97881   0.15125   0.00000  Uiso   1.00
H314   H     0.13908   0.53102   0.12002   0.00000  Uiso   1.00
N315   N     0.26378   0.97370   0.23706   0.00000  Uiso   1.00
H316   H     0.29651   0.95630   0.25070   0.00000  Uiso   1.00
C317   C     0.26676   0.98891   0.18961   0.00000  Uiso   1.00
H318   H     0.30569   0.50503   0.18853   0.00000  Uiso   1.00
H319   H     0.23657   0.51411   0.17894   0.00000  Uiso   1.00
H320   H     0.26156   0.96014   0.16411   0.00000  Uiso   1.00
O321   O     0.08884   0.70302   0.11235   0.00000  Uiso   1.00
H322   H     0.10198   0.69394   0.14478   0.00000  Uiso   1.00
O323   O     0.21973   0.81762   0.38449   0.00000  Uiso   1.00
H324   H     0.23149   0.80612   0.35547   0.00000  Uiso   1.00
N325   N     0.24499   0.79669   0.13807   0.00000  Uiso   1.00
H326   H     0.28195   0.78589   0.13471   0.00000  Uiso   1.00
C327   C     0.24195   0.84491   0.13514   0.00000  Uiso   1.00
H328   H     0.27151   0.86068   0.16291   0.00000  Uiso   1.00
H329   H     0.20257   0.85611   0.14076   0.00000  Uiso   1.00
H330   H     0.25015   0.85630   0.10000   0.00000  Uiso   1.00
N331   N     0.11467   0.68157   0.36514   0.00000  Uiso   1.00
H332   H     0.12934   0.65043   0.37379   0.00000  Uiso   1.00
C333   C     0.05826   0.68178   0.36162   0.00000  Uiso   1.00
H334   H     0.04580   0.67182   0.39573   0.00000  Uiso   1.00
H335   H     0.04079   0.65764   0.33350   0.00000  Uiso   1.00
H336   H     0.04339   0.71554   0.35227   0.00000  Uiso   1.00
C337   C     0.50118   0.66408   0.24984   0.00000  Uiso   1.00
C338   C     0.49966   0.83578   0.25024   0.00000  Uiso   1.00
C339   C     0.46005   0.72870   0.04668   0.00000  Uiso   1.00
C340   C     0.52393   0.78479   0.45134   0.00000  Uiso   1.00
C341   C     0.46122   0.72752   0.09601   0.00000  Uiso   1.00
C342   C     0.52531   0.78375   0.40230   0.00000  Uiso   1.00
C343   C     0.53859   0.77285   0.10756   0.00000  Uiso   1.00
C344   C     0.47446   0.71636   0.39405   0.00000  Uiso   1.00
C345   C     0.53995   0.77210   0.05814   0.00000  Uiso   1.00
C346   C     0.47536   0.71529   0.44373   0.00000  Uiso   1.00
C347   C     0.50002   0.75029   0.02658   0.00000  Uiso   1.00
C348   C     0.49976   0.75007   0.47338   0.00000  Uiso   1.00
C349   C     0.40059   0.74894   0.23783   0.00000  Uiso   1.00
C350   C     0.59941   0.75130   0.26213   0.00000  Uiso   1.00
C351   C     0.34582   0.74202   0.23266   0.00000  Uiso   1.00
C352   C     0.65412   0.75870   0.26705   0.00000  Uiso   1.00
C353   C     0.53899   0.54737   0.28087   0.00000  Uiso   1.00
C354   C     0.45736   0.95352   0.25520   0.00000  Uiso   1.00
C355   C     0.54023   0.59364   0.28194   0.00000  Uiso   1.00
C356   C     0.45459   0.90730   0.25643   0.00000  Uiso   1.00
C357   C     0.50406   0.61624   0.24914   0.00000  Uiso   1.00
C358   C     0.49986   0.88343   0.25078   0.00000  Uiso   1.00
C359   C     0.46929   0.59275   0.21494   0.00000  Uiso   1.00
C360   C     0.54655   0.90528   0.24461   0.00000  Uiso   1.00
C361   C     0.46920   0.54635   0.21308   0.00000  Uiso   1.00
C362   C     0.54902   0.95160   0.24281   0.00000  Uiso   1.00
C363   C     0.50424   0.52384   0.24667   0.00000  Uiso   1.00
C364   C     0.50375   0.97555   0.24785   0.00000  Uiso   1.00
H365   H     0.56561   0.52957   0.30664   0.00000  Uiso   1.00
H366   H     0.42304   0.97245   0.25977   0.00000  Uiso   1.00
H367   H     0.44181   0.61059   0.18993   0.00000  Uiso   1.00
H368   H     0.58099   0.88617   0.24089   0.00000  Uiso   1.00
H369   H     0.42766   0.71204   0.02441   0.00000  Uiso   1.00
H370   H     0.54260   0.81291   0.47193   0.00000  Uiso   1.00
H371   H     0.57246   0.78862   0.04495   0.00000  Uiso   1.00
H372   H     0.45704   0.68703   0.45865   0.00000  Uiso   1.00
N373   N     0.50000   0.74999   0.12624   0.00000  Uiso   1.00
N374   N     0.50000   0.75001   0.37377   0.00000  Uiso   1.00
O375   O     0.50000   0.68454   0.28974   0.00000  Uiso   1.00
O376   O     0.50000   0.81547   0.21026   0.00000  Uiso   1.00
O377   O     0.50000   0.68453   0.21026   0.00000  Uiso   1.00
O378   O     0.50000   0.81547   0.28974   0.00000  Uiso   1.00
O379   O     0.42392   0.75000   0.28045   0.00000  Uiso   1.00
O380   O     0.57608   0.75000   0.21956   0.00000  Uiso   1.00
O381   O     0.42392   0.75000   0.20097   0.00000  Uiso   1.00
O382   O     0.57608   0.75001   0.29904   0.00000  Uiso   1.00
Zn383  Zn    0.50000   0.75001   0.30307   0.00000  Uiso   1.00
Zn384  Zn    0.50000   0.75000   0.19693   0.00000  Uiso   1.00
O385   O     0.65395   0.71436   0.19645   0.00000  Uiso   1.00
H386   H     0.34656   0.70250   0.17739   0.00000  Uiso   1.00
O387   O     0.34586   0.78681   0.30290   0.00000  Uiso   1.00
H388   H     0.65324   0.79833   0.32217   0.00000  Uiso   1.00
O389   O     0.57752   0.61501   0.31478   0.00000  Uiso   1.00
H390   H     0.58364   0.64593   0.30452   0.00000  Uiso   1.00
O391   O     0.40725   0.88738   0.26246   0.00000  Uiso   1.00
H392   H     0.40945   0.85442   0.26060   0.00000  Uiso   1.00
N393   N     0.43254   0.52270   0.17884   0.00000  Uiso   1.00
H394   H     0.39887   0.54000   0.16802   0.00000  Uiso   1.00
C395   C     0.45438   0.50403   0.13917   0.00000  Uiso   1.00
H396   H     0.42282   0.98695   0.11430   0.00000  Uiso   1.00
H397   H     0.48405   0.97881   0.15125   0.00000  Uiso   1.00
H398   H     0.47241   0.53102   0.12002   0.00000  Uiso   1.00
N399   N     0.59711   0.97370   0.23706   0.00000  Uiso   1.00
H400   H     0.62984   0.95630   0.25070   0.00000  Uiso   1.00
C401   C     0.60009   0.98891   0.18961   0.00000  Uiso   1.00
H402   H     0.63902   0.50503   0.18853   0.00000  Uiso   1.00
H403   H     0.56991   0.51411   0.17894   0.00000  Uiso   1.00
H404   H     0.59489   0.96014   0.16411   0.00000  Uiso   1.00
O405   O     0.42217   0.70302   0.11235   0.00000  Uiso   1.00
H406   H     0.43531   0.69394   0.14478   0.00000  Uiso   1.00
O407   O     0.55307   0.81762   0.38449   0.00000  Uiso   1.00
H408   H     0.56482   0.80612   0.35547   0.00000  Uiso   1.00
N409   N     0.57833   0.79669   0.13807   0.00000  Uiso   1.00
H410   H     0.61529   0.78589   0.13471   0.00000  Uiso   1.00
C411   C     0.57528   0.84491   0.13514   0.00000  Uiso   1.00
H412   H     0.60485   0.86068   0.16291   0.00000  Uiso   1.00
H413   H     0.53590   0.85611   0.14076   0.00000  Uiso   1.00
H414   H     0.58348   0.85630   0.10000   0.00000  Uiso   1.00
N415   N     0.44801   0.68157   0.36514   0.00000  Uiso   1.00
H416   H     0.46267   0.65043   0.37379   0.00000  Uiso   1.00
C417   C     0.39159   0.68178   0.36162   0.00000  Uiso   1.00
H418   H     0.37914   0.67182   0.39573   0.00000  Uiso   1.00
H419   H     0.37413   0.65764   0.33350   0.00000  Uiso   1.00
H420   H     0.37672   0.71554   0.35227   0.00000  Uiso   1.00
C421   C     0.83452   0.66408   0.24984   0.00000  Uiso   1.00
C422   C     0.83299   0.83578   0.25024   0.00000  Uiso   1.00
C423   C     0.79338   0.72870   0.04668   0.00000  Uiso   1.00
C424   C     0.85726   0.78479   0.45134   0.00000  Uiso   1.00
C425   C     0.79455   0.72752   0.09601   0.00000  Uiso   1.00
C426   C     0.85864   0.78375   0.40230   0.00000  Uiso   1.00
C427   C     0.87192   0.77285   0.10756   0.00000  Uiso   1.00
C428   C     0.80780   0.71636   0.39405   0.00000  Uiso   1.00
C429   C     0.87328   0.77210   0.05814   0.00000  Uiso   1.00
C430   C     0.80869   0.71529   0.44373   0.00000  Uiso   1.00
C431   C     0.83335   0.75029   0.02658   0.00000  Uiso   1.00
C432   C     0.83309   0.75007   0.47338   0.00000  Uiso   1.00
C433   C     0.73392   0.74894   0.23783   0.00000  Uiso   1.00
C434   C     0.93274   0.75130   0.26213   0.00000  Uiso   1.00
C435   C     0.67915   0.74202   0.23266   0.00000  Uiso   1.00
C436   C     0.98745   0.75870   0.26705   0.00000  Uiso   1.00
C437   C     0.87233   0.54737   0.28087   0.00000  Uiso   1.00
C438   C     0.79070   0.95352   0.25520   0.00000  Uiso   1.00
C439   C     0.87357   0.59364   0.28194   0.00000  Uiso   1.00
C440   C     0.78793   0.90730   0.25643   0.00000  Uiso   1.00
C441   C     0.83739   0.61624   0.24914   0.00000  Uiso   1.00
C442   C     0.83319   0.88343   0.25078   0.00000  Uiso   1.00
C443   C     0.80263   0.59275   0.21494   0.00000  Uiso   1.00
C444   C     0.87988   0.90528   0.24461   0.00000  Uiso   1.00
C445   C     0.80253   0.54635   0.21308   0.00000  Uiso   1.00
C446   C     0.88236   0.95160   0.24281   0.00000  Uiso   1.00
C447   C     0.83757   0.52384   0.24667   0.00000  Uiso   1.00
C448   C     0.83708   0.97555   0.24785   0.00000  Uiso   1.00
H449   H     0.89895   0.52957   0.30664   0.00000  Uiso   1.00
H450   H     0.75637   0.97245   0.25977   0.00000  Uiso   1.00
H451   H     0.77514   0.61059   0.18993   0.00000  Uiso   1.00
H452   H     0.91433   0.88617   0.24089   0.00000  Uiso   1.00
H453   H     0.76100   0.71204   0.02441   0.00000  Uiso   1.00
H454   H     0.87593   0.81291   0.47193   0.00000  Uiso   1.00
H455   H     0.90579   0.78862   0.04495   0.00000  Uiso   1.00
H456   H     0.79037   0.68703   0.45865   0.00000  Uiso   1.00
N457   N     0.83333   0.74999   0.12624   0.00000  Uiso   1.00
N458   N     0.83333   0.75001   0.37377   0.00000  Uiso   1.00
O459   O     0.83334   0.68454   0.28974   0.00000  Uiso   1.00
O460   O     0.83333   0.81547   0.21026   0.00000  Uiso   1.00
O461   O     0.83334   0.68453   0.21026   0.00000  Uiso   1.00
O462   O     0.83333   0.81547   0.28974   0.00000  Uiso   1.00
O463   O     0.75725   0.75000   0.28045   0.00000  Uiso   1.00
O464   O     0.90942   0.75000   0.21956   0.00000  Uiso   1.00
O465   O     0.75725   0.75000   0.20097   0.00000  Uiso   1.00
O466   O     0.90942   0.75001   0.29904   0.00000  Uiso   1.00
Zn467  Zn    0.83333   0.75001   0.30307   0.00000  Uiso   1.00
Zn468  Zn    0.83333   0.75000   0.19693   0.00000  Uiso   1.00
O469   O     0.98728   0.71436   0.19645   0.00000  Uiso   1.00
H470   H     0.67989   0.70250   0.17739   0.00000  Uiso   1.00
O471   O     0.67919   0.78681   0.30290   0.00000  Uiso   1.00
H472   H     0.98658   0.79833   0.32217   0.00000  Uiso   1.00
O473   O     0.91085   0.61501   0.31478   0.00000  Uiso   1.00
H474   H     0.91697   0.64593   0.30452   0.00000  Uiso   1.00
O475   O     0.74058   0.88738   0.26246   0.00000  Uiso   1.00
H476   H     0.74278   0.85442   0.26060   0.00000  Uiso   1.00
N477   N     0.76588   0.52270   0.17884   0.00000  Uiso   1.00
H478   H     0.73220   0.54000   0.16802   0.00000  Uiso   1.00
C479   C     0.78771   0.50403   0.13917   0.00000  Uiso   1.00
H480   H     0.75616   0.98695   0.11430   0.00000  Uiso   1.00
H481   H     0.81739   0.97881   0.15125   0.00000  Uiso   1.00
H482   H     0.80574   0.53102   0.12002   0.00000  Uiso   1.00
N483   N     0.93044   0.97370   0.23706   0.00000  Uiso   1.00
H484   H     0.96318   0.95630   0.25070   0.00000  Uiso   1.00
C485   C     0.93343   0.98891   0.18961   0.00000  Uiso   1.00
H486   H     0.97235   0.50503   0.18853   0.00000  Uiso   1.00
H487   H     0.90324   0.51411   0.17894   0.00000  Uiso   1.00
H488   H     0.92822   0.96014   0.16411   0.00000  Uiso   1.00
O489   O     0.75551   0.70302   0.11235   0.00000  Uiso   1.00
H490   H     0.76864   0.69394   0.14478   0.00000  Uiso   1.00
O491   O     0.88640   0.81762   0.38449   0.00000  Uiso   1.00
H492   H     0.89815   0.80612   0.35547   0.00000  Uiso   1.00
N493   N     0.91166   0.79669   0.13807   0.00000  Uiso   1.00
H494   H     0.94862   0.78589   0.13471   0.00000  Uiso   1.00
C495   C     0.90862   0.84491   0.13514   0.00000  Uiso   1.00
H496   H     0.93818   0.86068   0.16291   0.00000  Uiso   1.00
H497   H     0.86923   0.85611   0.14076   0.00000  Uiso   1.00
H498   H     0.91681   0.85630   0.10000   0.00000  Uiso   1.00
N499   N     0.78134   0.68157   0.36514   0.00000  Uiso   1.00
H500   H     0.79601   0.65043   0.37379   0.00000  Uiso   1.00
C501   C     0.72493   0.68178   0.36162   0.00000  Uiso   1.00
H502   H     0.71247   0.67182   0.39573   0.00000  Uiso   1.00
H503   H     0.70746   0.65764   0.33350   0.00000  Uiso   1.00
H504   H     0.71006   0.71554   0.35227   0.00000  Uiso   1.00
C505   C     0.16785   0.16408   0.74984   0.00000  Uiso   1.00
C506   C     0.16633   0.33578   0.75024   0.00000  Uiso   1.00
C507   C     0.12671   0.22870   0.54668   0.00000  Uiso   1.00
C508   C     0.19059   0.28479   0.95134   0.00000  Uiso   1.00
C509   C     0.12789   0.22752   0.59601   0.00000  Uiso   1.00
C510   C     0.19197   0.28375   0.90230   0.00000  Uiso   1.00
C511   C     0.20526   0.27285   0.60756   0.00000  Uiso   1.00
C512   C     0.14113   0.21636   0.89405   0.00000  Uiso   1.00
C513   C     0.20661   0.27210   0.55814   0.00000  Uiso   1.00
C514   C     0.14203   0.21529   0.94373   0.00000  Uiso   1.00
C515   C     0.16668   0.25029   0.52658   0.00000  Uiso   1.00
C516   C     0.16642   0.25007   0.97338   0.00000  Uiso   1.00
C517   C     0.06725   0.24894   0.73783   0.00000  Uiso   1.00
C518   C     0.26608   0.25130   0.76213   0.00000  Uiso   1.00
C519   C     0.01248   0.24202   0.73266   0.00000  Uiso   1.00
C520   C     0.32078   0.25870   0.76705   0.00000  Uiso   1.00
C521   C     0.20566   0.04737   0.78087   0.00000  Uiso   1.00
C522   C     0.12403   0.45352   0.75520   0.00000  Uiso   1.00
C523   C     0.20690   0.09364   0.78194   0.00000  Uiso   1.00
C524   C     0.12126   0.40730   0.75643   0.00000  Uiso   1.00
C525   C     0.17072   0.11624   0.74914   0.00000  Uiso   1.00
C526   C     0.16652   0.38343   0.75078   0.00000  Uiso   1.00
C527   C     0.13596   0.09275   0.71494   0.00000  Uiso   1.00
C528   C     0.21322   0.40528   0.74461   0.00000  Uiso   1.00
C529   C     0.13587   0.04635   0.71308   0.00000  Uiso   1.00
C530   C     0.21569   0.45160   0.74281   0.00000  Uiso   1.00
C531   C     0.17090   0.02384   0.74667   0.00000  Uiso   1.00
C532   C     0.17042   0.47555   0.74785   0.00000  Uiso   1.00
H533   H     0.23228   0.02957   0.80664   0.00000  Uiso   1.00
H534   H     0.08971   0.47245   0.75977   0.00000  Uiso   1.00
H535   H     0.10847   0.11059   0.68993   0.00000  Uiso   1.00
H536   H     0.24766   0.38617   0.74089   0.00000  Uiso   1.00
H537   H     0.09433   0.21204   0.52441   0.00000  Uiso   1.00
H538   H     0.20927   0.31291   0.97193   0.00000  Uiso   1.00
H539   H     0.23913   0.28862   0.54495   0.00000  Uiso   1.00
H540   H     0.12370   0.18703   0.95865   0.00000  Uiso   1.00
N541   N     0.16667   0.24999   0.62624   0.00000  Uiso   1.00
N542   N     0.16667   0.25001   0.87377   0.00000  Uiso   1.00
O543   O     0.16667   0.18454   0.78974   0.00000  Uiso   1.00
O544   O     0.16666   0.31547   0.71026   0.00000  Uiso   1.00
O545   O     0.16667   0.18453   0.71026   0.00000  Uiso   1.00
O546   O     0.16666   0.31547   0.78974   0.00000  Uiso   1.00
O547   O     0.09058   0.25000   0.78045   0.00000  Uiso   1.00
O548   O     0.24275   0.25000   0.71956   0.00000  Uiso   1.00
O549   O     0.09058   0.25000   0.70097   0.00000  Uiso   1.00
O550   O     0.24275   0.25001   0.79904   0.00000  Uiso   1.00
Zn551  Zn    0.16667   0.25001   0.80307   0.00000  Uiso   1.00
Zn552  Zn    0.16667   0.25000   0.69693   0.00000  Uiso   1.00
O553   O     0.32062   0.21436   0.69645   0.00000  Uiso   1.00
H554   H     0.01323   0.20250   0.67739   0.00000  Uiso   1.00
O555   O     0.01252   0.28681   0.80290   0.00000  Uiso   1.00
H556   H     0.31991   0.29833   0.82217   0.00000  Uiso   1.00
O557   O     0.24419   0.11501   0.81478   0.00000  Uiso   1.00
H558   H     0.25031   0.14593   0.80452   0.00000  Uiso   1.00
O559   O     0.07392   0.38738   0.76246   0.00000  Uiso   1.00
H560   H     0.07612   0.35442   0.76060   0.00000  Uiso   1.00
N561   N     0.09921   0.02270   0.67884   0.00000  Uiso   1.00
H562   H     0.06553   0.04000   0.66802   0.00000  Uiso   1.00
C563   C     0.12105   0.00403   0.63917   0.00000  Uiso   1.00
H564   H     0.08949   0.48695   0.61430   0.00000  Uiso   1.00
H565   H     0.15072   0.47881   0.65125   0.00000  Uiso   1.00
H566   H     0.13908   0.03102   0.62002   0.00000  Uiso   1.00
N567   N     0.26378   0.47370   0.73706   0.00000  Uiso   1.00
H568   H     0.29651   0.45630   0.75070   0.00000  Uiso   1.00
C569   C     0.26676   0.48891   0.68961   0.00000  Uiso   1.00
H570   H     0.30569   0.00503   0.68853   0.00000  Uiso   1.00
H571   H     0.23657   0.01411   0.67894   0.00000  Uiso   1.00
H572   H     0.26156   0.46014   0.66411   0.00000  Uiso   1.00
O573   O     0.08884   0.20302   0.61235   0.00000  Uiso   1.00
H574   H     0.10198   0.19394   0.64478   0.00000  Uiso   1.00
O575   O     0.21973   0.31762   0.88449   0.00000  Uiso   1.00
H576   H     0.23149   0.30612   0.85547   0.00000  Uiso   1.00
N577   N     0.24499   0.29669   0.63807   0.00000  Uiso   1.00
H578   H     0.28195   0.28589   0.63471   0.00000  Uiso   1.00
C579   C     0.24195   0.34491   0.63514   0.00000  Uiso   1.00
H580   H     0.27151   0.36068   0.66291   0.00000  Uiso   1.00
H581   H     0.20257   0.35611   0.64076   0.00000  Uiso   1.00
H582   H     0.25015   0.35630   0.60000   0.00000  Uiso   1.00
N583   N     0.11467   0.18157   0.86514   0.00000  Uiso   1.00
H584   H     0.12934   0.15043   0.87379   0.00000  Uiso   1.00
C585   C     0.05826   0.18178   0.86162   0.00000  Uiso   1.00
H586   H     0.04580   0.17182   0.89573   0.00000  Uiso   1.00
H587   H     0.04079   0.15764   0.83350   0.00000  Uiso   1.00
H588   H     0.04339   0.21554   0.85227   0.00000  Uiso   1.00
C589   C     0.50118   0.16408   0.74984   0.00000  Uiso   1.00
C590   C     0.49966   0.33578   0.75024   0.00000  Uiso   1.00
C591   C     0.46005   0.22870   0.54668   0.00000  Uiso   1.00
C592   C     0.52393   0.28479   0.95134   0.00000  Uiso   1.00
C593   C     0.46122   0.22752   0.59601   0.00000  Uiso   1.00
C594   C     0.52531   0.28375   0.90230   0.00000  Uiso   1.00
C595   C     0.53859   0.27285   0.60756   0.00000  Uiso   1.00
C596   C     0.47446   0.21636   0.89405   0.00000  Uiso   1.00
C597   C     0.53995   0.27210   0.55814   0.00000  Uiso   1.00
C598   C     0.47536   0.21529   0.94373   0.00000  Uiso   1.00
C599   C     0.50002   0.25029   0.52658   0.00000  Uiso   1.00
C600   C     0.49976   0.25007   0.97338   0.00000  Uiso   1.00
C601   C     0.40059   0.24894   0.73783   0.00000  Uiso   1.00
C602   C     0.59941   0.25130   0.76213   0.00000  Uiso   1.00
C603   C     0.34582   0.24202   0.73266   0.00000  Uiso   1.00
C604   C     0.65412   0.25870   0.76705   0.00000  Uiso   1.00
C605   C     0.53899   0.04737   0.78087   0.00000  Uiso   1.00
C606   C     0.45736   0.45352   0.75520   0.00000  Uiso   1.00
C607   C     0.54023   0.09364   0.78194   0.00000  Uiso   1.00
C608   C     0.45459   0.40730   0.75643   0.00000  Uiso   1.00
C609   C     0.50406   0.11624   0.74914   0.00000  Uiso   1.00
C610   C     0.49986   0.38343   0.75078   0.00000  Uiso   1.00
C611   C     0.46929   0.09275   0.71494   0.00000  Uiso   1.00
C612   C     0.54655   0.40528   0.74461   0.00000  Uiso   1.00
C613   C     0.46920   0.04635   0.71308   0.00000  Uiso   1.00
C614   C     0.54902   0.45160   0.74281   0.00000  Uiso   1.00
C615   C     0.50424   0.02384   0.74667   0.00000  Uiso   1.00
C616   C     0.50375   0.47555   0.74785   0.00000  Uiso   1.00
H617   H     0.56561   0.02957   0.80664   0.00000  Uiso   1.00
H618   H     0.42304   0.47245   0.75977   0.00000  Uiso   1.00
H619   H     0.44181   0.11059   0.68993   0.00000  Uiso   1.00
H620   H     0.58099   0.38617   0.74089   0.00000  Uiso   1.00
H621   H     0.42766   0.21204   0.52441   0.00000  Uiso   1.00
H622   H     0.54260   0.31291   0.97193   0.00000  Uiso   1.00
H623   H     0.57246   0.28862   0.54495   0.00000  Uiso   1.00
H624   H     0.45704   0.18703   0.95865   0.00000  Uiso   1.00
N625   N     0.50000   0.24999   0.62624   0.00000  Uiso   1.00
N626   N     0.50000   0.25001   0.87377   0.00000  Uiso   1.00
O627   O     0.50000   0.18454   0.78974   0.00000  Uiso   1.00
O628   O     0.50000   0.31547   0.71026   0.00000  Uiso   1.00
O629   O     0.50000   0.18453   0.71026   0.00000  Uiso   1.00
O630   O     0.50000   0.31547   0.78974   0.00000  Uiso   1.00
O631   O     0.42392   0.25000   0.78045   0.00000  Uiso   1.00
O632   O     0.57608   0.25000   0.71956   0.00000  Uiso   1.00
O633   O     0.42392   0.25000   0.70097   0.00000  Uiso   1.00
O634   O     0.57608   0.25001   0.79904   0.00000  Uiso   1.00
Zn635  Zn    0.50000   0.25001   0.80307   0.00000  Uiso   1.00
Zn636  Zn    0.50000   0.25000   0.69693   0.00000  Uiso   1.00
O637   O     0.65395   0.21436   0.69645   0.00000  Uiso   1.00
H638   H     0.34656   0.20250   0.67739   0.00000  Uiso   1.00
O639   O     0.34586   0.28681   0.80290   0.00000  Uiso   1.00
H640   H     0.65324   0.29833   0.82217   0.00000  Uiso   1.00
O641   O     0.57752   0.11501   0.81478   0.00000  Uiso   1.00
H642   H     0.58364   0.14593   0.80452   0.00000  Uiso   1.00
O643   O     0.40725   0.38738   0.76246   0.00000  Uiso   1.00
H644   H     0.40945   0.35442   0.76060   0.00000  Uiso   1.00
N645   N     0.43254   0.02270   0.67884   0.00000  Uiso   1.00
H646   H     0.39887   0.04000   0.66802   0.00000  Uiso   1.00
C647   C     0.45438   0.00403   0.63917   0.00000  Uiso   1.00
H648   H     0.42282   0.48695   0.61430   0.00000  Uiso   1.00
H649   H     0.48405   0.47881   0.65125   0.00000  Uiso   1.00
H650   H     0.47241   0.03102   0.62002   0.00000  Uiso   1.00
N651   N     0.59711   0.47370   0.73706   0.00000  Uiso   1.00
H652   H     0.62984   0.45630   0.75070   0.00000  Uiso   1.00
C653   C     0.60009   0.48891   0.68961   0.00000  Uiso   1.00
H654   H     0.63902   0.00503   0.68853   0.00000  Uiso   1.00
H655   H     0.56991   0.01411   0.67894   0.00000  Uiso   1.00
H656   H     0.59489   0.46014   0.66411   0.00000  Uiso   1.00
O657   O     0.42217   0.20302   0.61235   0.00000  Uiso   1.00
H658   H     0.43531   0.19394   0.64478   0.00000  Uiso   1.00
O659   O     0.55307   0.31762   0.88449   0.00000  Uiso   1.00
H660   H     0.56482   0.30612   0.85547   0.00000  Uiso   1.00
N661   N     0.57833   0.29669   0.63807   0.00000  Uiso   1.00
H662   H     0.61529   0.28589   0.63471   0.00000  Uiso   1.00
C663   C     0.57528   0.34491   0.63514   0.00000  Uiso   1.00
H664   H     0.60485   0.36068   0.66291   0.00000  Uiso   1.00
H665   H     0.53590   0.35611   0.64076   0.00000  Uiso   1.00
H666   H     0.58348   0.35630   0.60000   0.00000  Uiso   1.00
N667   N     0.44801   0.18157   0.86514   0.00000  Uiso   1.00
H668   H     0.46267   0.15043   0.87379   0.00000  Uiso   1.00
C669   C     0.39159   0.18178   0.86162   0.00000  Uiso   1.00
H670   H     0.37914   0.17182   0.89573   0.00000  Uiso   1.00
H671   H     0.37413   0.15764   0.83350   0.00000  Uiso   1.00
H672   H     0.37672   0.21554   0.85227   0.00000  Uiso   1.00
C673   C     0.83452   0.16408   0.74984   0.00000  Uiso   1.00
C674   C     0.83299   0.33578   0.75024   0.00000  Uiso   1.00
C675   C     0.79338   0.22870   0.54668   0.00000  Uiso   1.00
C676   C     0.85726   0.28479   0.95134   0.00000  Uiso   1.00
C677   C     0.79455   0.22752   0.59601   0.00000  Uiso   1.00
C678   C     0.85864   0.28375   0.90230   0.00000  Uiso   1.00
C679   C     0.87192   0.27285   0.60756   0.00000  Uiso   1.00
C680   C     0.80780   0.21636   0.89405   0.00000  Uiso   1.00
C681   C     0.87328   0.27210   0.55814   0.00000  Uiso   1.00
C682   C     0.80869   0.21529   0.94373   0.00000  Uiso   1.00
C683   C     0.83335   0.25029   0.52658   0.00000  Uiso   1.00
C684   C     0.83309   0.25007   0.97338   0.00000  Uiso   1.00
C685   C     0.73392   0.24894   0.73783   0.00000  Uiso   1.00
C686   C     0.93274   0.25130   0.76213   0.00000  Uiso   1.00
C687   C     0.67915   0.24202   0.73266   0.00000  Uiso   1.00
C688   C     0.98745   0.25870   0.76705   0.00000  Uiso   1.00
C689   C     0.87233   0.04737   0.78087   0.00000  Uiso   1.00
C690   C     0.79070   0.45352   0.75520   0.00000  Uiso   1.00
C691   C     0.87357   0.09364   0.78194   0.00000  Uiso   1.00
C692   C     0.78793   0.40730   0.75643   0.00000  Uiso   1.00
C693   C     0.83739   0.11624   0.74914   0.00000  Uiso   1.00
C694   C     0.83319   0.38343   0.75078   0.00000  Uiso   1.00
C695   C     0.80263   0.09275   0.71494   0.00000  Uiso   1.00
C696   C     0.87988   0.40528   0.74461   0.00000  Uiso   1.00
C697   C     0.80253   0.04635   0.71308   0.00000  Uiso   1.00
C698   C     0.88236   0.45160   0.74281   0.00000  Uiso   1.00
C699   C     0.83757   0.02384   0.74667   0.00000  Uiso   1.00
C700   C     0.83708   0.47555   0.74785   0.00000  Uiso   1.00
H701   H     0.89895   0.02957   0.80664   0.00000  Uiso   1.00
H702   H     0.75637   0.47245   0.75977   0.00000  Uiso   1.00
H703   H     0.77514   0.11059   0.68993   0.00000  Uiso   1.00
H704   H     0.91433   0.38617   0.74089   0.00000  Uiso   1.00
H705   H     0.76100   0.21204   0.52441   0.00000  Uiso   1.00
H706   H     0.87593   0.31291   0.97193   0.00000  Uiso   1.00
H707   H     0.90579   0.28862   0.54495   0.00000  Uiso   1.00
H708   H     0.79037   0.18703   0.95865   0.00000  Uiso   1.00
N709   N     0.83333   0.24999   0.62624   0.00000  Uiso   1.00
N710   N     0.83333   0.25001   0.87377   0.00000  Uiso   1.00
O711   O     0.83334   0.18454   0.78974   0.00000  Uiso   1.00
O712   O     0.83333   0.31547   0.71026   0.00000  Uiso   1.00
O713   O     0.83334   0.18453   0.71026   0.00000  Uiso   1.00
O714   O     0.83333   0.31547   0.78974   0.00000  Uiso   1.00
O715   O     0.75725   0.25000   0.78045   0.00000  Uiso   1.00
O716   O     0.90942   0.25000   0.71956   0.00000  Uiso   1.00
O717   O     0.75725   0.25000   0.70097   0.00000  Uiso   1.00
O718   O     0.90942   0.25001   0.79904   0.00000  Uiso   1.00
Zn719  Zn    0.83333   0.25001   0.80307   0.00000  Uiso   1.00
Zn720  Zn    0.83333   0.25000   0.69693   0.00000  Uiso   1.00
O721   O     0.98728   0.21436   0.69645   0.00000  Uiso   1.00
H722   H     0.67989   0.20250   0.67739   0.00000  Uiso   1.00
O723   O     0.67919   0.28681   0.80290   0.00000  Uiso   1.00
H724   H     0.98658   0.29833   0.82217   0.00000  Uiso   1.00
O725   O     0.91085   0.11501   0.81478   0.00000  Uiso   1.00
H726   H     0.91697   0.14593   0.80452   0.00000  Uiso   1.00
O727   O     0.74058   0.38738   0.76246   0.00000  Uiso   1.00
H728   H     0.74278   0.35442   0.76060   0.00000  Uiso   1.00
N729   N     0.76588   0.02270   0.67884   0.00000  Uiso   1.00
H730   H     0.73220   0.04000   0.66802   0.00000  Uiso   1.00
C731   C     0.78771   0.00403   0.63917   0.00000  Uiso   1.00
H732   H     0.75616   0.48695   0.61430   0.00000  Uiso   1.00
H733   H     0.81739   0.47881   0.65125   0.00000  Uiso   1.00
H734   H     0.80574   0.03102   0.62002   0.00000  Uiso   1.00
N735   N     0.93044   0.47370   0.73706   0.00000  Uiso   1.00
H736   H     0.96318   0.45630   0.75070   0.00000  Uiso   1.00
C737   C     0.93343   0.48891   0.68961   0.00000  Uiso   1.00
H738   H     0.97235   0.00503   0.68853   0.00000  Uiso   1.00
H739   H     0.90324   0.01411   0.67894   0.00000  Uiso   1.00
H740   H     0.92822   0.46014   0.66411   0.00000  Uiso   1.00
O741   O     0.75551   0.20302   0.61235   0.00000  Uiso   1.00
H742   H     0.76864   0.19394   0.64478   0.00000  Uiso   1.00
O743   O     0.88640   0.31762   0.88449   0.00000  Uiso   1.00
H744   H     0.89815   0.30612   0.85547   0.00000  Uiso   1.00
N745   N     0.91166   0.29669   0.63807   0.00000  Uiso   1.00
H746   H     0.94862   0.28589   0.63471   0.00000  Uiso   1.00
C747   C     0.90862   0.34491   0.63514   0.00000  Uiso   1.00
H748   H     0.93818   0.36068   0.66291   0.00000  Uiso   1.00
H749   H     0.86923   0.35611   0.64076   0.00000  Uiso   1.00
H750   H     0.91681   0.35630   0.60000   0.00000  Uiso   1.00
N751   N     0.78134   0.18157   0.86514   0.00000  Uiso   1.00
H752   H     0.79601   0.15043   0.87379   0.00000  Uiso   1.00
C753   C     0.72493   0.18178   0.86162   0.00000  Uiso   1.00
H754   H     0.71247   0.17182   0.89573   0.00000  Uiso   1.00
H755   H     0.70746   0.15764   0.83350   0.00000  Uiso   1.00
H756   H     0.71006   0.21554   0.85227   0.00000  Uiso   1.00
C757   C     0.16785   0.66408   0.74984   0.00000  Uiso   1.00
C758   C     0.16633   0.83578   0.75024   0.00000  Uiso   1.00
C759   C     0.12671   0.72870   0.54668   0.00000  Uiso   1.00
C760   C     0.19059   0.78479   0.95134   0.00000  Uiso   1.00
C761   C     0.12789   0.72752   0.59601   0.00000  Uiso   1.00
C762   C     0.19197   0.78375   0.90230   0.00000  Uiso   1.00
C763   C     0.20526   0.77285   0.60756   0.00000  Uiso   1.00
C764   C     0.14113   0.71636   0.89405   0.00000  Uiso   1.00
C765   C     0.20661   0.77210   0.55814   0.00000  Uiso   1.00
C766   C     0.14203   0.71529   0.94373   0.00000  Uiso   1.00
C767   C     0.16668   0.75029   0.52658   0.00000  Uiso   1.00
C768   C     0.16642   0.75007   0.97338   0.00000  Uiso   1.00
C769   C     0.06725   0.74894   0.73783   0.00000  Uiso   1.00
C770   C     0.26608   0.75130   0.76213   0.00000  Uiso   1.00
C771   C     0.01248   0.74202   0.73266   0.00000  Uiso   1.00
C772   C     0.32078   0.75870   0.76705   0.00000  Uiso   1.00
C773   C     0.20566   0.54737   0.78087   0.00000  Uiso   1.00
C774   C     0.12403   0.95352   0.75520   0.00000  Uiso   1.00
C775   C     0.20690   0.59364   0.78194   0.00000  Uiso   1.00
C776   C     0.12126   0.90730   0.75643   0.00000  Uiso   1.00
C777   C     0.17072   0.61624   0.74914   0.00000  Uiso   1.00
C778   C     0.16652   0.88343   0.75078   0.00000  Uiso   1.00
C779   C     0.13596   0.59275   0.71494   0.00000  Uiso   1.00
C780   C     0.21322   0.90528   0.74461   0.00000  Uiso   1.00
C781   C     0.13587   0.54635   0.71308   0.00000  Uiso   1.00
C782   C     0.21569   0.95160   0.74281   0.00000  Uiso   1.00
C783   C     0.17090   0.52384   0.74667   0.00000  Uiso   1.00
C784   C     0.17042   0.97555   0.74785   0.00000  Uiso   1.00
H785   H     0.23228   0.52957   0.80664   0.00000  Uiso   1.00
H786   H     0.08971   0.97245   0.75977   0.00000  Uiso   1.00
H787   H     0.10847   0.61059   0.68993   0.00000  Uiso   1.00
H788   H     0.24766   0.88617   0.74089   0.00000  Uiso   1.00
H789   H     0.09433   0.71204   0.52441   0.00000  Uiso   1.00
H790   H     0.20927   0.81291   0.97193   0.00000  Uiso   1.00
H791   H     0.23913   0.78862   0.54495   0.00000  Uiso   1.00
H792   H     0.12370   0.68703   0.95865   0.00000  Uiso   1.00
N793   N     0.16667   0.74999   0.62624   0.00000  Uiso   1.00
N794   N     0.16667   0.75001   0.87377   0.00000  Uiso   1.00
O795   O     0.16667   0.68454   0.78974   0.00000  Uiso   1.00
O796   O     0.16666   0.81547   0.71026   0.00000  Uiso   1.00
O797   O     0.16667   0.68453   0.71026   0.00000  Uiso   1.00
O798   O     0.16666   0.81547   0.78974   0.00000  Uiso   1.00
O799   O     0.09058   0.75000   0.78045   0.00000  Uiso   1.00
O800   O     0.24275   0.75000   0.71956   0.00000  Uiso   1.00
O801   O     0.09058   0.75000   0.70097   0.00000  Uiso   1.00
O802   O     0.24275   0.75001   0.79904   0.00000  Uiso   1.00
Zn803  Zn    0.16667   0.75001   0.80307   0.00000  Uiso   1.00
Zn804  Zn    0.16667   0.75000   0.69693   0.00000  Uiso   1.00
O805   O     0.32062   0.71436   0.69645   0.00000  Uiso   1.00
H806   H     0.01323   0.70250   0.67739   0.00000  Uiso   1.00
O807   O     0.01252   0.78681   0.80290   0.00000  Uiso   1.00
H808   H     0.31991   0.79833   0.82217   0.00000  Uiso   1.00
O809   O     0.24419   0.61501   0.81478   0.00000  Uiso   1.00
H810   H     0.25031   0.64593   0.80452   0.00000  Uiso   1.00
O811   O     0.07392   0.88738   0.76246   0.00000  Uiso   1.00
H812   H     0.07612   0.85442   0.76060   0.00000  Uiso   1.00
N813   N     0.09921   0.52270   0.67884   0.00000  Uiso   1.00
H814   H     0.06553   0.54000   0.66802   0.00000  Uiso   1.00
C815   C     0.12105   0.50403   0.63917   0.00000  Uiso   1.00
H816   H     0.08949   0.98695   0.61430   0.00000  Uiso   1.00
H817   H     0.15072   0.97881   0.65125   0.00000  Uiso   1.00
H818   H     0.13908   0.53102   0.62002   0.00000  Uiso   1.00
N819   N     0.26378   0.97370   0.73706   0.00000  Uiso   1.00
H820   H     0.29651   0.95630   0.75070   0.00000  Uiso   1.00
C821   C     0.26676   0.98891   0.68961   0.00000  Uiso   1.00
H822   H     0.30569   0.50503   0.68853   0.00000  Uiso   1.00
H823   H     0.23657   0.51411   0.67894   0.00000  Uiso   1.00
H824   H     0.26156   0.96014   0.66411   0.00000  Uiso   1.00
O825   O     0.08884   0.70302   0.61235   0.00000  Uiso   1.00
H826   H     0.10198   0.69394   0.64478   0.00000  Uiso   1.00
O827   O     0.21973   0.81762   0.88449   0.00000  Uiso   1.00
H828   H     0.23149   0.80612   0.85547   0.00000  Uiso   1.00
N829   N     0.24499   0.79669   0.63807   0.00000  Uiso   1.00
H830   H     0.28195   0.78589   0.63471   0.00000  Uiso   1.00
C831   C     0.24195   0.84491   0.63514   0.00000  Uiso   1.00
H832   H     0.27151   0.86068   0.66291   0.00000  Uiso   1.00
H833   H     0.20257   0.85611   0.64076   0.00000  Uiso   1.00
H834   H     0.25015   0.85630   0.60000   0.00000  Uiso   1.00
N835   N     0.11467   0.68157   0.86514   0.00000  Uiso   1.00
H836   H     0.12934   0.65043   0.87379   0.00000  Uiso   1.00
C837   C     0.05826   0.68178   0.86162   0.00000  Uiso   1.00
H838   H     0.04580   0.67182   0.89573   0.00000  Uiso   1.00
H839   H     0.04079   0.65764   0.83350   0.00000  Uiso   1.00
H840   H     0.04339   0.71554   0.85227   0.00000  Uiso   1.00
C841   C     0.50118   0.66408   0.74984   0.00000  Uiso   1.00
C842   C     0.49966   0.83578   0.75024   0.00000  Uiso   1.00
C843   C     0.46005   0.72870   0.54668   0.00000  Uiso   1.00
C844   C     0.52393   0.78479   0.95134   0.00000  Uiso   1.00
C845   C     0.46122   0.72752   0.59601   0.00000  Uiso   1.00
C846   C     0.52531   0.78375   0.90230   0.00000  Uiso   1.00
C847   C     0.53859   0.77285   0.60756   0.00000  Uiso   1.00
C848   C     0.47446   0.71636   0.89405   0.00000  Uiso   1.00
C849   C     0.53995   0.77210   0.55814   0.00000  Uiso   1.00
C850   C     0.47536   0.71529   0.94373   0.00000  Uiso   1.00
C851   C     0.50002   0.75029   0.52658   0.00000  Uiso   1.00
C852   C     0.49976   0.75007   0.97338   0.00000  Uiso   1.00
C853   C     0.40059   0.74894   0.73783   0.00000  Uiso   1.00
C854   C     0.59941   0.75130   0.76213   0.00000  Uiso   1.00
C855   C     0.34582   0.74202   0.73266   0.00000  Uiso   1.00
C856   C     0.65412   0.75870   0.76705   0.00000  Uiso   1.00
C857   C     0.53899   0.54737   0.78087   0.00000  Uiso   1.00
C858   C     0.45736   0.95352   0.75520   0.00000  Uiso   1.00
C859   C     0.54023   0.59364   0.78194   0.00000  Uiso   1.00
C860   C     0.45459   0.90730   0.75643   0.00000  Uiso   1.00
C861   C     0.50406   0.61624   0.74914   0.00000  Uiso   1.00
C862   C     0.49986   0.88343   0.75078   0.00000  Uiso   1.00
C863   C     0.46929   0.59275   0.71494   0.00000  Uiso   1.00
C864   C     0.54655   0.90528   0.74461   0.00000  Uiso   1.00
C865   C     0.46920   0.54635   0.71308   0.00000  Uiso   1.00
C866   C     0.54902   0.95160   0.74281   0.00000  Uiso   1.00
C867   C     0.50424   0.52384   0.74667   0.00000  Uiso   1.00
C868   C     0.50375   0.97555   0.74785   0.00000  Uiso   1.00
H869   H     0.56561   0.52957   0.80664   0.00000  Uiso   1.00
H870   H     0.42304   0.97245   0.75977   0.00000  Uiso   1.00
H871   H     0.44181   0.61059   0.68993   0.00000  Uiso   1.00
H872   H     0.58099   0.88617   0.74089   0.00000  Uiso   1.00
H873   H     0.42766   0.71204   0.52441   0.00000  Uiso   1.00
H874   H     0.54260   0.81291   0.97193   0.00000  Uiso   1.00
H875   H     0.57246   0.78862   0.54495   0.00000  Uiso   1.00
H876   H     0.45704   0.68703   0.95865   0.00000  Uiso   1.00
N877   N     0.50000   0.74999   0.62624   0.00000  Uiso   1.00
N878   N     0.50000   0.75001   0.87377   0.00000  Uiso   1.00
O879   O     0.50000   0.68454   0.78974   0.00000  Uiso   1.00
O880   O     0.50000   0.81547   0.71026   0.00000  Uiso   1.00
O881   O     0.50000   0.68453   0.71026   0.00000  Uiso   1.00
O882   O     0.50000   0.81547   0.78974   0.00000  Uiso   1.00
O883   O     0.42392   0.75000   0.78045   0.00000  Uiso   1.00
O884   O     0.57608   0.75000   0.71956   0.00000  Uiso   1.00
O885   O     0.42392   0.75000   0.70097   0.00000  Uiso   1.00
O886   O     0.57608   0.75001   0.79904   0.00000  Uiso   1.00
Zn887  Zn    0.50000   0.75001   0.80307   0.00000  Uiso   1.00
Zn888  Zn    0.50000   0.75000   0.69693   0.00000  Uiso   1.00
O889   O     0.65395   0.71436   0.69645   0.00000  Uiso   1.00
H890   H     0.34656   0.70250   0.67739   0.00000  Uiso   1.00
O891   O     0.34586   0.78681   0.80290   0.00000  Uiso   1.00
H892   H     0.65324   0.79833   0.82217   0.00000  Uiso   1.00
O893   O     0.57752   0.61501   0.81478   0.00000  Uiso   1.00
H894   H     0.58364   0.64593   0.80452   0.00000  Uiso   1.00
O895   O     0.40725   0.88738   0.76246   0.00000  Uiso   1.00
H896   H     0.40945   0.85442   0.76060   0.00000  Uiso   1.00
N897   N     0.43254   0.52270   0.67884   0.00000  Uiso   1.00
H898   H     0.39887   0.54000   0.66802   0.00000  Uiso   1.00
C899   C     0.45438   0.50403   0.63917   0.00000  Uiso   1.00
H900   H     0.42282   0.98695   0.61430   0.00000  Uiso   1.00
H901   H     0.48405   0.97881   0.65125   0.00000  Uiso   1.00
H902   H     0.47241   0.53102   0.62002   0.00000  Uiso   1.00
N903   N     0.59711   0.97370   0.73706   0.00000  Uiso   1.00
H904   H     0.62984   0.95630   0.75070   0.00000  Uiso   1.00
C905   C     0.60009   0.98891   0.68961   0.00000  Uiso   1.00
H906   H     0.63902   0.50503   0.68853   0.00000  Uiso   1.00
H907   H     0.56991   0.51411   0.67894   0.00000  Uiso   1.00
H908   H     0.59489   0.96014   0.66411   0.00000  Uiso   1.00
O909   O     0.42217   0.70302   0.61235   0.00000  Uiso   1.00
H910   H     0.43531   0.69394   0.64478   0.00000  Uiso   1.00
O911   O     0.55307   0.81762   0.88449   0.00000  Uiso   1.00
H912   H     0.56482   0.80612   0.85547   0.00000  Uiso   1.00
N913   N     0.57833   0.79669   0.63807   0.00000  Uiso   1.00
H914   H     0.61529   0.78589   0.63471   0.00000  Uiso   1.00
C915   C     0.57528   0.84491   0.63514   0.00000  Uiso   1.00
H916   H     0.60485   0.86068   0.66291   0.00000  Uiso   1.00
H917   H     0.53590   0.85611   0.64076   0.00000  Uiso   1.00
H918   H     0.58348   0.85630   0.60000   0.00000  Uiso   1.00
N919   N     0.44801   0.68157   0.86514   0.00000  Uiso   1.00
H920   H     0.46267   0.65043   0.87379   0.00000  Uiso   1.00
C921   C     0.39159   0.68178   0.86162   0.00000  Uiso   1.00
H922   H     0.37914   0.67182   0.89573   0.00000  Uiso   1.00
H923   H     0.37413   0.65764   0.83350   0.00000  Uiso   1.00
H924   H     0.37672   0.71554   0.85227   0.00000  Uiso   1.00
C925   C     0.83452   0.66408   0.74984   0.00000  Uiso   1.00
C926   C     0.83299   0.83578   0.75024   0.00000  Uiso   1.00
C927   C     0.79338   0.72870   0.54668   0.00000  Uiso   1.00
C928   C     0.85726   0.78479   0.95134   0.00000  Uiso   1.00
C929   C     0.79455   0.72752   0.59601   0.00000  Uiso   1.00
C930   C     0.85864   0.78375   0.90230   0.00000  Uiso   1.00
C931   C     0.87192   0.77285   0.60756   0.00000  Uiso   1.00
C932   C     0.80780   0.71636   0.89405   0.00000  Uiso   1.00
C933   C     0.87328   0.77210   0.55814   0.00000  Uiso   1.00
C934   C     0.80869   0.71529   0.94373   0.00000  Uiso   1.00
C935   C     0.83335   0.75029   0.52658   0.00000  Uiso   1.00
C936   C     0.83309   0.75007   0.97338   0.00000  Uiso   1.00
C937   C     0.73392   0.74894   0.73783   0.00000  Uiso   1.00
C938   C     0.93274   0.75130   0.76213   0.00000  Uiso   1.00
C939   C     0.67915   0.74202   0.73266   0.00000  Uiso   1.00
C940   C     0.98745   0.75870   0.76705   0.00000  Uiso   1.00
C941   C     0.87233   0.54737   0.78087   0.00000  Uiso   1.00
C942   C     0.79070   0.95352   0.75520   0.00000  Uiso   1.00
C943   C     0.87357   0.59364   0.78194   0.00000  Uiso   1.00
C944   C     0.78793   0.90730   0.75643   0.00000  Uiso   1.00
C945   C     0.83739   0.61624   0.74914   0.00000  Uiso   1.00
C946   C     0.83319   0.88343   0.75078   0.00000  Uiso   1.00
C947   C     0.80263   0.59275   0.71494   0.00000  Uiso   1.00
C948   C     0.87988   0.90528   0.74461   0.00000  Uiso   1.00
C949   C     0.80253   0.54635   0.71308   0.00000  Uiso   1.00
C950   C     0.88236   0.95160   0.74281   0.00000  Uiso   1.00
C951   C     0.83757   0.52384   0.74667   0.00000  Uiso   1.00
C952   C     0.83708   0.97555   0.74785   0.00000  Uiso   1.00
H953   H     0.89895   0.52957   0.80664   0.00000  Uiso   1.00
H954   H     0.75637   0.97245   0.75977   0.00000  Uiso   1.00
H955   H     0.77514   0.61059   0.68993   0.00000  Uiso   1.00
H956   H     0.91433   0.88617   0.74089   0.00000  Uiso   1.00
H957   H     0.76100   0.71204   0.52441   0.00000  Uiso   1.00
H958   H     0.87593   0.81291   0.97193   0.00000  Uiso   1.00
H959   H     0.90579   0.78862   0.54495   0.00000  Uiso   1.00
H960   H     0.79037   0.68703   0.95865   0.00000  Uiso   1.00
N961   N     0.83333   0.74999   0.62624   0.00000  Uiso   1.00
N962   N     0.83333   0.75001   0.87377   0.00000  Uiso   1.00
O963   O     0.83334   0.68454   0.78974   0.00000  Uiso   1.00
O964   O     0.83333   0.81547   0.71026   0.00000  Uiso   1.00
O965   O     0.83334   0.68453   0.71026   0.00000  Uiso   1.00
O966   O     0.83333   0.81547   0.78974   0.00000  Uiso   1.00
O967   O     0.75725   0.75000   0.78045   0.00000  Uiso   1.00
O968   O     0.90942   0.75000   0.71956   0.00000  Uiso   1.00
O969   O     0.75725   0.75000   0.70097   0.00000  Uiso   1.00
O970   O     0.90942   0.75001   0.79904   0.00000  Uiso   1.00
Zn971  Zn    0.83333   0.75001   0.80307   0.00000  Uiso   1.00
Zn972  Zn    0.83333   0.75000   0.69693   0.00000  Uiso   1.00
O973   O     0.98728   0.71436   0.69645   0.00000  Uiso   1.00
H974   H     0.67989   0.70250   0.67739   0.00000  Uiso   1.00
O975   O     0.67919   0.78681   0.80290   0.00000  Uiso   1.00
H976   H     0.98658   0.79833   0.82217   0.00000  Uiso   1.00
O977   O     0.91085   0.61501   0.81478   0.00000  Uiso   1.00
H978   H     0.91697   0.64593   0.80452   0.00000  Uiso   1.00
O979   O     0.74058   0.88738   0.76246   0.00000  Uiso   1.00
H980   H     0.74278   0.85442   0.76060   0.00000  Uiso   1.00
N981   N     0.76588   0.52270   0.67884   0.00000  Uiso   1.00
H982   H     0.73220   0.54000   0.66802   0.00000  Uiso   1.00
C983   C     0.78771   0.50403   0.63917   0.00000  Uiso   1.00
H984   H     0.75616   0.98695   0.61430   0.00000  Uiso   1.00
H985   H     0.81739   0.97881   0.65125   0.00000  Uiso   1.00
H986   H     0.80574   0.53102   0.62002   0.00000  Uiso   1.00
N987   N     0.93044   0.97370   0.73706   0.00000  Uiso   1.00
H988   H     0.96318   0.95630   0.75070   0.00000  Uiso   1.00
C989   C     0.93343   0.98891   0.68961   0.00000  Uiso   1.00
H990   H     0.97235   0.50503   0.68853   0.00000  Uiso   1.00
H991   H     0.90324   0.51411   0.67894   0.00000  Uiso   1.00
H992   H     0.92822   0.96014   0.66411   0.00000  Uiso   1.00
O993   O     0.75551   0.70302   0.61235   0.00000  Uiso   1.00
H994   H     0.76864   0.69394   0.64478   0.00000  Uiso   1.00
O995   O     0.88640   0.81762   0.88449   0.00000  Uiso   1.00
H996   H     0.89815   0.80612   0.85547   0.00000  Uiso   1.00
N997   N     0.91166   0.79669   0.63807   0.00000  Uiso   1.00
H998   H     0.94862   0.78589   0.63471   0.00000  Uiso   1.00
C999   C     0.90862   0.84491   0.63514   0.00000  Uiso   1.00
H1000  H     0.93818   0.86068   0.66291   0.00000  Uiso   1.00
H1001  H     0.86923   0.85611   0.64076   0.00000  Uiso   1.00
H1002  H     0.91681   0.85630   0.60000   0.00000  Uiso   1.00
N1003  N     0.78134   0.68157   0.86514   0.00000  Uiso   1.00
H1004  H     0.79601   0.65043   0.87379   0.00000  Uiso   1.00
C1005  C     0.72493   0.68178   0.86162   0.00000  Uiso   1.00
H1006  H     0.71247   0.67182   0.89573   0.00000  Uiso   1.00
H1007  H     0.70746   0.65764   0.83350   0.00000  Uiso   1.00
H1008  H     0.71006   0.71554   0.85227   0.00000  Uiso   1.00
loop_
_geom_bond_atom_site_label_1
_geom_bond_atom_site_label_2
_geom_bond_distance
_geom_bond_site_symmetry_2
_ccdc_geom_bond_type
C1     C21     1.433   .     S
C1     O41     1.288   .     A
C1     O39     1.289   .     A
C2     C22     1.423   .     S
C2     O42     1.287   .     A
C2     O40     1.286   .     A
C3     H33     1.082   .     S
C3     C5      1.405   .     A
C3     C11     1.402   .     A
C4     C12     1.402   .     A
C4     H34     1.082   .     S
C4     C6      1.405   .     A
C5     N37     1.379   .     A
C5     O69     1.373   .     S
C6     N38     1.379   .     A
C6     O71     1.373   .     S
C7     N73     1.418   .     S
C7     N37     1.371   .     A
C7     C9      1.416   .     A
C8     N79     1.418   .     S
C8     N38     1.371   .     A
C8     C10     1.416   .     A
C9     C11     1.409   .     A
C9     H35     1.082   .     S
C10    C12     1.409   .     A
C10    H36     1.082   .     S
C11    C516    1.517   1_554 S
C12    C515    1.517   .     S
C13    C15     1.412   .     S
C13    O43     1.276   .     A
C13    O45     1.287   .     A
C14    O46     1.288   .     A
C14    C16     1.412   .     S
C14    O44     1.275   .     A
C15    C184    1.347   1_455 S
C15    O217    1.390   1_455 S
C16    C99     1.347   .     S
C16    O135    1.390   .     S
C17    H29     1.084   .     S
C17    C27     1.397   .     A
C17    C19     1.382   .     A
C18    H30     1.085   .     S
C18    C20     1.382   .     A
C18    C28     1.399   .     A
C19    C21     1.412   .     A
C19    O53     1.382   .     S
C20    O55     1.383   .     S
C20    C22     1.410   .     A
C21    C23     1.397   .     A
C22    C24     1.394   .     A
C23    C25     1.386   .     A
C23    H31     1.085   .     S
C24    C26     1.386   .     A
C24    H32     1.085   .     S
C25    N57     1.426   .     S
C25    C27     1.408   .     A
C26    N63     1.426   .     S
C26    C28     1.408   .     A
C27    C280    1.443   1_545 S
C28    C279    1.443   .     S
N37    Zn48    2.018   .     S
N38    Zn47    2.018   .     S
O39    Zn47    1.987   .     S
O40    Zn48    1.987   .     S
O41    Zn48    1.997   .     S
O42    Zn47    1.997   .     S
O43    Zn47    1.978   .     S
O44    Zn48    1.978   .     S
O45    Zn48    1.986   .     S
O46    Zn47    1.986   .     S
O49    C99     1.390   .     S
O49    H134    0.991   .     S
H50    O217    0.991   1_455 S
O51    C184    1.390   1_455 S
O51    H220    0.991   1_455 S
H52    O135    0.991   .     S
O53    H54     0.989   .     S
O55    H56     0.988   .     S
N57    C59     1.447   .     S
N57    H58     1.032   .     S
C59    H62     1.112   .     S
C59    H312    1.110   1_545 S
C59    H313    1.109   1_545 S
H60    C311    1.110   .     S
H61    C311    1.109   .     S
N63    C65     1.446   .     S
N63    H64     1.032   .     S
C65    H68     1.112   .     S
C65    H318    1.111   .     S
C65    H319    1.109   .     S
H66    C317    1.111   1_545 S
H67    C317    1.109   1_545 S
O69    H70     0.982   .     S
O71    H72     0.983   .     S
N73    H74     1.031   .     S
N73    C75     1.447   .     S
C75    H76     1.110   .     S
C75    H77     1.111   .     S
C75    H78     1.111   .     S
N79    C81     1.446   .     S
N79    H80     1.031   .     S
C81    H82     1.111   .     S
C81    H83     1.110   .     S
C81    H84     1.109   .     S
C85    C105    1.433   .     S
C85    O125    1.288   .     A
C85    O123    1.289   .     A
C86    C106    1.423   .     S
C86    O126    1.287   .     A
C86    O124    1.286   .     A
C87    H117    1.082   .     S
C87    C89     1.405   .     A
C87    C95     1.402   .     A
C88    C96     1.402   .     A
C88    H118    1.082   .     S
C88    C90     1.405   .     A
C89    N121    1.379   .     A
C89    O153    1.373   .     S
C90    N122    1.379   .     A
C90    O155    1.373   .     S
C91    N157    1.418   .     S
C91    N121    1.371   .     A
C91    C93     1.416   .     A
C92    N163    1.418   .     S
C92    N122    1.371   .     A
C92    C94     1.416   .     A
C93    C95     1.409   .     A
C93    H119    1.082   .     S
C94    C96     1.409   .     A
C94    H120    1.082   .     S
C95    C600    1.517   1_554 S
C96    C599    1.517   .     S
C97    C99     1.412   .     S
C97    O127    1.276   .     A
C97    O129    1.287   .     A
C98    O130    1.288   .     A
C98    C100    1.412   .     S
C98    O128    1.275   .     A
C100   C183    1.347   .     S
C100   O219    1.390   .     S
C101   H113    1.084   .     S
C101   C111    1.397   .     A
C101   C103    1.382   .     A
C102   H114    1.085   .     S
C102   C104    1.382   .     A
C102   C112    1.399   .     A
C103   C105    1.412   .     A
C103   O137    1.382   .     S
C104   O139    1.383   .     S
C104   C106    1.410   .     A
C105   C107    1.397   .     A
C106   C108    1.394   .     A
C107   C109    1.386   .     A
C107   H115    1.085   .     S
C108   C110    1.386   .     A
C108   H116    1.085   .     S
C109   N141    1.426   .     S
C109   C111    1.408   .     A
C110   N147    1.426   .     S
C110   C112    1.408   .     A
C111   C364    1.443   1_545 S
C112   C363    1.443   .     S
N121   Zn132   2.018   .     S
N122   Zn131   2.018   .     S
O123   Zn131   1.987   .     S
O124   Zn132   1.987   .     S
O125   Zn132   1.997   .     S
O126   Zn131   1.997   .     S
O127   Zn131   1.978   .     S
O128   Zn132   1.978   .     S
O129   Zn132   1.986   .     S
O130   Zn131   1.986   .     S
O133   C183    1.390   .     S
O133   H218    0.991   .     S
H136   O219    0.991   .     S
O137   H138    0.989   .     S
O139   H140    0.988   .     S
N141   C143    1.447   .     S
N141   H142    1.032   .     S
C143   H146    1.112   .     S
C143   H396    1.110   1_545 S
C143   H397    1.109   1_545 S
H144   C395    1.110   .     S
H145   C395    1.109   .     S
N147   C149    1.446   .     S
N147   H148    1.032   .     S
C149   H152    1.112   .     S
C149   H402    1.111   .     S
C149   H403    1.109   .     S
H150   C401    1.111   1_545 S
H151   C401    1.109   1_545 S
O153   H154    0.982   .     S
O155   H156    0.983   .     S
N157   H158    1.031   .     S
N157   C159    1.447   .     S
C159   H160    1.110   .     S
C159   H161    1.111   .     S
C159   H162    1.111   .     S
N163   C165    1.446   .     S
N163   H164    1.031   .     S
C165   H166    1.111   .     S
C165   H167    1.110   .     S
C165   H168    1.109   .     S
C169   C189    1.433   .     S
C169   O209    1.288   .     A
C169   O207    1.289   .     A
C170   C190    1.423   .     S
C170   O210    1.287   .     A
C170   O208    1.286   .     A
C171   H201    1.082   .     S
C171   C173    1.405   .     A
C171   C179    1.402   .     A
C172   C180    1.402   .     A
C172   H202    1.082   .     S
C172   C174    1.405   .     A
C173   N205    1.379   .     A
C173   O237    1.373   .     S
C174   N206    1.379   .     A
C174   O239    1.373   .     S
C175   N241    1.418   .     S
C175   N205    1.371   .     A
C175   C177    1.416   .     A
C176   N247    1.418   .     S
C176   N206    1.371   .     A
C176   C178    1.416   .     A
C177   C179    1.409   .     A
C177   H203    1.082   .     S
C178   C180    1.409   .     A
C178   H204    1.082   .     S
C179   C684    1.517   1_554 S
C180   C683    1.517   .     S
C181   C183    1.412   .     S
C181   O211    1.276   .     A
C181   O213    1.287   .     A
C182   O214    1.288   .     A
C182   C184    1.412   .     S
C182   O212    1.275   .     A
C184   C15     1.347   1_655 S
C184   O51     1.390   1_655 S
C185   H197    1.084   .     S
C185   C195    1.397   .     A
C185   C187    1.382   .     A
C186   H198    1.085   .     S
C186   C188    1.382   .     A
C186   C196    1.399   .     A
C187   C189    1.412   .     A
C187   O221    1.382   .     S
C188   O223    1.383   .     S
C188   C190    1.410   .     A
C189   C191    1.397   .     A
C190   C192    1.394   .     A
C191   C193    1.386   .     A
C191   H199    1.085   .     S
C192   C194    1.386   .     A
C192   H200    1.085   .     S
C193   N225    1.426   .     S
C193   C195    1.408   .     A
C194   N231    1.426   .     S
C194   C196    1.408   .     A
C195   C448    1.443   1_545 S
C196   C447    1.443   .     S
N205   Zn216   2.018   .     S
N206   Zn215   2.018   .     S
O207   Zn215   1.987   .     S
O208   Zn216   1.987   .     S
O209   Zn216   1.997   .     S
O210   Zn215   1.997   .     S
O211   Zn215   1.978   .     S
O212   Zn216   1.978   .     S
O213   Zn216   1.986   .     S
O214   Zn215   1.986   .     S
O217   C15     1.390   1_655 S
O217   H50     0.991   1_655 S
H220   O51     0.991   1_655 S
O221   H222    0.989   .     S
O223   H224    0.988   .     S
N225   C227    1.447   .     S
N225   H226    1.032   .     S
C227   H230    1.112   .     S
C227   H480    1.110   1_545 S
C227   H481    1.109   1_545 S
H228   C479    1.110   .     S
H229   C479    1.109   .     S
N231   C233    1.446   .     S
N231   H232    1.032   .     S
C233   H236    1.112   .     S
C233   H486    1.111   .     S
C233   H487    1.109   .     S
H234   C485    1.111   1_545 S
H235   C485    1.109   1_545 S
O237   H238    0.982   .     S
O239   H240    0.983   .     S
N241   H242    1.031   .     S
N241   C243    1.447   .     S
C243   H244    1.110   .     S
C243   H245    1.111   .     S
C243   H246    1.111   .     S
N247   C249    1.446   .     S
N247   H248    1.031   .     S
C249   H250    1.111   .     S
C249   H251    1.110   .     S
C249   H252    1.109   .     S
C253   C273    1.433   .     S
C253   O293    1.288   .     A
C253   O291    1.289   .     A
C254   C274    1.423   .     S
C254   O294    1.287   .     A
C254   O292    1.286   .     A
C255   H285    1.082   .     S
C255   C257    1.405   .     A
C255   C263    1.402   .     A
C256   C264    1.402   .     A
C256   H286    1.082   .     S
C256   C258    1.405   .     A
C257   N289    1.379   .     A
C257   O321    1.373   .     S
C258   N290    1.379   .     A
C258   O323    1.373   .     S
C259   N325    1.418   .     S
C259   N289    1.371   .     A
C259   C261    1.416   .     A
C260   N331    1.418   .     S
C260   N290    1.371   .     A
C260   C262    1.416   .     A
C261   C263    1.409   .     A
C261   H287    1.082   .     S
C262   C264    1.409   .     A
C262   H288    1.082   .     S
C263   C768    1.517   1_554 S
C264   C767    1.517   .     S
C265   C267    1.412   .     S
C265   O295    1.276   .     A
C265   O297    1.287   .     A
C266   O298    1.288   .     A
C266   C268    1.412   .     S
C266   O296    1.275   .     A
C267   C436    1.347   1_455 S
C267   O469    1.390   1_455 S
C268   C351    1.347   .     S
C268   O387    1.390   .     S
C269   H281    1.084   .     S
C269   C279    1.397   .     A
C269   C271    1.382   .     A
C270   H282    1.085   .     S
C270   C272    1.382   .     A
C270   C280    1.399   .     A
C271   C273    1.412   .     A
C271   O305    1.382   .     S
C272   O307    1.383   .     S
C272   C274    1.410   .     A
C273   C275    1.397   .     A
C274   C276    1.394   .     A
C275   C277    1.386   .     A
C275   H283    1.085   .     S
C276   C278    1.386   .     A
C276   H284    1.085   .     S
C277   N309    1.426   .     S
C277   C279    1.408   .     A
C278   N315    1.426   .     S
C278   C280    1.408   .     A
C280   C27     1.443   1_565 S
N289   Zn300   2.018   .     S
N290   Zn299   2.018   .     S
O291   Zn299   1.987   .     S
O292   Zn300   1.987   .     S
O293   Zn300   1.997   .     S
O294   Zn299   1.997   .     S
O295   Zn299   1.978   .     S
O296   Zn300   1.978   .     S
O297   Zn300   1.986   .     S
O298   Zn299   1.986   .     S
O301   C351    1.390   .     S
O301   H386    0.991   .     S
H302   O469    0.991   1_455 S
O303   C436    1.390   1_455 S
O303   H472    0.991   1_455 S
H304   O387    0.991   .     S
O305   H306    0.989   .     S
O307   H308    0.988   .     S
N309   C311    1.447   .     S
N309   H310    1.032   .     S
C311   H314    1.112   .     S
H312   C59     1.110   1_565 S
H313   C59     1.109   1_565 S
N315   C317    1.446   .     S
N315   H316    1.032   .     S
C317   H320    1.112   .     S
C317   H66     1.111   1_565 S
C317   H67     1.109   1_565 S
O321   H322    0.982   .     S
O323   H324    0.983   .     S
N325   H326    1.031   .     S
N325   C327    1.447   .     S
C327   H328    1.110   .     S
C327   H329    1.111   .     S
C327   H330    1.111   .     S
N331   C333    1.446   .     S
N331   H332    1.031   .     S
C333   H334    1.111   .     S
C333   H335    1.110   .     S
C333   H336    1.109   .     S
C337   C357    1.433   .     S
C337   O377    1.288   .     A
C337   O375    1.289   .     A
C338   C358    1.423   .     S
C338   O378    1.287   .     A
C338   O376    1.286   .     A
C339   H369    1.082   .     S
C339   C341    1.405   .     A
C339   C347    1.402   .     A
C340   C348    1.402   .     A
C340   H370    1.082   .     S
C340   C342    1.405   .     A
C341   N373    1.379   .     A
C341   O405    1.373   .     S
C342   N374    1.379   .     A
C342   O407    1.373   .     S
C343   N409    1.418   .     S
C343   N373    1.371   .     A
C343   C345    1.416   .     A
C344   N415    1.418   .     S
C344   N374    1.371   .     A
C344   C346    1.416   .     A
C345   C347    1.409   .     A
C345   H371    1.082   .     S
C346   C348    1.409   .     A
C346   H372    1.082   .     S
C347   C852    1.517   1_554 S
C348   C851    1.517   .     S
C349   C351    1.412   .     S
C349   O379    1.276   .     A
C349   O381    1.287   .     A
C350   O382    1.288   .     A
C350   C352    1.412   .     S
C350   O380    1.275   .     A
C352   C435    1.347   .     S
C352   O471    1.390   .     S
C353   H365    1.084   .     S
C353   C363    1.397   .     A
C353   C355    1.382   .     A
C354   H366    1.085   .     S
C354   C356    1.382   .     A
C354   C364    1.399   .     A
C355   C357    1.412   .     A
C355   O389    1.382   .     S
C356   O391    1.383   .     S
C356   C358    1.410   .     A
C357   C359    1.397   .     A
C358   C360    1.394   .     A
C359   C361    1.386   .     A
C359   H367    1.085   .     S
C360   C362    1.386   .     A
C360   H368    1.085   .     S
C361   N393    1.426   .     S
C361   C363    1.408   .     A
C362   N399    1.426   .     S
C362   C364    1.408   .     A
C364   C111    1.443   1_565 S
N373   Zn384   2.018   .     S
N374   Zn383   2.018   .     S
O375   Zn383   1.987   .     S
O376   Zn384   1.987   .     S
O377   Zn384   1.997   .     S
O378   Zn383   1.997   .     S
O379   Zn383   1.978   .     S
O380   Zn384   1.978   .     S
O381   Zn384   1.986   .     S
O382   Zn383   1.986   .     S
O385   C435    1.390   .     S
O385   H470    0.991   .     S
H388   O471    0.991   .     S
O389   H390    0.989   .     S
O391   H392    0.988   .     S
N393   C395    1.447   .     S
N393   H394    1.032   .     S
C395   H398    1.112   .     S
H396   C143    1.110   1_565 S
H397   C143    1.109   1_565 S
N399   C401    1.446   .     S
N399   H400    1.032   .     S
C401   H404    1.112   .     S
C401   H150    1.111   1_565 S
C401   H151    1.109   1_565 S
O405   H406    0.982   .     S
O407   H408    0.983   .     S
N409   H410    1.031   .     S
N409   C411    1.447   .     S
C411   H412    1.110   .     S
C411   H413    1.111   .     S
C411   H414    1.111   .     S
N415   C417    1.446   .     S
N415   H416    1.031   .     S
C417   H418    1.111   .     S
C417   H419    1.110   .     S
C417   H420    1.109   .     S
C421   C441    1.433   .     S
C421   O461    1.288   .     A
C421   O459    1.289   .     A
C422   C442    1.423   .     S
C422   O462    1.287   .     A
C422   O460    1.286   .     A
C423   H453    1.082   .     S
C423   C425    1.405   .     A
C423   C431    1.402   .     A
C424   C432    1.402   .     A
C424   H454    1.082   .     S
C424   C426    1.405   .     A
C425   N457    1.379   .     A
C425   O489    1.373   .     S
C426   N458    1.379   .     A
C426   O491    1.373   .     S
C427   N493    1.418   .     S
C427   N457    1.371   .     A
C427   C429    1.416   .     A
C428   N499    1.418   .     S
C428   N458    1.371   .     A
C428   C430    1.416   .     A
C429   C431    1.409   .     A
C429   H455    1.082   .     S
C430   C432    1.409   .     A
C430   H456    1.082   .     S
C431   C936    1.517   1_554 S
C432   C935    1.517   .     S
C433   C435    1.412   .     S
C433   O463    1.276   .     A
C433   O465    1.287   .     A
C434   O466    1.288   .     A
C434   C436    1.412   .     S
C434   O464    1.275   .     A
C436   C267    1.347   1_655 S
C436   O303    1.390   1_655 S
C437   H449    1.084   .     S
C437   C447    1.397   .     A
C437   C439    1.382   .     A
C438   H450    1.085   .     S
C438   C440    1.382   .     A
C438   C448    1.399   .     A
C439   C441    1.412   .     A
C439   O473    1.382   .     S
C440   O475    1.383   .     S
C440   C442    1.410   .     A
C441   C443    1.397   .     A
C442   C444    1.394   .     A
C443   C445    1.386   .     A
C443   H451    1.085   .     S
C444   C446    1.386   .     A
C444   H452    1.085   .     S
C445   N477    1.426   .     S
C445   C447    1.408   .     A
C446   N483    1.426   .     S
C446   C448    1.408   .     A
C448   C195    1.443   1_565 S
N457   Zn468   2.018   .     S
N458   Zn467   2.018   .     S
O459   Zn467   1.987   .     S
O460   Zn468   1.987   .     S
O461   Zn468   1.997   .     S
O462   Zn467   1.997   .     S
O463   Zn467   1.978   .     S
O464   Zn468   1.978   .     S
O465   Zn468   1.986   .     S
O466   Zn467   1.986   .     S
O469   C267    1.390   1_655 S
O469   H302    0.991   1_655 S
H472   O303    0.991   1_655 S
O473   H474    0.989   .     S
O475   H476    0.988   .     S
N477   C479    1.447   .     S
N477   H478    1.032   .     S
C479   H482    1.112   .     S
H480   C227    1.110   1_565 S
H481   C227    1.109   1_565 S
N483   C485    1.446   .     S
N483   H484    1.032   .     S
C485   H488    1.112   .     S
C485   H234    1.111   1_565 S
C485   H235    1.109   1_565 S
O489   H490    0.982   .     S
O491   H492    0.983   .     S
N493   H494    1.031   .     S
N493   C495    1.447   .     S
C495   H496    1.110   .     S
C495   H497    1.111   .     S
C495   H498    1.111   .     S
N499   C501    1.446   .     S
N499   H500    1.031   .     S
C501   H502    1.111   .     S
C501   H503    1.110   .     S
C501   H504    1.109   .     S
C505   C525    1.433   .     S
C505   O545    1.288   .     A
C505   O543    1.289   .     A
C506   C526    1.423   .     S
C506   O546    1.287   .     A
C506   O544    1.286   .     A
C507   H537    1.082   .     S
C507   C509    1.405   .     A
C507   C515    1.402   .     A
C508   C516    1.402   .     A
C508   H538    1.082   .     S
C508   C510    1.405   .     A
C509   N541    1.379   .     A
C509   O573    1.373   .     S
C510   N542    1.379   .     A
C510   O575    1.373   .     S
C511   N577    1.418   .     S
C511   N541    1.371   .     A
C511   C513    1.416   .     A
C512   N583    1.418   .     S
C512   N542    1.371   .     A
C512   C514    1.416   .     A
C513   C515    1.409   .     A
C513   H539    1.082   .     S
C514   C516    1.409   .     A
C514   H540    1.082   .     S
C516   C11     1.517   1_556 S
C517   C519    1.412   .     S
C517   O547    1.276   .     A
C517   O549    1.287   .     A
C518   O550    1.288   .     A
C518   C520    1.412   .     S
C518   O548    1.275   .     A
C519   C688    1.347   1_455 S
C519   O721    1.390   1_455 S
C520   C603    1.347   .     S
C520   O639    1.390   .     S
C521   H533    1.084   .     S
C521   C531    1.397   .     A
C521   C523    1.382   .     A
C522   H534    1.085   .     S
C522   C524    1.382   .     A
C522   C532    1.399   .     A
C523   C525    1.412   .     A
C523   O557    1.382   .     S
C524   O559    1.383   .     S
C524   C526    1.410   .     A
C525   C527    1.397   .     A
C526   C528    1.394   .     A
C527   C529    1.386   .     A
C527   H535    1.085   .     S
C528   C530    1.386   .     A
C528   H536    1.085   .     S
C529   N561    1.426   .     S
C529   C531    1.408   .     A
C530   N567    1.426   .     S
C530   C532    1.408   .     A
C531   C784    1.443   1_545 S
C532   C783    1.443   .     S
N541   Zn552   2.018   .     S
N542   Zn551   2.018   .     S
O543   Zn551   1.987   .     S
O544   Zn552   1.987   .     S
O545   Zn552   1.997   .     S
O546   Zn551   1.997   .     S
O547   Zn551   1.978   .     S
O548   Zn552   1.978   .     S
O549   Zn552   1.986   .     S
O550   Zn551   1.986   .     S
O553   C603    1.390   .     S
O553   H638    0.991   .     S
H554   O721    0.991   1_455 S
O555   C688    1.390   1_455 S
O555   H724    0.991   1_455 S
H556   O639    0.991   .     S
O557   H558    0.989   .     S
O559   H560    0.988   .     S
N561   C563    1.447   .     S
N561   H562    1.032   .     S
C563   H566    1.112   .     S
C563   H816    1.110   1_545 S
C563   H817    1.109   1_545 S
H564   C815    1.110   .     S
H565   C815    1.109   .     S
N567   C569    1.446   .     S
N567   H568    1.032   .     S
C569   H572    1.112   .     S
C569   H822    1.111   .     S
C569   H823    1.109   .     S
H570   C821    1.111   1_545 S
H571   C821    1.109   1_545 S
O573   H574    0.982   .     S
O575   H576    0.983   .     S
N577   H578    1.031   .     S
N577   C579    1.447   .     S
C579   H580    1.110   .     S
C579   H581    1.111   .     S
C579   H582    1.111   .     S
N583   C585    1.446   .     S
N583   H584    1.031   .     S
C585   H586    1.111   .     S
C585   H587    1.110   .     S
C585   H588    1.109   .     S
C589   C609    1.433   .     S
C589   O629    1.288   .     A
C589   O627    1.289   .     A
C590   C610    1.423   .     S
C590   O630    1.287   .     A
C590   O628    1.286   .     A
C591   H621    1.082   .     S
C591   C593    1.405   .     A
C591   C599    1.402   .     A
C592   C600    1.402   .     A
C592   H622    1.082   .     S
C592   C594    1.405   .     A
C593   N625    1.379   .     A
C593   O657    1.373   .     S
C594   N626    1.379   .     A
C594   O659    1.373   .     S
C595   N661    1.418   .     S
C595   N625    1.371   .     A
C595   C597    1.416   .     A
C596   N667    1.418   .     S
C596   N626    1.371   .     A
C596   C598    1.416   .     A
C597   C599    1.409   .     A
C597   H623    1.082   .     S
C598   C600    1.409   .     A
C598   H624    1.082   .     S
C600   C95     1.517   1_556 S
C601   C603    1.412   .     S
C601   O631    1.276   .     A
C601   O633    1.287   .     A
C602   O634    1.288   .     A
C602   C604    1.412   .     S
C602   O632    1.275   .     A
C604   C687    1.347   .     S
C604   O723    1.390   .     S
C605   H617    1.084   .     S
C605   C615    1.397   .     A
C605   C607    1.382   .     A
C606   H618    1.085   .     S
C606   C608    1.382   .     A
C606   C616    1.399   .     A
C607   C609    1.412   .     A
C607   O641    1.382   .     S
C608   O643    1.383   .     S
C608   C610    1.410   .     A
C609   C611    1.397   .     A
C610   C612    1.394   .     A
C611   C613    1.386   .     A
C611   H619    1.085   .     S
C612   C614    1.386   .     A
C612   H620    1.085   .     S
C613   N645    1.426   .     S
C613   C615    1.408   .     A
C614   N651    1.426   .     S
C614   C616    1.408   .     A
C615   C868    1.443   1_545 S
C616   C867    1.443   .     S
N625   Zn636   2.018   .     S
N626   Zn635   2.018   .     S
O627   Zn635   1.987   .     S
O628   Zn636   1.987   .     S
O629   Zn636   1.997   .     S
O630   Zn635   1.997   .     S
O631   Zn635   1.978   .     S
O632   Zn636   1.978   .     S
O633   Zn636   1.986   .     S
O634   Zn635   1.986   .     S
O637   C687    1.390   .     S
O637   H722    0.991   .     S
H640   O723    0.991   .     S
O641   H642    0.989   .     S
O643   H644    0.988   .     S
N645   C647    1.447   .     S
N645   H646    1.032   .     S
C647   H650    1.112   .     S
C647   H900    1.110   1_545 S
C647   H901    1.109   1_545 S
H648   C899    1.110   .     S
H649   C899    1.109   .     S
N651   C653    1.446   .     S
N651   H652    1.032   .     S
C653   H656    1.112   .     S
C653   H906    1.111   .     S
C653   H907    1.109   .     S
H654   C905    1.111   1_545 S
H655   C905    1.109   1_545 S
O657   H658    0.982   .     S
O659   H660    0.983   .     S
N661   H662    1.031   .     S
N661   C663    1.447   .     S
C663   H664    1.110   .     S
C663   H665    1.111   .     S
C663   H666    1.111   .     S
N667   C669    1.446   .     S
N667   H668    1.031   .     S
C669   H670    1.111   .     S
C669   H671    1.110   .     S
C669   H672    1.109   .     S
C673   C693    1.433   .     S
C673   O713    1.288   .     A
C673   O711    1.289   .     A
C674   C694    1.423   .     S
C674   O714    1.287   .     A
C674   O712    1.286   .     A
C675   H705    1.082   .     S
C675   C677    1.405   .     A
C675   C683    1.402   .     A
C676   C684    1.402   .     A
C676   H706    1.082   .     S
C676   C678    1.405   .     A
C677   N709    1.379   .     A
C677   O741    1.373   .     S
C678   N710    1.379   .     A
C678   O743    1.373   .     S
C679   N745    1.418   .     S
C679   N709    1.371   .     A
C679   C681    1.416   .     A
C680   N751    1.418   .     S
C680   N710    1.371   .     A
C680   C682    1.416   .     A
C681   C683    1.409   .     A
C681   H707    1.082   .     S
C682   C684    1.409   .     A
C682   H708    1.082   .     S
C684   C179    1.517   1_556 S
C685   C687    1.412   .     S
C685   O715    1.276   .     A
C685   O717    1.287   .     A
C686   O718    1.288   .     A
C686   C688    1.412   .     S
C686   O716    1.275   .     A
C688   C519    1.347   1_655 S
C688   O555    1.390   1_655 S
C689   H701    1.084   .     S
C689   C699    1.397   .     A
C689   C691    1.382   .     A
C690   H702    1.085   .     S
C690   C692    1.382   .     A
C690   C700    1.399   .     A
C691   C693    1.412   .     A
C691   O725    1.382   .     S
C692   O727    1.383   .     S
C692   C694    1.410   .     A
C693   C695    1.397   .     A
C694   C696    1.394   .     A
C695   C697    1.386   .     A
C695   H703    1.085   .     S
C696   C698    1.386   .     A
C696   H704    1.085   .     S
C697   N729    1.426   .     S
C697   C699    1.408   .     A
C698   N735    1.426   .     S
C698   C700    1.408   .     A
C699   C952    1.443   1_545 S
C700   C951    1.443   .     S
N709   Zn720   2.018   .     S
N710   Zn719   2.018   .     S
O711   Zn719   1.987   .     S
O712   Zn720   1.987   .     S
O713   Zn720   1.997   .     S
O714   Zn719   1.997   .     S
O715   Zn719   1.978   .     S
O716   Zn720   1.978   .     S
O717   Zn720   1.986   .     S
O718   Zn719   1.986   .     S
O721   C519    1.390   1_655 S
O721   H554    0.991   1_655 S
H724   O555    0.991   1_655 S
O725   H726    0.989   .     S
O727   H728    0.988   .     S
N729   C731    1.447   .     S
N729   H730    1.032   .     S
C731   H734    1.112   .     S
C731   H984    1.110   1_545 S
C731   H985    1.109   1_545 S
H732   C983    1.110   .     S
H733   C983    1.109   .     S
N735   C737    1.446   .     S
N735   H736    1.032   .     S
C737   H740    1.112   .     S
C737   H990    1.111   .     S
C737   H991    1.109   .     S
H738   C989    1.111   1_545 S
H739   C989    1.109   1_545 S
O741   H742    0.982   .     S
O743   H744    0.983   .     S
N745   H746    1.031   .     S
N745   C747    1.447   .     S
C747   H748    1.110   .     S
C747   H749    1.111   .     S
C747   H750    1.111   .     S
N751   C753    1.446   .     S
N751   H752    1.031   .     S
C753   H754    1.111   .     S
C753   H755    1.110   .     S
C753   H756    1.109   .     S
C757   C777    1.433   .     S
C757   O797    1.288   .     A
C757   O795    1.289   .     A
C758   C778    1.423   .     S
C758   O798    1.287   .     A
C758   O796    1.286   .     A
C759   H789    1.082   .     S
C759   C761    1.405   .     A
C759   C767    1.402   .     A
C760   C768    1.402   .     A
C760   H790    1.082   .     S
C760   C762    1.405   .     A
C761   N793    1.379   .     A
C761   O825    1.373   .     S
C762   N794    1.379   .     A
C762   O827    1.373   .     S
C763   N829    1.418   .     S
C763   N793    1.371   .     A
C763   C765    1.416   .     A
C764   N835    1.418   .     S
C764   N794    1.371   .     A
C764   C766    1.416   .     A
C765   C767    1.409   .     A
C765   H791    1.082   .     S
C766   C768    1.409   .     A
C766   H792    1.082   .     S
C768   C263    1.517   1_556 S
C769   C771    1.412   .     S
C769   O799    1.276   .     A
C769   O801    1.287   .     A
C770   O802    1.288   .     A
C770   C772    1.412   .     S
C770   O800    1.275   .     A
C771   C940    1.347   1_455 S
C771   O973    1.390   1_455 S
C772   C855    1.347   .     S
C772   O891    1.390   .     S
C773   H785    1.084   .     S
C773   C783    1.397   .     A
C773   C775    1.382   .     A
C774   H786    1.085   .     S
C774   C776    1.382   .     A
C774   C784    1.399   .     A
C775   C777    1.412   .     A
C775   O809    1.382   .     S
C776   O811    1.383   .     S
C776   C778    1.410   .     A
C777   C779    1.397   .     A
C778   C780    1.394   .     A
C779   C781    1.386   .     A
C779   H787    1.085   .     S
C780   C782    1.386   .     A
C780   H788    1.085   .     S
C781   N813    1.426   .     S
C781   C783    1.408   .     A
C782   N819    1.426   .     S
C782   C784    1.408   .     A
C784   C531    1.443   1_565 S
N793   Zn804   2.018   .     S
N794   Zn803   2.018   .     S
O795   Zn803   1.987   .     S
O796   Zn804   1.987   .     S
O797   Zn804   1.997   .     S
O798   Zn803   1.997   .     S
O799   Zn803   1.978   .     S
O800   Zn804   1.978   .     S
O801   Zn804   1.986   .     S
O802   Zn803   1.986   .     S
O805   C855    1.390   .     S
O805   H890    0.991   .     S
H806   O973    0.991   1_455 S
O807   C940    1.390   1_455 S
O807   H976    0.991   1_455 S
H808   O891    0.991   .     S
O809   H810    0.989   .     S
O811   H812    0.988   .     S
N813   C815    1.447   .     S
N813   H814    1.032   .     S
C815   H818    1.112   .     S
H816   C563    1.110   1_565 S
H817   C563    1.109   1_565 S
N819   C821    1.446   .     S
N819   H820    1.032   .     S
C821   H824    1.112   .     S
C821   H570    1.111   1_565 S
C821   H571    1.109   1_565 S
O825   H826    0.982   .     S
O827   H828    0.983   .     S
N829   H830    1.031   .     S
N829   C831    1.447   .     S
C831   H832    1.110   .     S
C831   H833    1.111   .     S
C831   H834    1.111   .     S
N835   C837    1.446   .     S
N835   H836    1.031   .     S
C837   H838    1.111   .     S
C837   H839    1.110   .     S
C837   H840    1.109   .     S
C841   C861    1.433   .     S
C841   O881    1.288   .     A
C841   O879    1.289   .     A
C842   C862    1.423   .     S
C842   O882    1.287   .     A
C842   O880    1.286   .     A
C843   H873    1.082   .     S
C843   C845    1.405   .     A
C843   C851    1.402   .     A
C844   C852    1.402   .     A
C844   H874    1.082   .     S
C844   C846    1.405   .     A
C845   N877    1.379   .     A
C845   O909    1.373   .     S
C846   N878    1.379   .     A
C846   O911    1.373   .     S
C847   N913    1.418   .     S
C847   N877    1.371   .     A
C847   C849    1.416   .     A
C848   N919    1.418   .     S
C848   N878    1.371   .     A
C848   C850    1.416   .     A
C849   C851    1.409   .     A
C849   H875    1.082   .     S
C850   C852    1.409   .     A
C850   H876    1.082   .     S
C852   C347    1.517   1_556 S
C853   C855    1.412   .     S
C853   O883    1.276   .     A
C853   O885    1.287   .     A
C854   O886    1.288   .     A
C854   C856    1.412   .     S
C854   O884    1.275   .     A
C856   C939    1.347   .     S
C856   O975    1.390   .     S
C857   H869    1.084   .     S
C857   C867    1.397   .     A
C857   C859    1.382   .     A
C858   H870    1.085   .     S
C858   C860    1.382   .     A
C858   C868    1.399   .     A
C859   C861    1.412   .     A
C859   O893    1.382   .     S
C860   O895    1.383   .     S
C860   C862    1.410   .     A
C861   C863    1.397   .     A
C862   C864    1.394   .     A
C863   C865    1.386   .     A
C863   H871    1.085   .     S
C864   C866    1.386   .     A
C864   H872    1.085   .     S
C865   N897    1.426   .     S
C865   C867    1.408   .     A
C866   N903    1.426   .     S
C866   C868    1.408   .     A
C868   C615    1.443   1_565 S
N877   Zn888   2.018   .     S
N878   Zn887   2.018   .     S
O879   Zn887   1.987   .     S
O880   Zn888   1.987   .     S
O881   Zn888   1.997   .     S
O882   Zn887   1.997   .     S
O883   Zn887   1.978   .     S
O884   Zn888   1.978   .     S
O885   Zn888   1.986   .     S
O886   Zn887   1.986   .     S
O889   C939    1.390   .     S
O889   H974    0.991   .     S
H892   O975    0.991   .     S
O893   H894    0.989   .     S
O895   H896    0.988   .     S
N897   C899    1.447   .     S
N897   H898    1.032   .     S
C899   H902    1.112   .     S
H900   C647    1.110   1_565 S
H901   C647    1.109   1_565 S
N903   C905    1.446   .     S
N903   H904    1.032   .     S
C905   H908    1.112   .     S
C905   H654    1.111   1_565 S
C905   H655    1.109   1_565 S
O909   H910    0.982   .     S
O911   H912    0.983   .     S
N913   H914    1.031   .     S
N913   C915    1.447   .     S
C915   H916    1.110   .     S
C915   H917    1.111   .     S
C915   H918    1.111   .     S
N919   C921    1.446   .     S
N919   H920    1.031   .     S
C921   H922    1.111   .     S
C921   H923    1.110   .     S
C921   H924    1.109   .     S
C925   C945    1.433   .     S
C925   O965    1.288   .     A
C925   O963    1.289   .     A
C926   C946    1.423   .     S
C926   O966    1.287   .     A
C926   O964    1.286   .     A
C927   H957    1.082   .     S
C927   C929    1.405   .     A
C927   C935    1.402   .     A
C928   C936    1.402   .     A
C928   H958    1.082   .     S
C928   C930    1.405   .     A
C929   N961    1.379   .     A
C929   O993    1.373   .     S
C930   N962    1.379   .     A
C930   O995    1.373   .     S
C931   N997    1.418   .     S
C931   N961    1.371   .     A
C931   C933    1.416   .     A
C932   N1003   1.418   .     S
C932   N962    1.371   .     A
C932   C934    1.416   .     A
C933   C935    1.409   .     A
C933   H959    1.082   .     S
C934   C936    1.409   .     A
C934   H960    1.082   .     S
C936   C431    1.517   1_556 S
C937   C939    1.412   .     S
C937   O967    1.276   .     A
C937   O969    1.287   .     A
C938   O970    1.288   .     A
C938   C940    1.412   .     S
C938   O968    1.275   .     A
C940   C771    1.347   1_655 S
C940   O807    1.390   1_655 S
C941   H953    1.084   .     S
C941   C951    1.397   .     A
C941   C943    1.382   .     A
C942   H954    1.085   .     S
C942   C944    1.382   .     A
C942   C952    1.399   .     A
C943   C945    1.412   .     A
C943   O977    1.382   .     S
C944   O979    1.383   .     S
C944   C946    1.410   .     A
C945   C947    1.397   .     A
C946   C948    1.394   .     A
C947   C949    1.386   .     A
C947   H955    1.085   .     S
C948   C950    1.386   .     A
C948   H956    1.085   .     S
C949   N981    1.426   .     S
C949   C951    1.408   .     A
C950   N987    1.426   .     S
C950   C952    1.408   .     A
C952   C699    1.443   1_565 S
N961   Zn972   2.018   .     S
N962   Zn971   2.018   .     S
O963   Zn971   1.987   .     S
O964   Zn972   1.987   .     S
O965   Zn972   1.997   .     S
O966   Zn971   1.997   .     S
O967   Zn971   1.978   .     S
O968   Zn972   1.978   .     S
O969   Zn972   1.986   .     S
O970   Zn971   1.986   .     S
O973   C771    1.390   1_655 S
O973   H806    0.991   1_655 S
H976   O807    0.991   1_655 S
O977   H978    0.989   .     S
O979   H980    0.988   .     S
N981   C983    1.447   .     S
N981   H982    1.032   .     S
C983   H986    1.112   .     S
H984   C731    1.110   1_565 S
H985   C731    1.109   1_565 S
N987   C989    1.446   .     S
N987   H988    1.032   .     S
C989   H992    1.112   .     S
C989   H738    1.111   1_565 S
C989   H739    1.109   1_565 S
O993   H994    0.982   .     S
O995   H996    0.983   .     S
N997   H998    1.031   .     S
N997   C999    1.447   .     S
C999   H1000   1.110   .     S
C999   H1001   1.111   .     S
C999   H1002   1.111   .     S
N1003  C1005   1.446   .     S
N1003  H1004   1.031   .     S
C1005  H1006   1.111   .     S
C1005  H1007   1.110   .     S
C1005  H1008   1.109   .     S
