data_str_m3_o2_o5_pcu_sym.111
_audit_creation_date              2020-01-03
_audit_creation_method            'Materials Studio'
_symmetry_space_group_name_H-M    'P1'
_symmetry_Int_Tables_number       1
_symmetry_cell_setting            triclinic
loop_
_symmetry_equiv_pos_as_xyz
  x,y,z
_cell_length_a                    29.9208
_cell_length_b                    28.3706
_cell_length_c                    26.7554
_cell_angle_alpha                 90.0014
_cell_angle_beta                  90.0364
_cell_angle_gamma                 89.9841
loop_
_atom_site_label
_atom_site_type_symbol
_atom_site_fract_x
_atom_site_fract_y
_atom_site_fract_z
_atom_site_U_iso_or_equiv
_atom_site_adp_type
_atom_site_occupancy
C1     C     0.16389   0.25002   0.16621   0.00000  Uiso   1.00
C2     C     0.21445   0.44739   0.14560   0.00000  Uiso   1.00
C3     C     0.24999   0.25000   0.07285   0.00000  Uiso   1.00
C4     C     0.25001   0.25000   0.26048   0.00000  Uiso   1.00
C5     C     0.25000   0.02669   0.16666   0.00000  Uiso   1.00
C6     C     0.25000   0.47332   0.16666   0.00000  Uiso   1.00
C7     C     0.24999   0.24999   0.02178   0.00000  Uiso   1.00
C8     C     0.25000   0.24999   0.31155   0.00000  Uiso   1.00
C9     C     0.04848   0.28531   0.13065   0.00000  Uiso   1.00
C10    C     0.45121   0.21542   0.12966   0.00000  Uiso   1.00
C11    C     0.45451   0.28708   0.18131   0.00000  Uiso   1.00
C12    C     0.33612   0.25000   0.16625   0.00000  Uiso   1.00
C13    C     0.04529   0.21407   0.18253   0.00000  Uiso   1.00
C14    C     0.09480   0.28547   0.13530   0.00000  Uiso   1.00
C15    C     0.40529   0.21478   0.13533   0.00000  Uiso   1.00
C16    C     0.40814   0.28656   0.18488   0.00000  Uiso   1.00
C17    C     0.09171   0.21418   0.18575   0.00000  Uiso   1.00
C18    C     0.11603   0.25007   0.16276   0.00000  Uiso   1.00
C19    C     0.38397   0.25014   0.16267   0.00000  Uiso   1.00
C20    C     0.02415   0.24978   0.15488   0.00000  Uiso   1.00
C21    C     0.47588   0.25133   0.15386   0.00000  Uiso   1.00
C22    C     0.22961   0.10224   0.12887   0.00000  Uiso   1.00
C23    C     0.28482   0.39777   0.18746   0.00000  Uiso   1.00
C24    C     0.27038   0.10222   0.20447   0.00000  Uiso   1.00
C25    C     0.21518   0.39779   0.14587   0.00000  Uiso   1.00
C26    C     0.22934   0.05264   0.12806   0.00000  Uiso   1.00
C27    C     0.28555   0.44737   0.18772   0.00000  Uiso   1.00
C28    C     0.27065   0.05262   0.20527   0.00000  Uiso   1.00
H29    H     0.21356   0.12158   0.09900   0.00000  Uiso   1.00
H30    H     0.31419   0.46509   0.20372   0.00000  Uiso   1.00
H31    H     0.28644   0.03489   0.23643   0.00000  Uiso   1.00
H32    H     0.18581   0.46512   0.12959   0.00000  Uiso   1.00
H33    H     0.04834   0.34146   0.08881   0.00000  Uiso   1.00
H34    H     0.00191   0.18836   0.09369   0.00000  Uiso   1.00
H35    H     0.45949   0.34331   0.22281   0.00000  Uiso   1.00
H36    H     0.03998   0.15804   0.22416   0.00000  Uiso   1.00
H37    H     0.31234   0.37845   0.20384   0.00000  Uiso   1.00
H38    H     0.28644   0.12155   0.23434   0.00000  Uiso   1.00
H39    H     0.18767   0.37848   0.12947   0.00000  Uiso   1.00
H40    H     0.11430   0.31263   0.11698   0.00000  Uiso   1.00
H41    H     0.38609   0.18721   0.11725   0.00000  Uiso   1.00
H42    H     0.39100   0.31375   0.20592   0.00000  Uiso   1.00
H43    H     0.10878   0.18702   0.20693   0.00000  Uiso   1.00
H44    H     0.21355   0.03491   0.09690   0.00000  Uiso   1.00
N45    N     0.25000   0.12624   0.16667   0.00000  Uiso   1.00
N46    N     0.25000   0.37377   0.16667   0.00000  Uiso   1.00
O47    O     0.18453   0.28974   0.16667   0.00000  Uiso   1.00
O48    O     0.47037   0.18040   0.10084   0.00000  Uiso   1.00
O49    O     0.47974   0.32117   0.20520   0.00000  Uiso   1.00
O50    O     0.01985   0.18026   0.20648   0.00000  Uiso   1.00
O51    O     0.31547   0.21026   0.16666   0.00000  Uiso   1.00
O52    O     0.31547   0.28974   0.16666   0.00000  Uiso   1.00
O53    O     0.18453   0.21026   0.16667   0.00000  Uiso   1.00
O54    O     0.25000   0.28973   0.09511   0.00000  Uiso   1.00
O55    O     0.25000   0.21027   0.23822   0.00000  Uiso   1.00
O56    O     0.25000   0.28973   0.23822   0.00000  Uiso   1.00
O57    O     0.25000   0.21027   0.09511   0.00000  Uiso   1.00
O58    O     0.02621   0.31922   0.10313   0.00000  Uiso   1.00
Zn59   Zn    0.25000   0.30307   0.16667   0.00000  Uiso   1.00
Zn60   Zn    0.25000   0.19693   0.16667   0.00000  Uiso   1.00
C61    C     0.66389   0.25002   0.16621   0.00000  Uiso   1.00
C62    C     0.71445   0.44739   0.14560   0.00000  Uiso   1.00
C63    C     0.74999   0.25000   0.07285   0.00000  Uiso   1.00
C64    C     0.75001   0.25000   0.26048   0.00000  Uiso   1.00
C65    C     0.75000   0.02669   0.16666   0.00000  Uiso   1.00
C66    C     0.75000   0.47332   0.16666   0.00000  Uiso   1.00
C67    C     0.74999   0.24999   0.02178   0.00000  Uiso   1.00
C68    C     0.75000   0.24999   0.31155   0.00000  Uiso   1.00
C69    C     0.54848   0.28531   0.13065   0.00000  Uiso   1.00
C70    C     0.95121   0.21542   0.12966   0.00000  Uiso   1.00
C71    C     0.95451   0.28708   0.18131   0.00000  Uiso   1.00
C72    C     0.83612   0.25000   0.16625   0.00000  Uiso   1.00
C73    C     0.54529   0.21407   0.18253   0.00000  Uiso   1.00
C74    C     0.59480   0.28547   0.13530   0.00000  Uiso   1.00
C75    C     0.90529   0.21478   0.13533   0.00000  Uiso   1.00
C76    C     0.90814   0.28656   0.18488   0.00000  Uiso   1.00
C77    C     0.59171   0.21418   0.18575   0.00000  Uiso   1.00
C78    C     0.61603   0.25007   0.16276   0.00000  Uiso   1.00
C79    C     0.88397   0.25014   0.16267   0.00000  Uiso   1.00
C80    C     0.52415   0.24978   0.15488   0.00000  Uiso   1.00
C81    C     0.97588   0.25133   0.15386   0.00000  Uiso   1.00
C82    C     0.72961   0.10224   0.12887   0.00000  Uiso   1.00
C83    C     0.78482   0.39777   0.18746   0.00000  Uiso   1.00
C84    C     0.77038   0.10222   0.20447   0.00000  Uiso   1.00
C85    C     0.71518   0.39779   0.14587   0.00000  Uiso   1.00
C86    C     0.72934   0.05264   0.12806   0.00000  Uiso   1.00
C87    C     0.78555   0.44737   0.18772   0.00000  Uiso   1.00
C88    C     0.77065   0.05262   0.20527   0.00000  Uiso   1.00
H89    H     0.71356   0.12158   0.09900   0.00000  Uiso   1.00
H90    H     0.81419   0.46509   0.20372   0.00000  Uiso   1.00
H91    H     0.78644   0.03489   0.23643   0.00000  Uiso   1.00
H92    H     0.68581   0.46512   0.12959   0.00000  Uiso   1.00
H93    H     0.54834   0.34146   0.08881   0.00000  Uiso   1.00
H94    H     0.50191   0.18836   0.09369   0.00000  Uiso   1.00
H95    H     0.95949   0.34331   0.22281   0.00000  Uiso   1.00
H96    H     0.53998   0.15804   0.22416   0.00000  Uiso   1.00
H97    H     0.81234   0.37845   0.20384   0.00000  Uiso   1.00
H98    H     0.78644   0.12155   0.23434   0.00000  Uiso   1.00
H99    H     0.68767   0.37848   0.12947   0.00000  Uiso   1.00
H100   H     0.61430   0.31263   0.11698   0.00000  Uiso   1.00
H101   H     0.88609   0.18721   0.11725   0.00000  Uiso   1.00
H102   H     0.89100   0.31375   0.20592   0.00000  Uiso   1.00
H103   H     0.60878   0.18702   0.20693   0.00000  Uiso   1.00
H104   H     0.71355   0.03491   0.09690   0.00000  Uiso   1.00
N105   N     0.75000   0.12624   0.16667   0.00000  Uiso   1.00
N106   N     0.75000   0.37377   0.16667   0.00000  Uiso   1.00
O107   O     0.68453   0.28974   0.16667   0.00000  Uiso   1.00
O108   O     0.97037   0.18040   0.10084   0.00000  Uiso   1.00
O109   O     0.97974   0.32117   0.20520   0.00000  Uiso   1.00
O110   O     0.51985   0.18026   0.20648   0.00000  Uiso   1.00
O111   O     0.81547   0.21026   0.16666   0.00000  Uiso   1.00
O112   O     0.81547   0.28974   0.16666   0.00000  Uiso   1.00
O113   O     0.68453   0.21026   0.16667   0.00000  Uiso   1.00
O114   O     0.75000   0.28973   0.09511   0.00000  Uiso   1.00
O115   O     0.75000   0.21027   0.23822   0.00000  Uiso   1.00
O116   O     0.75000   0.28973   0.23822   0.00000  Uiso   1.00
O117   O     0.75000   0.21027   0.09511   0.00000  Uiso   1.00
O118   O     0.52621   0.31922   0.10313   0.00000  Uiso   1.00
Zn119  Zn    0.75000   0.30307   0.16667   0.00000  Uiso   1.00
Zn120  Zn    0.75000   0.19693   0.16667   0.00000  Uiso   1.00
C121   C     0.16389   0.75002   0.16621   0.00000  Uiso   1.00
C122   C     0.21445   0.94739   0.14560   0.00000  Uiso   1.00
C123   C     0.24999   0.75000   0.07285   0.00000  Uiso   1.00
C124   C     0.25001   0.75000   0.26048   0.00000  Uiso   1.00
C125   C     0.25000   0.52669   0.16666   0.00000  Uiso   1.00
C126   C     0.25000   0.97332   0.16666   0.00000  Uiso   1.00
C127   C     0.24999   0.74999   0.02178   0.00000  Uiso   1.00
C128   C     0.25000   0.74999   0.31155   0.00000  Uiso   1.00
C129   C     0.04848   0.78531   0.13065   0.00000  Uiso   1.00
C130   C     0.45121   0.71542   0.12966   0.00000  Uiso   1.00
C131   C     0.45451   0.78708   0.18131   0.00000  Uiso   1.00
C132   C     0.33612   0.75000   0.16625   0.00000  Uiso   1.00
C133   C     0.04529   0.71407   0.18253   0.00000  Uiso   1.00
C134   C     0.09480   0.78547   0.13530   0.00000  Uiso   1.00
C135   C     0.40529   0.71478   0.13533   0.00000  Uiso   1.00
C136   C     0.40814   0.78656   0.18488   0.00000  Uiso   1.00
C137   C     0.09171   0.71418   0.18575   0.00000  Uiso   1.00
C138   C     0.11603   0.75007   0.16276   0.00000  Uiso   1.00
C139   C     0.38397   0.75014   0.16267   0.00000  Uiso   1.00
C140   C     0.02415   0.74978   0.15488   0.00000  Uiso   1.00
C141   C     0.47588   0.75133   0.15386   0.00000  Uiso   1.00
C142   C     0.22961   0.60224   0.12887   0.00000  Uiso   1.00
C143   C     0.28482   0.89777   0.18746   0.00000  Uiso   1.00
C144   C     0.27038   0.60222   0.20447   0.00000  Uiso   1.00
C145   C     0.21518   0.89779   0.14587   0.00000  Uiso   1.00
C146   C     0.22934   0.55264   0.12806   0.00000  Uiso   1.00
C147   C     0.28555   0.94737   0.18772   0.00000  Uiso   1.00
C148   C     0.27065   0.55262   0.20527   0.00000  Uiso   1.00
H149   H     0.21356   0.62158   0.09900   0.00000  Uiso   1.00
H150   H     0.31419   0.96509   0.20372   0.00000  Uiso   1.00
H151   H     0.28644   0.53489   0.23643   0.00000  Uiso   1.00
H152   H     0.18581   0.96512   0.12959   0.00000  Uiso   1.00
H153   H     0.04834   0.84146   0.08881   0.00000  Uiso   1.00
H154   H     0.00191   0.68836   0.09369   0.00000  Uiso   1.00
H155   H     0.45949   0.84331   0.22281   0.00000  Uiso   1.00
H156   H     0.03998   0.65804   0.22416   0.00000  Uiso   1.00
H157   H     0.31234   0.87845   0.20384   0.00000  Uiso   1.00
H158   H     0.28644   0.62155   0.23434   0.00000  Uiso   1.00
H159   H     0.18767   0.87848   0.12947   0.00000  Uiso   1.00
H160   H     0.11430   0.81263   0.11698   0.00000  Uiso   1.00
H161   H     0.38609   0.68721   0.11725   0.00000  Uiso   1.00
H162   H     0.39100   0.81375   0.20592   0.00000  Uiso   1.00
H163   H     0.10878   0.68702   0.20693   0.00000  Uiso   1.00
H164   H     0.21355   0.53491   0.09690   0.00000  Uiso   1.00
N165   N     0.25000   0.62624   0.16667   0.00000  Uiso   1.00
N166   N     0.25000   0.87377   0.16667   0.00000  Uiso   1.00
O167   O     0.18453   0.78974   0.16667   0.00000  Uiso   1.00
O168   O     0.47037   0.68040   0.10084   0.00000  Uiso   1.00
O169   O     0.47974   0.82117   0.20520   0.00000  Uiso   1.00
O170   O     0.01985   0.68026   0.20648   0.00000  Uiso   1.00
O171   O     0.31547   0.71026   0.16666   0.00000  Uiso   1.00
O172   O     0.31547   0.78974   0.16666   0.00000  Uiso   1.00
O173   O     0.18453   0.71026   0.16667   0.00000  Uiso   1.00
O174   O     0.25000   0.78973   0.09511   0.00000  Uiso   1.00
O175   O     0.25000   0.71027   0.23822   0.00000  Uiso   1.00
O176   O     0.25000   0.78973   0.23822   0.00000  Uiso   1.00
O177   O     0.25000   0.71027   0.09511   0.00000  Uiso   1.00
O178   O     0.02621   0.81922   0.10313   0.00000  Uiso   1.00
Zn179  Zn    0.25000   0.80307   0.16667   0.00000  Uiso   1.00
Zn180  Zn    0.25000   0.69693   0.16667   0.00000  Uiso   1.00
C181   C     0.66389   0.75002   0.16621   0.00000  Uiso   1.00
C182   C     0.71445   0.94739   0.14560   0.00000  Uiso   1.00
C183   C     0.74999   0.75000   0.07285   0.00000  Uiso   1.00
C184   C     0.75001   0.75000   0.26048   0.00000  Uiso   1.00
C185   C     0.75000   0.52669   0.16666   0.00000  Uiso   1.00
C186   C     0.75000   0.97332   0.16666   0.00000  Uiso   1.00
C187   C     0.74999   0.74999   0.02178   0.00000  Uiso   1.00
C188   C     0.75000   0.74999   0.31155   0.00000  Uiso   1.00
C189   C     0.54848   0.78531   0.13065   0.00000  Uiso   1.00
C190   C     0.95121   0.71542   0.12966   0.00000  Uiso   1.00
C191   C     0.95451   0.78708   0.18131   0.00000  Uiso   1.00
C192   C     0.83612   0.75000   0.16625   0.00000  Uiso   1.00
C193   C     0.54529   0.71407   0.18253   0.00000  Uiso   1.00
C194   C     0.59480   0.78547   0.13530   0.00000  Uiso   1.00
C195   C     0.90529   0.71478   0.13533   0.00000  Uiso   1.00
C196   C     0.90814   0.78656   0.18488   0.00000  Uiso   1.00
C197   C     0.59171   0.71418   0.18575   0.00000  Uiso   1.00
C198   C     0.61603   0.75007   0.16276   0.00000  Uiso   1.00
C199   C     0.88397   0.75014   0.16267   0.00000  Uiso   1.00
C200   C     0.52415   0.74978   0.15488   0.00000  Uiso   1.00
C201   C     0.97588   0.75133   0.15386   0.00000  Uiso   1.00
C202   C     0.72961   0.60224   0.12887   0.00000  Uiso   1.00
C203   C     0.78482   0.89777   0.18746   0.00000  Uiso   1.00
C204   C     0.77038   0.60222   0.20447   0.00000  Uiso   1.00
C205   C     0.71518   0.89779   0.14587   0.00000  Uiso   1.00
C206   C     0.72934   0.55264   0.12806   0.00000  Uiso   1.00
C207   C     0.78555   0.94737   0.18772   0.00000  Uiso   1.00
C208   C     0.77065   0.55262   0.20527   0.00000  Uiso   1.00
H209   H     0.71356   0.62158   0.09900   0.00000  Uiso   1.00
H210   H     0.81419   0.96509   0.20372   0.00000  Uiso   1.00
H211   H     0.78644   0.53489   0.23643   0.00000  Uiso   1.00
H212   H     0.68581   0.96512   0.12959   0.00000  Uiso   1.00
H213   H     0.54834   0.84146   0.08881   0.00000  Uiso   1.00
H214   H     0.50191   0.68836   0.09369   0.00000  Uiso   1.00
H215   H     0.95949   0.84331   0.22281   0.00000  Uiso   1.00
H216   H     0.53998   0.65804   0.22416   0.00000  Uiso   1.00
H217   H     0.81234   0.87845   0.20384   0.00000  Uiso   1.00
H218   H     0.78644   0.62155   0.23434   0.00000  Uiso   1.00
H219   H     0.68767   0.87848   0.12947   0.00000  Uiso   1.00
H220   H     0.61430   0.81263   0.11698   0.00000  Uiso   1.00
H221   H     0.88609   0.68721   0.11725   0.00000  Uiso   1.00
H222   H     0.89100   0.81375   0.20592   0.00000  Uiso   1.00
H223   H     0.60878   0.68702   0.20693   0.00000  Uiso   1.00
H224   H     0.71355   0.53491   0.09690   0.00000  Uiso   1.00
N225   N     0.75000   0.62624   0.16667   0.00000  Uiso   1.00
N226   N     0.75000   0.87377   0.16667   0.00000  Uiso   1.00
O227   O     0.68453   0.78974   0.16667   0.00000  Uiso   1.00
O228   O     0.97037   0.68040   0.10084   0.00000  Uiso   1.00
O229   O     0.97974   0.82117   0.20520   0.00000  Uiso   1.00
O230   O     0.51985   0.68026   0.20648   0.00000  Uiso   1.00
O231   O     0.81547   0.71026   0.16666   0.00000  Uiso   1.00
O232   O     0.81547   0.78974   0.16666   0.00000  Uiso   1.00
O233   O     0.68453   0.71026   0.16667   0.00000  Uiso   1.00
O234   O     0.75000   0.78973   0.09511   0.00000  Uiso   1.00
O235   O     0.75000   0.71027   0.23822   0.00000  Uiso   1.00
O236   O     0.75000   0.78973   0.23822   0.00000  Uiso   1.00
O237   O     0.75000   0.71027   0.09511   0.00000  Uiso   1.00
O238   O     0.52621   0.81922   0.10313   0.00000  Uiso   1.00
Zn239  Zn    0.75000   0.80307   0.16667   0.00000  Uiso   1.00
Zn240  Zn    0.75000   0.69693   0.16667   0.00000  Uiso   1.00
C241   C     0.16389   0.25002   0.49954   0.00000  Uiso   1.00
C242   C     0.21445   0.44739   0.47893   0.00000  Uiso   1.00
C243   C     0.24999   0.25000   0.40618   0.00000  Uiso   1.00
C244   C     0.25001   0.25000   0.59382   0.00000  Uiso   1.00
C245   C     0.25000   0.02669   0.49999   0.00000  Uiso   1.00
C246   C     0.25000   0.47332   0.49999   0.00000  Uiso   1.00
C247   C     0.24999   0.24999   0.35512   0.00000  Uiso   1.00
C248   C     0.25000   0.24999   0.64489   0.00000  Uiso   1.00
C249   C     0.04848   0.28531   0.46399   0.00000  Uiso   1.00
C250   C     0.45121   0.21542   0.46300   0.00000  Uiso   1.00
C251   C     0.45451   0.28708   0.51465   0.00000  Uiso   1.00
C252   C     0.33612   0.25000   0.49959   0.00000  Uiso   1.00
C253   C     0.04529   0.21407   0.51587   0.00000  Uiso   1.00
C254   C     0.09480   0.28547   0.46864   0.00000  Uiso   1.00
C255   C     0.40529   0.21478   0.46867   0.00000  Uiso   1.00
C256   C     0.40814   0.28656   0.51821   0.00000  Uiso   1.00
C257   C     0.09171   0.21418   0.51908   0.00000  Uiso   1.00
C258   C     0.11603   0.25007   0.49610   0.00000  Uiso   1.00
C259   C     0.38397   0.25014   0.49600   0.00000  Uiso   1.00
C260   C     0.02415   0.24978   0.48821   0.00000  Uiso   1.00
C261   C     0.47588   0.25133   0.48719   0.00000  Uiso   1.00
C262   C     0.22961   0.10224   0.46220   0.00000  Uiso   1.00
C263   C     0.28482   0.39777   0.52079   0.00000  Uiso   1.00
C264   C     0.27038   0.10222   0.53780   0.00000  Uiso   1.00
C265   C     0.21518   0.39779   0.47920   0.00000  Uiso   1.00
C266   C     0.22934   0.05264   0.46139   0.00000  Uiso   1.00
C267   C     0.28555   0.44737   0.52105   0.00000  Uiso   1.00
C268   C     0.27065   0.05262   0.53860   0.00000  Uiso   1.00
H269   H     0.21356   0.12158   0.43233   0.00000  Uiso   1.00
H270   H     0.31419   0.46509   0.53706   0.00000  Uiso   1.00
H271   H     0.28644   0.03489   0.56976   0.00000  Uiso   1.00
H272   H     0.18581   0.46512   0.46292   0.00000  Uiso   1.00
H273   H     0.04834   0.34146   0.42214   0.00000  Uiso   1.00
H274   H     0.00191   0.18836   0.42702   0.00000  Uiso   1.00
H275   H     0.45949   0.34331   0.55614   0.00000  Uiso   1.00
H276   H     0.03998   0.15804   0.55750   0.00000  Uiso   1.00
H277   H     0.31234   0.37845   0.53718   0.00000  Uiso   1.00
H278   H     0.28644   0.12155   0.56767   0.00000  Uiso   1.00
H279   H     0.18767   0.37848   0.46281   0.00000  Uiso   1.00
H280   H     0.11430   0.31263   0.45031   0.00000  Uiso   1.00
H281   H     0.38609   0.18721   0.45059   0.00000  Uiso   1.00
H282   H     0.39100   0.31375   0.53925   0.00000  Uiso   1.00
H283   H     0.10878   0.18702   0.54026   0.00000  Uiso   1.00
H284   H     0.21355   0.03491   0.43023   0.00000  Uiso   1.00
N285   N     0.25000   0.12624   0.50000   0.00000  Uiso   1.00
N286   N     0.25000   0.37377   0.50000   0.00000  Uiso   1.00
O287   O     0.18453   0.28974   0.50000   0.00000  Uiso   1.00
O288   O     0.47037   0.18040   0.43417   0.00000  Uiso   1.00
O289   O     0.47974   0.32117   0.53853   0.00000  Uiso   1.00
O290   O     0.01985   0.18026   0.53981   0.00000  Uiso   1.00
O291   O     0.31547   0.21026   0.50000   0.00000  Uiso   1.00
O292   O     0.31547   0.28974   0.50000   0.00000  Uiso   1.00
O293   O     0.18453   0.21026   0.50000   0.00000  Uiso   1.00
O294   O     0.25000   0.28973   0.42845   0.00000  Uiso   1.00
O295   O     0.25000   0.21027   0.57155   0.00000  Uiso   1.00
O296   O     0.25000   0.28973   0.57155   0.00000  Uiso   1.00
O297   O     0.25000   0.21027   0.42845   0.00000  Uiso   1.00
O298   O     0.02621   0.31922   0.43647   0.00000  Uiso   1.00
Zn299  Zn    0.25000   0.30307   0.50000   0.00000  Uiso   1.00
Zn300  Zn    0.25000   0.19693   0.50000   0.00000  Uiso   1.00
C301   C     0.66389   0.25002   0.49954   0.00000  Uiso   1.00
C302   C     0.71445   0.44739   0.47893   0.00000  Uiso   1.00
C303   C     0.74999   0.25000   0.40618   0.00000  Uiso   1.00
C304   C     0.75001   0.25000   0.59382   0.00000  Uiso   1.00
C305   C     0.75000   0.02669   0.49999   0.00000  Uiso   1.00
C306   C     0.75000   0.47332   0.49999   0.00000  Uiso   1.00
C307   C     0.74999   0.24999   0.35512   0.00000  Uiso   1.00
C308   C     0.75000   0.24999   0.64489   0.00000  Uiso   1.00
C309   C     0.54848   0.28531   0.46399   0.00000  Uiso   1.00
C310   C     0.95121   0.21542   0.46300   0.00000  Uiso   1.00
C311   C     0.95451   0.28708   0.51465   0.00000  Uiso   1.00
C312   C     0.83612   0.25000   0.49959   0.00000  Uiso   1.00
C313   C     0.54529   0.21407   0.51587   0.00000  Uiso   1.00
C314   C     0.59480   0.28547   0.46864   0.00000  Uiso   1.00
C315   C     0.90529   0.21478   0.46867   0.00000  Uiso   1.00
C316   C     0.90814   0.28656   0.51821   0.00000  Uiso   1.00
C317   C     0.59171   0.21418   0.51908   0.00000  Uiso   1.00
C318   C     0.61603   0.25007   0.49610   0.00000  Uiso   1.00
C319   C     0.88397   0.25014   0.49600   0.00000  Uiso   1.00
C320   C     0.52415   0.24978   0.48821   0.00000  Uiso   1.00
C321   C     0.97588   0.25133   0.48719   0.00000  Uiso   1.00
C322   C     0.72961   0.10224   0.46220   0.00000  Uiso   1.00
C323   C     0.78482   0.39777   0.52079   0.00000  Uiso   1.00
C324   C     0.77038   0.10222   0.53780   0.00000  Uiso   1.00
C325   C     0.71518   0.39779   0.47920   0.00000  Uiso   1.00
C326   C     0.72934   0.05264   0.46139   0.00000  Uiso   1.00
C327   C     0.78555   0.44737   0.52105   0.00000  Uiso   1.00
C328   C     0.77065   0.05262   0.53860   0.00000  Uiso   1.00
H329   H     0.71356   0.12158   0.43233   0.00000  Uiso   1.00
H330   H     0.81419   0.46509   0.53706   0.00000  Uiso   1.00
H331   H     0.78644   0.03489   0.56976   0.00000  Uiso   1.00
H332   H     0.68581   0.46512   0.46292   0.00000  Uiso   1.00
H333   H     0.54834   0.34146   0.42214   0.00000  Uiso   1.00
H334   H     0.50191   0.18836   0.42702   0.00000  Uiso   1.00
H335   H     0.95949   0.34331   0.55614   0.00000  Uiso   1.00
H336   H     0.53998   0.15804   0.55750   0.00000  Uiso   1.00
H337   H     0.81234   0.37845   0.53718   0.00000  Uiso   1.00
H338   H     0.78644   0.12155   0.56767   0.00000  Uiso   1.00
H339   H     0.68767   0.37848   0.46281   0.00000  Uiso   1.00
H340   H     0.61430   0.31263   0.45031   0.00000  Uiso   1.00
H341   H     0.88609   0.18721   0.45059   0.00000  Uiso   1.00
H342   H     0.89100   0.31375   0.53925   0.00000  Uiso   1.00
H343   H     0.60878   0.18702   0.54026   0.00000  Uiso   1.00
H344   H     0.71355   0.03491   0.43023   0.00000  Uiso   1.00
N345   N     0.75000   0.12624   0.50000   0.00000  Uiso   1.00
N346   N     0.75000   0.37377   0.50000   0.00000  Uiso   1.00
O347   O     0.68453   0.28974   0.50000   0.00000  Uiso   1.00
O348   O     0.97037   0.18040   0.43417   0.00000  Uiso   1.00
O349   O     0.97974   0.32117   0.53853   0.00000  Uiso   1.00
O350   O     0.51985   0.18026   0.53981   0.00000  Uiso   1.00
O351   O     0.81547   0.21026   0.50000   0.00000  Uiso   1.00
O352   O     0.81547   0.28974   0.50000   0.00000  Uiso   1.00
O353   O     0.68453   0.21026   0.50000   0.00000  Uiso   1.00
O354   O     0.75000   0.28973   0.42845   0.00000  Uiso   1.00
O355   O     0.75000   0.21027   0.57155   0.00000  Uiso   1.00
O356   O     0.75000   0.28973   0.57155   0.00000  Uiso   1.00
O357   O     0.75000   0.21027   0.42845   0.00000  Uiso   1.00
O358   O     0.52621   0.31922   0.43647   0.00000  Uiso   1.00
Zn359  Zn    0.75000   0.30307   0.50000   0.00000  Uiso   1.00
Zn360  Zn    0.75000   0.19693   0.50000   0.00000  Uiso   1.00
C361   C     0.16389   0.75002   0.49954   0.00000  Uiso   1.00
C362   C     0.21445   0.94739   0.47893   0.00000  Uiso   1.00
C363   C     0.24999   0.75000   0.40618   0.00000  Uiso   1.00
C364   C     0.25001   0.75000   0.59382   0.00000  Uiso   1.00
C365   C     0.25000   0.52669   0.49999   0.00000  Uiso   1.00
C366   C     0.25000   0.97332   0.49999   0.00000  Uiso   1.00
C367   C     0.24999   0.74999   0.35512   0.00000  Uiso   1.00
C368   C     0.25000   0.74999   0.64489   0.00000  Uiso   1.00
C369   C     0.04848   0.78531   0.46399   0.00000  Uiso   1.00
C370   C     0.45121   0.71542   0.46300   0.00000  Uiso   1.00
C371   C     0.45451   0.78708   0.51465   0.00000  Uiso   1.00
C372   C     0.33612   0.75000   0.49959   0.00000  Uiso   1.00
C373   C     0.04529   0.71407   0.51587   0.00000  Uiso   1.00
C374   C     0.09480   0.78547   0.46864   0.00000  Uiso   1.00
C375   C     0.40529   0.71478   0.46867   0.00000  Uiso   1.00
C376   C     0.40814   0.78656   0.51821   0.00000  Uiso   1.00
C377   C     0.09171   0.71418   0.51908   0.00000  Uiso   1.00
C378   C     0.11603   0.75007   0.49610   0.00000  Uiso   1.00
C379   C     0.38397   0.75014   0.49600   0.00000  Uiso   1.00
C380   C     0.02415   0.74978   0.48821   0.00000  Uiso   1.00
C381   C     0.47588   0.75133   0.48719   0.00000  Uiso   1.00
C382   C     0.22961   0.60224   0.46220   0.00000  Uiso   1.00
C383   C     0.28482   0.89777   0.52079   0.00000  Uiso   1.00
C384   C     0.27038   0.60222   0.53780   0.00000  Uiso   1.00
C385   C     0.21518   0.89779   0.47920   0.00000  Uiso   1.00
C386   C     0.22934   0.55264   0.46139   0.00000  Uiso   1.00
C387   C     0.28555   0.94737   0.52105   0.00000  Uiso   1.00
C388   C     0.27065   0.55262   0.53860   0.00000  Uiso   1.00
H389   H     0.21356   0.62158   0.43233   0.00000  Uiso   1.00
H390   H     0.31419   0.96509   0.53706   0.00000  Uiso   1.00
H391   H     0.28644   0.53489   0.56976   0.00000  Uiso   1.00
H392   H     0.18581   0.96512   0.46292   0.00000  Uiso   1.00
H393   H     0.04834   0.84146   0.42214   0.00000  Uiso   1.00
H394   H     0.00191   0.68836   0.42702   0.00000  Uiso   1.00
H395   H     0.45949   0.84331   0.55614   0.00000  Uiso   1.00
H396   H     0.03998   0.65804   0.55750   0.00000  Uiso   1.00
H397   H     0.31234   0.87845   0.53718   0.00000  Uiso   1.00
H398   H     0.28644   0.62155   0.56767   0.00000  Uiso   1.00
H399   H     0.18767   0.87848   0.46281   0.00000  Uiso   1.00
H400   H     0.11430   0.81263   0.45031   0.00000  Uiso   1.00
H401   H     0.38609   0.68721   0.45059   0.00000  Uiso   1.00
H402   H     0.39100   0.81375   0.53925   0.00000  Uiso   1.00
H403   H     0.10878   0.68702   0.54026   0.00000  Uiso   1.00
H404   H     0.21355   0.53491   0.43023   0.00000  Uiso   1.00
N405   N     0.25000   0.62624   0.50000   0.00000  Uiso   1.00
N406   N     0.25000   0.87377   0.50000   0.00000  Uiso   1.00
O407   O     0.18453   0.78974   0.50000   0.00000  Uiso   1.00
O408   O     0.47037   0.68040   0.43417   0.00000  Uiso   1.00
O409   O     0.47974   0.82117   0.53853   0.00000  Uiso   1.00
O410   O     0.01985   0.68026   0.53981   0.00000  Uiso   1.00
O411   O     0.31547   0.71026   0.50000   0.00000  Uiso   1.00
O412   O     0.31547   0.78974   0.50000   0.00000  Uiso   1.00
O413   O     0.18453   0.71026   0.50000   0.00000  Uiso   1.00
O414   O     0.25000   0.78973   0.42845   0.00000  Uiso   1.00
O415   O     0.25000   0.71027   0.57155   0.00000  Uiso   1.00
O416   O     0.25000   0.78973   0.57155   0.00000  Uiso   1.00
O417   O     0.25000   0.71027   0.42845   0.00000  Uiso   1.00
O418   O     0.02621   0.81922   0.43647   0.00000  Uiso   1.00
Zn419  Zn    0.25000   0.80307   0.50000   0.00000  Uiso   1.00
Zn420  Zn    0.25000   0.69693   0.50000   0.00000  Uiso   1.00
C421   C     0.66389   0.75002   0.49954   0.00000  Uiso   1.00
C422   C     0.71445   0.94739   0.47893   0.00000  Uiso   1.00
C423   C     0.74999   0.75000   0.40618   0.00000  Uiso   1.00
C424   C     0.75001   0.75000   0.59382   0.00000  Uiso   1.00
C425   C     0.75000   0.52669   0.49999   0.00000  Uiso   1.00
C426   C     0.75000   0.97332   0.49999   0.00000  Uiso   1.00
C427   C     0.74999   0.74999   0.35512   0.00000  Uiso   1.00
C428   C     0.75000   0.74999   0.64489   0.00000  Uiso   1.00
C429   C     0.54848   0.78531   0.46399   0.00000  Uiso   1.00
C430   C     0.95121   0.71542   0.46300   0.00000  Uiso   1.00
C431   C     0.95451   0.78708   0.51465   0.00000  Uiso   1.00
C432   C     0.83612   0.75000   0.49959   0.00000  Uiso   1.00
C433   C     0.54529   0.71407   0.51587   0.00000  Uiso   1.00
C434   C     0.59480   0.78547   0.46864   0.00000  Uiso   1.00
C435   C     0.90529   0.71478   0.46867   0.00000  Uiso   1.00
C436   C     0.90814   0.78656   0.51821   0.00000  Uiso   1.00
C437   C     0.59171   0.71418   0.51908   0.00000  Uiso   1.00
C438   C     0.61603   0.75007   0.49610   0.00000  Uiso   1.00
C439   C     0.88397   0.75014   0.49600   0.00000  Uiso   1.00
C440   C     0.52415   0.74978   0.48821   0.00000  Uiso   1.00
C441   C     0.97588   0.75133   0.48719   0.00000  Uiso   1.00
C442   C     0.72961   0.60224   0.46220   0.00000  Uiso   1.00
C443   C     0.78482   0.89777   0.52079   0.00000  Uiso   1.00
C444   C     0.77038   0.60222   0.53780   0.00000  Uiso   1.00
C445   C     0.71518   0.89779   0.47920   0.00000  Uiso   1.00
C446   C     0.72934   0.55264   0.46139   0.00000  Uiso   1.00
C447   C     0.78555   0.94737   0.52105   0.00000  Uiso   1.00
C448   C     0.77065   0.55262   0.53860   0.00000  Uiso   1.00
H449   H     0.71356   0.62158   0.43233   0.00000  Uiso   1.00
H450   H     0.81419   0.96509   0.53706   0.00000  Uiso   1.00
H451   H     0.78644   0.53489   0.56976   0.00000  Uiso   1.00
H452   H     0.68581   0.96512   0.46292   0.00000  Uiso   1.00
H453   H     0.54834   0.84146   0.42214   0.00000  Uiso   1.00
H454   H     0.50191   0.68836   0.42702   0.00000  Uiso   1.00
H455   H     0.95949   0.84331   0.55614   0.00000  Uiso   1.00
H456   H     0.53998   0.65804   0.55750   0.00000  Uiso   1.00
H457   H     0.81234   0.87845   0.53718   0.00000  Uiso   1.00
H458   H     0.78644   0.62155   0.56767   0.00000  Uiso   1.00
H459   H     0.68767   0.87848   0.46281   0.00000  Uiso   1.00
H460   H     0.61430   0.81263   0.45031   0.00000  Uiso   1.00
H461   H     0.88609   0.68721   0.45059   0.00000  Uiso   1.00
H462   H     0.89100   0.81375   0.53925   0.00000  Uiso   1.00
H463   H     0.60878   0.68702   0.54026   0.00000  Uiso   1.00
H464   H     0.71355   0.53491   0.43023   0.00000  Uiso   1.00
N465   N     0.75000   0.62624   0.50000   0.00000  Uiso   1.00
N466   N     0.75000   0.87377   0.50000   0.00000  Uiso   1.00
O467   O     0.68453   0.78974   0.50000   0.00000  Uiso   1.00
O468   O     0.97037   0.68040   0.43417   0.00000  Uiso   1.00
O469   O     0.97974   0.82117   0.53853   0.00000  Uiso   1.00
O470   O     0.51985   0.68026   0.53981   0.00000  Uiso   1.00
O471   O     0.81547   0.71026   0.50000   0.00000  Uiso   1.00
O472   O     0.81547   0.78974   0.50000   0.00000  Uiso   1.00
O473   O     0.68453   0.71026   0.50000   0.00000  Uiso   1.00
O474   O     0.75000   0.78973   0.42845   0.00000  Uiso   1.00
O475   O     0.75000   0.71027   0.57155   0.00000  Uiso   1.00
O476   O     0.75000   0.78973   0.57155   0.00000  Uiso   1.00
O477   O     0.75000   0.71027   0.42845   0.00000  Uiso   1.00
O478   O     0.52621   0.81922   0.43647   0.00000  Uiso   1.00
Zn479  Zn    0.75000   0.80307   0.50000   0.00000  Uiso   1.00
Zn480  Zn    0.75000   0.69693   0.50000   0.00000  Uiso   1.00
C481   C     0.16389   0.25002   0.83288   0.00000  Uiso   1.00
C482   C     0.21445   0.44739   0.81227   0.00000  Uiso   1.00
C483   C     0.24999   0.25000   0.73952   0.00000  Uiso   1.00
C484   C     0.25001   0.25000   0.92715   0.00000  Uiso   1.00
C485   C     0.25000   0.02669   0.83333   0.00000  Uiso   1.00
C486   C     0.25000   0.47332   0.83333   0.00000  Uiso   1.00
C487   C     0.24999   0.24999   0.68845   0.00000  Uiso   1.00
C488   C     0.25000   0.24999   0.97822   0.00000  Uiso   1.00
C489   C     0.04848   0.28531   0.79732   0.00000  Uiso   1.00
C490   C     0.45121   0.21542   0.79633   0.00000  Uiso   1.00
C491   C     0.45451   0.28708   0.84798   0.00000  Uiso   1.00
C492   C     0.33612   0.25000   0.83292   0.00000  Uiso   1.00
C493   C     0.04529   0.21407   0.84920   0.00000  Uiso   1.00
C494   C     0.09480   0.28547   0.80197   0.00000  Uiso   1.00
C495   C     0.40529   0.21478   0.80200   0.00000  Uiso   1.00
C496   C     0.40814   0.28656   0.85155   0.00000  Uiso   1.00
C497   C     0.09171   0.21418   0.85241   0.00000  Uiso   1.00
C498   C     0.11603   0.25007   0.82943   0.00000  Uiso   1.00
C499   C     0.38397   0.25014   0.82933   0.00000  Uiso   1.00
C500   C     0.02415   0.24978   0.82154   0.00000  Uiso   1.00
C501   C     0.47588   0.25133   0.82052   0.00000  Uiso   1.00
C502   C     0.22961   0.10224   0.79553   0.00000  Uiso   1.00
C503   C     0.28482   0.39777   0.85412   0.00000  Uiso   1.00
C504   C     0.27038   0.10222   0.87113   0.00000  Uiso   1.00
C505   C     0.21518   0.39779   0.81253   0.00000  Uiso   1.00
C506   C     0.22934   0.05264   0.79472   0.00000  Uiso   1.00
C507   C     0.28555   0.44737   0.85438   0.00000  Uiso   1.00
C508   C     0.27065   0.05262   0.87194   0.00000  Uiso   1.00
H509   H     0.21356   0.12158   0.76566   0.00000  Uiso   1.00
H510   H     0.31419   0.46509   0.87039   0.00000  Uiso   1.00
H511   H     0.28644   0.03489   0.90309   0.00000  Uiso   1.00
H512   H     0.18581   0.46512   0.79625   0.00000  Uiso   1.00
H513   H     0.04834   0.34146   0.75548   0.00000  Uiso   1.00
H514   H     0.00191   0.18836   0.76036   0.00000  Uiso   1.00
H515   H     0.45949   0.34331   0.88947   0.00000  Uiso   1.00
H516   H     0.03998   0.15804   0.89083   0.00000  Uiso   1.00
H517   H     0.31234   0.37845   0.87051   0.00000  Uiso   1.00
H518   H     0.28644   0.12155   0.90100   0.00000  Uiso   1.00
H519   H     0.18767   0.37848   0.79614   0.00000  Uiso   1.00
H520   H     0.11430   0.31263   0.78364   0.00000  Uiso   1.00
H521   H     0.38609   0.18721   0.78392   0.00000  Uiso   1.00
H522   H     0.39100   0.31375   0.87258   0.00000  Uiso   1.00
H523   H     0.10878   0.18702   0.87360   0.00000  Uiso   1.00
H524   H     0.21355   0.03491   0.76357   0.00000  Uiso   1.00
N525   N     0.25000   0.12624   0.83333   0.00000  Uiso   1.00
N526   N     0.25000   0.37377   0.83333   0.00000  Uiso   1.00
O527   O     0.18453   0.28974   0.83334   0.00000  Uiso   1.00
O528   O     0.47037   0.18040   0.76751   0.00000  Uiso   1.00
O529   O     0.47974   0.32117   0.87186   0.00000  Uiso   1.00
O530   O     0.01985   0.18026   0.87315   0.00000  Uiso   1.00
O531   O     0.31547   0.21026   0.83333   0.00000  Uiso   1.00
O532   O     0.31547   0.28974   0.83333   0.00000  Uiso   1.00
O533   O     0.18453   0.21026   0.83334   0.00000  Uiso   1.00
O534   O     0.25000   0.28973   0.76178   0.00000  Uiso   1.00
O535   O     0.25000   0.21027   0.90489   0.00000  Uiso   1.00
O536   O     0.25000   0.28973   0.90489   0.00000  Uiso   1.00
O537   O     0.25000   0.21027   0.76178   0.00000  Uiso   1.00
O538   O     0.02621   0.31922   0.76980   0.00000  Uiso   1.00
Zn539  Zn    0.25000   0.30307   0.83333   0.00000  Uiso   1.00
Zn540  Zn    0.25000   0.19693   0.83333   0.00000  Uiso   1.00
C541   C     0.66389   0.25002   0.83288   0.00000  Uiso   1.00
C542   C     0.71445   0.44739   0.81227   0.00000  Uiso   1.00
C543   C     0.74999   0.25000   0.73952   0.00000  Uiso   1.00
C544   C     0.75001   0.25000   0.92715   0.00000  Uiso   1.00
C545   C     0.75000   0.02669   0.83333   0.00000  Uiso   1.00
C546   C     0.75000   0.47332   0.83333   0.00000  Uiso   1.00
C547   C     0.74999   0.24999   0.68845   0.00000  Uiso   1.00
C548   C     0.75000   0.24999   0.97822   0.00000  Uiso   1.00
C549   C     0.54848   0.28531   0.79732   0.00000  Uiso   1.00
C550   C     0.95121   0.21542   0.79633   0.00000  Uiso   1.00
C551   C     0.95451   0.28708   0.84798   0.00000  Uiso   1.00
C552   C     0.83612   0.25000   0.83292   0.00000  Uiso   1.00
C553   C     0.54529   0.21407   0.84920   0.00000  Uiso   1.00
C554   C     0.59480   0.28547   0.80197   0.00000  Uiso   1.00
C555   C     0.90529   0.21478   0.80200   0.00000  Uiso   1.00
C556   C     0.90814   0.28656   0.85155   0.00000  Uiso   1.00
C557   C     0.59171   0.21418   0.85241   0.00000  Uiso   1.00
C558   C     0.61603   0.25007   0.82943   0.00000  Uiso   1.00
C559   C     0.88397   0.25014   0.82933   0.00000  Uiso   1.00
C560   C     0.52415   0.24978   0.82154   0.00000  Uiso   1.00
C561   C     0.97588   0.25133   0.82052   0.00000  Uiso   1.00
C562   C     0.72961   0.10224   0.79553   0.00000  Uiso   1.00
C563   C     0.78482   0.39777   0.85412   0.00000  Uiso   1.00
C564   C     0.77038   0.10222   0.87113   0.00000  Uiso   1.00
C565   C     0.71518   0.39779   0.81253   0.00000  Uiso   1.00
C566   C     0.72934   0.05264   0.79472   0.00000  Uiso   1.00
C567   C     0.78555   0.44737   0.85438   0.00000  Uiso   1.00
C568   C     0.77065   0.05262   0.87194   0.00000  Uiso   1.00
H569   H     0.71356   0.12158   0.76566   0.00000  Uiso   1.00
H570   H     0.81419   0.46509   0.87039   0.00000  Uiso   1.00
H571   H     0.78644   0.03489   0.90309   0.00000  Uiso   1.00
H572   H     0.68581   0.46512   0.79625   0.00000  Uiso   1.00
H573   H     0.54834   0.34146   0.75548   0.00000  Uiso   1.00
H574   H     0.50191   0.18836   0.76036   0.00000  Uiso   1.00
H575   H     0.95949   0.34331   0.88947   0.00000  Uiso   1.00
H576   H     0.53998   0.15804   0.89083   0.00000  Uiso   1.00
H577   H     0.81234   0.37845   0.87051   0.00000  Uiso   1.00
H578   H     0.78644   0.12155   0.90100   0.00000  Uiso   1.00
H579   H     0.68767   0.37848   0.79614   0.00000  Uiso   1.00
H580   H     0.61430   0.31263   0.78364   0.00000  Uiso   1.00
H581   H     0.88609   0.18721   0.78392   0.00000  Uiso   1.00
H582   H     0.89100   0.31375   0.87258   0.00000  Uiso   1.00
H583   H     0.60878   0.18702   0.87360   0.00000  Uiso   1.00
H584   H     0.71355   0.03491   0.76357   0.00000  Uiso   1.00
N585   N     0.75000   0.12624   0.83333   0.00000  Uiso   1.00
N586   N     0.75000   0.37377   0.83333   0.00000  Uiso   1.00
O587   O     0.68453   0.28974   0.83334   0.00000  Uiso   1.00
O588   O     0.97037   0.18040   0.76751   0.00000  Uiso   1.00
O589   O     0.97974   0.32117   0.87186   0.00000  Uiso   1.00
O590   O     0.51985   0.18026   0.87315   0.00000  Uiso   1.00
O591   O     0.81547   0.21026   0.83333   0.00000  Uiso   1.00
O592   O     0.81547   0.28974   0.83333   0.00000  Uiso   1.00
O593   O     0.68453   0.21026   0.83334   0.00000  Uiso   1.00
O594   O     0.75000   0.28973   0.76178   0.00000  Uiso   1.00
O595   O     0.75000   0.21027   0.90489   0.00000  Uiso   1.00
O596   O     0.75000   0.28973   0.90489   0.00000  Uiso   1.00
O597   O     0.75000   0.21027   0.76178   0.00000  Uiso   1.00
O598   O     0.52621   0.31922   0.76980   0.00000  Uiso   1.00
Zn599  Zn    0.75000   0.30307   0.83333   0.00000  Uiso   1.00
Zn600  Zn    0.75000   0.19693   0.83333   0.00000  Uiso   1.00
C601   C     0.16389   0.75002   0.83288   0.00000  Uiso   1.00
C602   C     0.21445   0.94739   0.81227   0.00000  Uiso   1.00
C603   C     0.24999   0.75000   0.73952   0.00000  Uiso   1.00
C604   C     0.25001   0.75000   0.92715   0.00000  Uiso   1.00
C605   C     0.25000   0.52669   0.83333   0.00000  Uiso   1.00
C606   C     0.25000   0.97332   0.83333   0.00000  Uiso   1.00
C607   C     0.24999   0.74999   0.68845   0.00000  Uiso   1.00
C608   C     0.25000   0.74999   0.97822   0.00000  Uiso   1.00
C609   C     0.04848   0.78531   0.79732   0.00000  Uiso   1.00
C610   C     0.45121   0.71542   0.79633   0.00000  Uiso   1.00
C611   C     0.45451   0.78708   0.84798   0.00000  Uiso   1.00
C612   C     0.33612   0.75000   0.83292   0.00000  Uiso   1.00
C613   C     0.04529   0.71407   0.84920   0.00000  Uiso   1.00
C614   C     0.09480   0.78547   0.80197   0.00000  Uiso   1.00
C615   C     0.40529   0.71478   0.80200   0.00000  Uiso   1.00
C616   C     0.40814   0.78656   0.85155   0.00000  Uiso   1.00
C617   C     0.09171   0.71418   0.85241   0.00000  Uiso   1.00
C618   C     0.11603   0.75007   0.82943   0.00000  Uiso   1.00
C619   C     0.38397   0.75014   0.82933   0.00000  Uiso   1.00
C620   C     0.02415   0.74978   0.82154   0.00000  Uiso   1.00
C621   C     0.47588   0.75133   0.82052   0.00000  Uiso   1.00
C622   C     0.22961   0.60224   0.79553   0.00000  Uiso   1.00
C623   C     0.28482   0.89777   0.85412   0.00000  Uiso   1.00
C624   C     0.27038   0.60222   0.87113   0.00000  Uiso   1.00
C625   C     0.21518   0.89779   0.81253   0.00000  Uiso   1.00
C626   C     0.22934   0.55264   0.79472   0.00000  Uiso   1.00
C627   C     0.28555   0.94737   0.85438   0.00000  Uiso   1.00
C628   C     0.27065   0.55262   0.87194   0.00000  Uiso   1.00
H629   H     0.21356   0.62158   0.76566   0.00000  Uiso   1.00
H630   H     0.31419   0.96509   0.87039   0.00000  Uiso   1.00
H631   H     0.28644   0.53489   0.90309   0.00000  Uiso   1.00
H632   H     0.18581   0.96512   0.79625   0.00000  Uiso   1.00
H633   H     0.04834   0.84146   0.75548   0.00000  Uiso   1.00
H634   H     0.00191   0.68836   0.76036   0.00000  Uiso   1.00
H635   H     0.45949   0.84331   0.88947   0.00000  Uiso   1.00
H636   H     0.03998   0.65804   0.89083   0.00000  Uiso   1.00
H637   H     0.31234   0.87845   0.87051   0.00000  Uiso   1.00
H638   H     0.28644   0.62155   0.90100   0.00000  Uiso   1.00
H639   H     0.18767   0.87848   0.79614   0.00000  Uiso   1.00
H640   H     0.11430   0.81263   0.78364   0.00000  Uiso   1.00
H641   H     0.38609   0.68721   0.78392   0.00000  Uiso   1.00
H642   H     0.39100   0.81375   0.87258   0.00000  Uiso   1.00
H643   H     0.10878   0.68702   0.87360   0.00000  Uiso   1.00
H644   H     0.21355   0.53491   0.76357   0.00000  Uiso   1.00
N645   N     0.25000   0.62624   0.83333   0.00000  Uiso   1.00
N646   N     0.25000   0.87377   0.83333   0.00000  Uiso   1.00
O647   O     0.18453   0.78974   0.83334   0.00000  Uiso   1.00
O648   O     0.47037   0.68040   0.76751   0.00000  Uiso   1.00
O649   O     0.47974   0.82117   0.87186   0.00000  Uiso   1.00
O650   O     0.01985   0.68026   0.87315   0.00000  Uiso   1.00
O651   O     0.31547   0.71026   0.83333   0.00000  Uiso   1.00
O652   O     0.31547   0.78974   0.83333   0.00000  Uiso   1.00
O653   O     0.18453   0.71026   0.83334   0.00000  Uiso   1.00
O654   O     0.25000   0.78973   0.76178   0.00000  Uiso   1.00
O655   O     0.25000   0.71027   0.90489   0.00000  Uiso   1.00
O656   O     0.25000   0.78973   0.90489   0.00000  Uiso   1.00
O657   O     0.25000   0.71027   0.76178   0.00000  Uiso   1.00
O658   O     0.02621   0.81922   0.76980   0.00000  Uiso   1.00
Zn659  Zn    0.25000   0.80307   0.83333   0.00000  Uiso   1.00
Zn660  Zn    0.25000   0.69693   0.83333   0.00000  Uiso   1.00
C661   C     0.66389   0.75002   0.83288   0.00000  Uiso   1.00
C662   C     0.71445   0.94739   0.81227   0.00000  Uiso   1.00
C663   C     0.74999   0.75000   0.73952   0.00000  Uiso   1.00
C664   C     0.75001   0.75000   0.92715   0.00000  Uiso   1.00
C665   C     0.75000   0.52669   0.83333   0.00000  Uiso   1.00
C666   C     0.75000   0.97332   0.83333   0.00000  Uiso   1.00
C667   C     0.74999   0.74999   0.68845   0.00000  Uiso   1.00
C668   C     0.75000   0.74999   0.97822   0.00000  Uiso   1.00
C669   C     0.54848   0.78531   0.79732   0.00000  Uiso   1.00
C670   C     0.95121   0.71542   0.79633   0.00000  Uiso   1.00
C671   C     0.95451   0.78708   0.84798   0.00000  Uiso   1.00
C672   C     0.83612   0.75000   0.83292   0.00000  Uiso   1.00
C673   C     0.54529   0.71407   0.84920   0.00000  Uiso   1.00
C674   C     0.59480   0.78547   0.80197   0.00000  Uiso   1.00
C675   C     0.90529   0.71478   0.80200   0.00000  Uiso   1.00
C676   C     0.90814   0.78656   0.85155   0.00000  Uiso   1.00
C677   C     0.59171   0.71418   0.85241   0.00000  Uiso   1.00
C678   C     0.61603   0.75007   0.82943   0.00000  Uiso   1.00
C679   C     0.88397   0.75014   0.82933   0.00000  Uiso   1.00
C680   C     0.52415   0.74978   0.82154   0.00000  Uiso   1.00
C681   C     0.97588   0.75133   0.82052   0.00000  Uiso   1.00
C682   C     0.72961   0.60224   0.79553   0.00000  Uiso   1.00
C683   C     0.78482   0.89777   0.85412   0.00000  Uiso   1.00
C684   C     0.77038   0.60222   0.87113   0.00000  Uiso   1.00
C685   C     0.71518   0.89779   0.81253   0.00000  Uiso   1.00
C686   C     0.72934   0.55264   0.79472   0.00000  Uiso   1.00
C687   C     0.78555   0.94737   0.85438   0.00000  Uiso   1.00
C688   C     0.77065   0.55262   0.87194   0.00000  Uiso   1.00
H689   H     0.71356   0.62158   0.76566   0.00000  Uiso   1.00
H690   H     0.81419   0.96509   0.87039   0.00000  Uiso   1.00
H691   H     0.78644   0.53489   0.90309   0.00000  Uiso   1.00
H692   H     0.68581   0.96512   0.79625   0.00000  Uiso   1.00
H693   H     0.54834   0.84146   0.75548   0.00000  Uiso   1.00
H694   H     0.50191   0.68836   0.76036   0.00000  Uiso   1.00
H695   H     0.95949   0.84331   0.88947   0.00000  Uiso   1.00
H696   H     0.53998   0.65804   0.89083   0.00000  Uiso   1.00
H697   H     0.81234   0.87845   0.87051   0.00000  Uiso   1.00
H698   H     0.78644   0.62155   0.90100   0.00000  Uiso   1.00
H699   H     0.68767   0.87848   0.79614   0.00000  Uiso   1.00
H700   H     0.61430   0.81263   0.78364   0.00000  Uiso   1.00
H701   H     0.88609   0.68721   0.78392   0.00000  Uiso   1.00
H702   H     0.89100   0.81375   0.87258   0.00000  Uiso   1.00
H703   H     0.60878   0.68702   0.87360   0.00000  Uiso   1.00
H704   H     0.71355   0.53491   0.76357   0.00000  Uiso   1.00
N705   N     0.75000   0.62624   0.83333   0.00000  Uiso   1.00
N706   N     0.75000   0.87377   0.83333   0.00000  Uiso   1.00
O707   O     0.68453   0.78974   0.83334   0.00000  Uiso   1.00
O708   O     0.97037   0.68040   0.76751   0.00000  Uiso   1.00
O709   O     0.97974   0.82117   0.87186   0.00000  Uiso   1.00
O710   O     0.51985   0.68026   0.87315   0.00000  Uiso   1.00
O711   O     0.81547   0.71026   0.83333   0.00000  Uiso   1.00
O712   O     0.81547   0.78974   0.83333   0.00000  Uiso   1.00
O713   O     0.68453   0.71026   0.83334   0.00000  Uiso   1.00
O714   O     0.75000   0.78973   0.76178   0.00000  Uiso   1.00
O715   O     0.75000   0.71027   0.90489   0.00000  Uiso   1.00
O716   O     0.75000   0.78973   0.90489   0.00000  Uiso   1.00
O717   O     0.75000   0.71027   0.76178   0.00000  Uiso   1.00
O718   O     0.52621   0.81922   0.76980   0.00000  Uiso   1.00
Zn719  Zn    0.75000   0.80307   0.83333   0.00000  Uiso   1.00
Zn720  Zn    0.75000   0.69693   0.83333   0.00000  Uiso   1.00
loop_
_geom_bond_atom_site_label_1
_geom_bond_atom_site_label_2
_geom_bond_distance
_geom_bond_site_symmetry_2
_ccdc_geom_bond_type
C1     C18     1.435   .     S
C1     O53     1.286   .     A
C1     O47     1.285   .     A
C2     C6      1.411   .     A
C2     C25     1.407   .     A
C2     H32     1.082   .     S
C3     O57     1.275   .     A
C3     C7      1.366   .     S
C3     O54     1.275   .     A
C4     C8      1.366   .     S
C4     O55     1.275   .     A
C4     O56     1.275   .     A
C5     C28     1.411   .     A
C5     C26     1.411   .     A
C5     C126    1.514   1_545 S
C6     C27     1.411   .     A
C6     C125    1.514   .     S
C7     C488    1.166   1_554 S
C8     C247    1.166   .     S
C9     C14     1.392   .     A
C9     C20     1.402   .     A
C9     O58     1.382   .     S
C10    C21     1.415   .     A
C10    O48     1.382   .     S
C10    C15     1.383   .     A
C11    O49     1.383   .     S
C11    C16     1.391   .     A
C11    C21     1.406   .     A
C12    O51     1.286   .     A
C12    C19     1.435   .     S
C12    O52     1.285   .     A
C13    C17     1.392   .     A
C13    O50     1.382   .     S
C13    C20     1.405   .     A
C14    C18     1.397   .     A
C14    H40     1.084   .     S
C15    C19     1.396   .     A
C15    H41     1.084   .     S
C16    C19     1.394   .     A
C16    H42     1.084   .     S
C17    H43     1.084   .     S
C17    C18     1.395   .     A
C20    C81     1.445   1_455 S
C21    C80     1.445   .     S
C22    H29     1.082   .     S
C22    N45     1.363   .     A
C22    C26     1.407   .     A
C23    C27     1.407   .     A
C23    N46     1.363   .     A
C23    H37     1.082   .     S
C24    H38     1.082   .     S
C24    C28     1.407   .     A
C24    N45     1.363   .     A
C25    N46     1.363   .     A
C25    H39     1.082   .     S
C26    H44     1.082   .     S
C27    H30     1.082   .     S
C28    H31     1.082   .     S
H33    O58     0.992   .     S
H34    O108    0.989   1_455 S
H35    O49     0.992   .     S
H36    O50     0.992   .     S
N45    Zn60    2.006   .     S
N46    Zn59    2.006   .     S
O47    Zn59    1.995   .     S
O48    H94     0.989   .     S
O51    Zn60    1.995   .     S
O52    Zn59    1.995   .     S
O53    Zn60    1.995   .     S
O54    Zn59    1.951   .     S
O55    Zn60    1.951   .     S
O56    Zn59    1.951   .     S
O57    Zn60    1.951   .     S
C61    C78     1.435   .     S
C61    O113    1.286   .     A
C61    O107    1.285   .     A
C62    C66     1.411   .     A
C62    C85     1.407   .     A
C62    H92     1.082   .     S
C63    O117    1.275   .     A
C63    C67     1.366   .     S
C63    O114    1.275   .     A
C64    C68     1.366   .     S
C64    O115    1.275   .     A
C64    O116    1.275   .     A
C65    C88     1.411   .     A
C65    C86     1.411   .     A
C65    C186    1.514   1_545 S
C66    C87     1.411   .     A
C66    C185    1.514   .     S
C67    C548    1.166   1_554 S
C68    C307    1.166   .     S
C69    C74     1.392   .     A
C69    C80     1.402   .     A
C69    O118    1.382   .     S
C70    C81     1.415   .     A
C70    O108    1.382   .     S
C70    C75     1.383   .     A
C71    O109    1.383   .     S
C71    C76     1.391   .     A
C71    C81     1.406   .     A
C72    O111    1.286   .     A
C72    C79     1.435   .     S
C72    O112    1.285   .     A
C73    C77     1.392   .     A
C73    O110    1.382   .     S
C73    C80     1.405   .     A
C74    C78     1.397   .     A
C74    H100    1.084   .     S
C75    C79     1.396   .     A
C75    H101    1.084   .     S
C76    C79     1.394   .     A
C76    H102    1.084   .     S
C77    H103    1.084   .     S
C77    C78     1.395   .     A
C81    C20     1.445   1_655 S
C82    H89     1.082   .     S
C82    N105    1.363   .     A
C82    C86     1.407   .     A
C83    C87     1.407   .     A
C83    N106    1.363   .     A
C83    H97     1.082   .     S
C84    H98     1.082   .     S
C84    C88     1.407   .     A
C84    N105    1.363   .     A
C85    N106    1.363   .     A
C85    H99     1.082   .     S
C86    H104    1.082   .     S
C87    H90     1.082   .     S
C88    H91     1.082   .     S
H93    O118    0.992   .     S
H95    O109    0.992   .     S
H96    O110    0.992   .     S
N105   Zn120   2.006   .     S
N106   Zn119   2.006   .     S
O107   Zn119   1.995   .     S
O108   H34     0.989   1_655 S
O111   Zn120   1.995   .     S
O112   Zn119   1.995   .     S
O113   Zn120   1.995   .     S
O114   Zn119   1.951   .     S
O115   Zn120   1.951   .     S
O116   Zn119   1.951   .     S
O117   Zn120   1.951   .     S
C121   C138    1.435   .     S
C121   O173    1.286   .     A
C121   O167    1.285   .     A
C122   C126    1.411   .     A
C122   C145    1.407   .     A
C122   H152    1.082   .     S
C123   O177    1.275   .     A
C123   C127    1.366   .     S
C123   O174    1.275   .     A
C124   C128    1.366   .     S
C124   O175    1.275   .     A
C124   O176    1.275   .     A
C125   C148    1.411   .     A
C125   C146    1.411   .     A
C126   C147    1.411   .     A
C126   C5      1.514   1_565 S
C127   C608    1.166   1_554 S
C128   C367    1.166   .     S
C129   C134    1.392   .     A
C129   C140    1.402   .     A
C129   O178    1.382   .     S
C130   C141    1.415   .     A
C130   O168    1.382   .     S
C130   C135    1.383   .     A
C131   O169    1.383   .     S
C131   C136    1.391   .     A
C131   C141    1.406   .     A
C132   O171    1.286   .     A
C132   C139    1.435   .     S
C132   O172    1.285   .     A
C133   C137    1.392   .     A
C133   O170    1.382   .     S
C133   C140    1.405   .     A
C134   C138    1.397   .     A
C134   H160    1.084   .     S
C135   C139    1.396   .     A
C135   H161    1.084   .     S
C136   C139    1.394   .     A
C136   H162    1.084   .     S
C137   H163    1.084   .     S
C137   C138    1.395   .     A
C140   C201    1.445   1_455 S
C141   C200    1.445   .     S
C142   H149    1.082   .     S
C142   N165    1.363   .     A
C142   C146    1.407   .     A
C143   C147    1.407   .     A
C143   N166    1.363   .     A
C143   H157    1.082   .     S
C144   H158    1.082   .     S
C144   C148    1.407   .     A
C144   N165    1.363   .     A
C145   N166    1.363   .     A
C145   H159    1.082   .     S
C146   H164    1.082   .     S
C147   H150    1.082   .     S
C148   H151    1.082   .     S
H153   O178    0.992   .     S
H154   O228    0.989   1_455 S
H155   O169    0.992   .     S
H156   O170    0.992   .     S
N165   Zn180   2.006   .     S
N166   Zn179   2.006   .     S
O167   Zn179   1.995   .     S
O168   H214    0.989   .     S
O171   Zn180   1.995   .     S
O172   Zn179   1.995   .     S
O173   Zn180   1.995   .     S
O174   Zn179   1.951   .     S
O175   Zn180   1.951   .     S
O176   Zn179   1.951   .     S
O177   Zn180   1.951   .     S
C181   C198    1.435   .     S
C181   O233    1.286   .     A
C181   O227    1.285   .     A
C182   C186    1.411   .     A
C182   C205    1.407   .     A
C182   H212    1.082   .     S
C183   O237    1.275   .     A
C183   C187    1.366   .     S
C183   O234    1.275   .     A
C184   C188    1.366   .     S
C184   O235    1.275   .     A
C184   O236    1.275   .     A
C185   C208    1.411   .     A
C185   C206    1.411   .     A
C186   C207    1.411   .     A
C186   C65     1.514   1_565 S
C187   C668    1.166   1_554 S
C188   C427    1.166   .     S
C189   C194    1.392   .     A
C189   C200    1.402   .     A
C189   O238    1.382   .     S
C190   C201    1.415   .     A
C190   O228    1.382   .     S
C190   C195    1.383   .     A
C191   O229    1.383   .     S
C191   C196    1.391   .     A
C191   C201    1.406   .     A
C192   O231    1.286   .     A
C192   C199    1.435   .     S
C192   O232    1.285   .     A
C193   C197    1.392   .     A
C193   O230    1.382   .     S
C193   C200    1.405   .     A
C194   C198    1.397   .     A
C194   H220    1.084   .     S
C195   C199    1.396   .     A
C195   H221    1.084   .     S
C196   C199    1.394   .     A
C196   H222    1.084   .     S
C197   H223    1.084   .     S
C197   C198    1.395   .     A
C201   C140    1.445   1_655 S
C202   H209    1.082   .     S
C202   N225    1.363   .     A
C202   C206    1.407   .     A
C203   C207    1.407   .     A
C203   N226    1.363   .     A
C203   H217    1.082   .     S
C204   H218    1.082   .     S
C204   C208    1.407   .     A
C204   N225    1.363   .     A
C205   N226    1.363   .     A
C205   H219    1.082   .     S
C206   H224    1.082   .     S
C207   H210    1.082   .     S
C208   H211    1.082   .     S
H213   O238    0.992   .     S
H215   O229    0.992   .     S
H216   O230    0.992   .     S
N225   Zn240   2.006   .     S
N226   Zn239   2.006   .     S
O227   Zn239   1.995   .     S
O228   H154    0.989   1_655 S
O231   Zn240   1.995   .     S
O232   Zn239   1.995   .     S
O233   Zn240   1.995   .     S
O234   Zn239   1.951   .     S
O235   Zn240   1.951   .     S
O236   Zn239   1.951   .     S
O237   Zn240   1.951   .     S
C241   C258    1.435   .     S
C241   O293    1.286   .     A
C241   O287    1.285   .     A
C242   C246    1.411   .     A
C242   C265    1.407   .     A
C242   H272    1.082   .     S
C243   O297    1.275   .     A
C243   C247    1.366   .     S
C243   O294    1.275   .     A
C244   C248    1.366   .     S
C244   O295    1.275   .     A
C244   O296    1.275   .     A
C245   C268    1.411   .     A
C245   C266    1.411   .     A
C245   C366    1.514   1_545 S
C246   C267    1.411   .     A
C246   C365    1.514   .     S
C248   C487    1.166   .     S
C249   C254    1.392   .     A
C249   C260    1.402   .     A
C249   O298    1.382   .     S
C250   C261    1.415   .     A
C250   O288    1.382   .     S
C250   C255    1.383   .     A
C251   O289    1.383   .     S
C251   C256    1.391   .     A
C251   C261    1.406   .     A
C252   O291    1.286   .     A
C252   C259    1.435   .     S
C252   O292    1.285   .     A
C253   C257    1.392   .     A
C253   O290    1.382   .     S
C253   C260    1.405   .     A
C254   C258    1.397   .     A
C254   H280    1.084   .     S
C255   C259    1.396   .     A
C255   H281    1.084   .     S
C256   C259    1.394   .     A
C256   H282    1.084   .     S
C257   H283    1.084   .     S
C257   C258    1.395   .     A
C260   C321    1.445   1_455 S
C261   C320    1.445   .     S
C262   H269    1.082   .     S
C262   N285    1.363   .     A
C262   C266    1.407   .     A
C263   C267    1.407   .     A
C263   N286    1.363   .     A
C263   H277    1.082   .     S
C264   H278    1.082   .     S
C264   C268    1.407   .     A
C264   N285    1.363   .     A
C265   N286    1.363   .     A
C265   H279    1.082   .     S
C266   H284    1.082   .     S
C267   H270    1.082   .     S
C268   H271    1.082   .     S
H273   O298    0.992   .     S
H274   O348    0.989   1_455 S
H275   O289    0.992   .     S
H276   O290    0.992   .     S
N285   Zn300   2.006   .     S
N286   Zn299   2.006   .     S
O287   Zn299   1.995   .     S
O288   H334    0.989   .     S
O291   Zn300   1.995   .     S
O292   Zn299   1.995   .     S
O293   Zn300   1.995   .     S
O294   Zn299   1.951   .     S
O295   Zn300   1.951   .     S
O296   Zn299   1.951   .     S
O297   Zn300   1.951   .     S
C301   C318    1.435   .     S
C301   O353    1.286   .     A
C301   O347    1.285   .     A
C302   C306    1.411   .     A
C302   C325    1.407   .     A
C302   H332    1.082   .     S
C303   O357    1.275   .     A
C303   C307    1.366   .     S
C303   O354    1.275   .     A
C304   C308    1.366   .     S
C304   O355    1.275   .     A
C304   O356    1.275   .     A
C305   C328    1.411   .     A
C305   C326    1.411   .     A
C305   C426    1.514   1_545 S
C306   C327    1.411   .     A
C306   C425    1.514   .     S
C308   C547    1.166   .     S
C309   C314    1.392   .     A
C309   C320    1.402   .     A
C309   O358    1.382   .     S
C310   C321    1.415   .     A
C310   O348    1.382   .     S
C310   C315    1.383   .     A
C311   O349    1.383   .     S
C311   C316    1.391   .     A
C311   C321    1.406   .     A
C312   O351    1.286   .     A
C312   C319    1.435   .     S
C312   O352    1.285   .     A
C313   C317    1.392   .     A
C313   O350    1.382   .     S
C313   C320    1.405   .     A
C314   C318    1.397   .     A
C314   H340    1.084   .     S
C315   C319    1.396   .     A
C315   H341    1.084   .     S
C316   C319    1.394   .     A
C316   H342    1.084   .     S
C317   H343    1.084   .     S
C317   C318    1.395   .     A
C321   C260    1.445   1_655 S
C322   H329    1.082   .     S
C322   N345    1.363   .     A
C322   C326    1.407   .     A
C323   C327    1.407   .     A
C323   N346    1.363   .     A
C323   H337    1.082   .     S
C324   H338    1.082   .     S
C324   C328    1.407   .     A
C324   N345    1.363   .     A
C325   N346    1.363   .     A
C325   H339    1.082   .     S
C326   H344    1.082   .     S
C327   H330    1.082   .     S
C328   H331    1.082   .     S
H333   O358    0.992   .     S
H335   O349    0.992   .     S
H336   O350    0.992   .     S
N345   Zn360   2.006   .     S
N346   Zn359   2.006   .     S
O347   Zn359   1.995   .     S
O348   H274    0.989   1_655 S
O351   Zn360   1.995   .     S
O352   Zn359   1.995   .     S
O353   Zn360   1.995   .     S
O354   Zn359   1.951   .     S
O355   Zn360   1.951   .     S
O356   Zn359   1.951   .     S
O357   Zn360   1.951   .     S
C361   C378    1.435   .     S
C361   O413    1.286   .     A
C361   O407    1.285   .     A
C362   C366    1.411   .     A
C362   C385    1.407   .     A
C362   H392    1.082   .     S
C363   O417    1.275   .     A
C363   C367    1.366   .     S
C363   O414    1.275   .     A
C364   C368    1.366   .     S
C364   O415    1.275   .     A
C364   O416    1.275   .     A
C365   C388    1.411   .     A
C365   C386    1.411   .     A
C366   C387    1.411   .     A
C366   C245    1.514   1_565 S
C368   C607    1.166   .     S
C369   C374    1.392   .     A
C369   C380    1.402   .     A
C369   O418    1.382   .     S
C370   C381    1.415   .     A
C370   O408    1.382   .     S
C370   C375    1.383   .     A
C371   O409    1.383   .     S
C371   C376    1.391   .     A
C371   C381    1.406   .     A
C372   O411    1.286   .     A
C372   C379    1.435   .     S
C372   O412    1.285   .     A
C373   C377    1.392   .     A
C373   O410    1.382   .     S
C373   C380    1.405   .     A
C374   C378    1.397   .     A
C374   H400    1.084   .     S
C375   C379    1.396   .     A
C375   H401    1.084   .     S
C376   C379    1.394   .     A
C376   H402    1.084   .     S
C377   H403    1.084   .     S
C377   C378    1.395   .     A
C380   C441    1.445   1_455 S
C381   C440    1.445   .     S
C382   H389    1.082   .     S
C382   N405    1.363   .     A
C382   C386    1.407   .     A
C383   C387    1.407   .     A
C383   N406    1.363   .     A
C383   H397    1.082   .     S
C384   H398    1.082   .     S
C384   C388    1.407   .     A
C384   N405    1.363   .     A
C385   N406    1.363   .     A
C385   H399    1.082   .     S
C386   H404    1.082   .     S
C387   H390    1.082   .     S
C388   H391    1.082   .     S
H393   O418    0.992   .     S
H394   O468    0.989   1_455 S
H395   O409    0.992   .     S
H396   O410    0.992   .     S
N405   Zn420   2.006   .     S
N406   Zn419   2.006   .     S
O407   Zn419   1.995   .     S
O408   H454    0.989   .     S
O411   Zn420   1.995   .     S
O412   Zn419   1.995   .     S
O413   Zn420   1.995   .     S
O414   Zn419   1.951   .     S
O415   Zn420   1.951   .     S
O416   Zn419   1.951   .     S
O417   Zn420   1.951   .     S
C421   C438    1.435   .     S
C421   O473    1.286   .     A
C421   O467    1.285   .     A
C422   C426    1.411   .     A
C422   C445    1.407   .     A
C422   H452    1.082   .     S
C423   O477    1.275   .     A
C423   C427    1.366   .     S
C423   O474    1.275   .     A
C424   C428    1.366   .     S
C424   O475    1.275   .     A
C424   O476    1.275   .     A
C425   C448    1.411   .     A
C425   C446    1.411   .     A
C426   C447    1.411   .     A
C426   C305    1.514   1_565 S
C428   C667    1.166   .     S
C429   C434    1.392   .     A
C429   C440    1.402   .     A
C429   O478    1.382   .     S
C430   C441    1.415   .     A
C430   O468    1.382   .     S
C430   C435    1.383   .     A
C431   O469    1.383   .     S
C431   C436    1.391   .     A
C431   C441    1.406   .     A
C432   O471    1.286   .     A
C432   C439    1.435   .     S
C432   O472    1.285   .     A
C433   C437    1.392   .     A
C433   O470    1.382   .     S
C433   C440    1.405   .     A
C434   C438    1.397   .     A
C434   H460    1.084   .     S
C435   C439    1.396   .     A
C435   H461    1.084   .     S
C436   C439    1.394   .     A
C436   H462    1.084   .     S
C437   H463    1.084   .     S
C437   C438    1.395   .     A
C441   C380    1.445   1_655 S
C442   H449    1.082   .     S
C442   N465    1.363   .     A
C442   C446    1.407   .     A
C443   C447    1.407   .     A
C443   N466    1.363   .     A
C443   H457    1.082   .     S
C444   H458    1.082   .     S
C444   C448    1.407   .     A
C444   N465    1.363   .     A
C445   N466    1.363   .     A
C445   H459    1.082   .     S
C446   H464    1.082   .     S
C447   H450    1.082   .     S
C448   H451    1.082   .     S
H453   O478    0.992   .     S
H455   O469    0.992   .     S
H456   O470    0.992   .     S
N465   Zn480   2.006   .     S
N466   Zn479   2.006   .     S
O467   Zn479   1.995   .     S
O468   H394    0.989   1_655 S
O471   Zn480   1.995   .     S
O472   Zn479   1.995   .     S
O473   Zn480   1.995   .     S
O474   Zn479   1.951   .     S
O475   Zn480   1.951   .     S
O476   Zn479   1.951   .     S
O477   Zn480   1.951   .     S
C481   C498    1.435   .     S
C481   O533    1.286   .     A
C481   O527    1.285   .     A
C482   C486    1.411   .     A
C482   C505    1.407   .     A
C482   H512    1.082   .     S
C483   O537    1.275   .     A
C483   C487    1.366   .     S
C483   O534    1.275   .     A
C484   C488    1.366   .     S
C484   O535    1.275   .     A
C484   O536    1.275   .     A
C485   C508    1.411   .     A
C485   C506    1.411   .     A
C485   C606    1.514   1_545 S
C486   C507    1.411   .     A
C486   C605    1.514   .     S
C488   C7      1.166   1_556 S
C489   C494    1.392   .     A
C489   C500    1.402   .     A
C489   O538    1.382   .     S
C490   C501    1.415   .     A
C490   O528    1.382   .     S
C490   C495    1.383   .     A
C491   O529    1.383   .     S
C491   C496    1.391   .     A
C491   C501    1.406   .     A
C492   O531    1.286   .     A
C492   C499    1.435   .     S
C492   O532    1.285   .     A
C493   C497    1.392   .     A
C493   O530    1.382   .     S
C493   C500    1.405   .     A
C494   C498    1.397   .     A
C494   H520    1.084   .     S
C495   C499    1.396   .     A
C495   H521    1.084   .     S
C496   C499    1.394   .     A
C496   H522    1.084   .     S
C497   H523    1.084   .     S
C497   C498    1.395   .     A
C500   C561    1.445   1_455 S
C501   C560    1.445   .     S
C502   H509    1.082   .     S
C502   N525    1.363   .     A
C502   C506    1.407   .     A
C503   C507    1.407   .     A
C503   N526    1.363   .     A
C503   H517    1.082   .     S
C504   H518    1.082   .     S
C504   C508    1.407   .     A
C504   N525    1.363   .     A
C505   N526    1.363   .     A
C505   H519    1.082   .     S
C506   H524    1.082   .     S
C507   H510    1.082   .     S
C508   H511    1.082   .     S
H513   O538    0.992   .     S
H514   O588    0.989   1_455 S
H515   O529    0.992   .     S
H516   O530    0.992   .     S
N525   Zn540   2.006   .     S
N526   Zn539   2.006   .     S
O527   Zn539   1.995   .     S
O528   H574    0.989   .     S
O531   Zn540   1.995   .     S
O532   Zn539   1.995   .     S
O533   Zn540   1.995   .     S
O534   Zn539   1.951   .     S
O535   Zn540   1.951   .     S
O536   Zn539   1.951   .     S
O537   Zn540   1.951   .     S
C541   C558    1.435   .     S
C541   O593    1.286   .     A
C541   O587    1.285   .     A
C542   C546    1.411   .     A
C542   C565    1.407   .     A
C542   H572    1.082   .     S
C543   O597    1.275   .     A
C543   C547    1.366   .     S
C543   O594    1.275   .     A
C544   C548    1.366   .     S
C544   O595    1.275   .     A
C544   O596    1.275   .     A
C545   C568    1.411   .     A
C545   C566    1.411   .     A
C545   C666    1.514   1_545 S
C546   C567    1.411   .     A
C546   C665    1.514   .     S
C548   C67     1.166   1_556 S
C549   C554    1.392   .     A
C549   C560    1.402   .     A
C549   O598    1.382   .     S
C550   C561    1.415   .     A
C550   O588    1.382   .     S
C550   C555    1.383   .     A
C551   O589    1.383   .     S
C551   C556    1.391   .     A
C551   C561    1.406   .     A
C552   O591    1.286   .     A
C552   C559    1.435   .     S
C552   O592    1.285   .     A
C553   C557    1.392   .     A
C553   O590    1.382   .     S
C553   C560    1.405   .     A
C554   C558    1.397   .     A
C554   H580    1.084   .     S
C555   C559    1.396   .     A
C555   H581    1.084   .     S
C556   C559    1.394   .     A
C556   H582    1.084   .     S
C557   H583    1.084   .     S
C557   C558    1.395   .     A
C561   C500    1.445   1_655 S
C562   H569    1.082   .     S
C562   N585    1.363   .     A
C562   C566    1.407   .     A
C563   C567    1.407   .     A
C563   N586    1.363   .     A
C563   H577    1.082   .     S
C564   H578    1.082   .     S
C564   C568    1.407   .     A
C564   N585    1.363   .     A
C565   N586    1.363   .     A
C565   H579    1.082   .     S
C566   H584    1.082   .     S
C567   H570    1.082   .     S
C568   H571    1.082   .     S
H573   O598    0.992   .     S
H575   O589    0.992   .     S
H576   O590    0.992   .     S
N585   Zn600   2.006   .     S
N586   Zn599   2.006   .     S
O587   Zn599   1.995   .     S
O588   H514    0.989   1_655 S
O591   Zn600   1.995   .     S
O592   Zn599   1.995   .     S
O593   Zn600   1.995   .     S
O594   Zn599   1.951   .     S
O595   Zn600   1.951   .     S
O596   Zn599   1.951   .     S
O597   Zn600   1.951   .     S
C601   C618    1.435   .     S
C601   O653    1.286   .     A
C601   O647    1.285   .     A
C602   C606    1.411   .     A
C602   C625    1.407   .     A
C602   H632    1.082   .     S
C603   O657    1.275   .     A
C603   C607    1.366   .     S
C603   O654    1.275   .     A
C604   C608    1.366   .     S
C604   O655    1.275   .     A
C604   O656    1.275   .     A
C605   C628    1.411   .     A
C605   C626    1.411   .     A
C606   C627    1.411   .     A
C606   C485    1.514   1_565 S
C608   C127    1.166   1_556 S
C609   C614    1.392   .     A
C609   C620    1.402   .     A
C609   O658    1.382   .     S
C610   C621    1.415   .     A
C610   O648    1.382   .     S
C610   C615    1.383   .     A
C611   O649    1.383   .     S
C611   C616    1.391   .     A
C611   C621    1.406   .     A
C612   O651    1.286   .     A
C612   C619    1.435   .     S
C612   O652    1.285   .     A
C613   C617    1.392   .     A
C613   O650    1.382   .     S
C613   C620    1.405   .     A
C614   C618    1.397   .     A
C614   H640    1.084   .     S
C615   C619    1.396   .     A
C615   H641    1.084   .     S
C616   C619    1.394   .     A
C616   H642    1.084   .     S
C617   H643    1.084   .     S
C617   C618    1.395   .     A
C620   C681    1.445   1_455 S
C621   C680    1.445   .     S
C622   H629    1.082   .     S
C622   N645    1.363   .     A
C622   C626    1.407   .     A
C623   C627    1.407   .     A
C623   N646    1.363   .     A
C623   H637    1.082   .     S
C624   H638    1.082   .     S
C624   C628    1.407   .     A
C624   N645    1.363   .     A
C625   N646    1.363   .     A
C625   H639    1.082   .     S
C626   H644    1.082   .     S
C627   H630    1.082   .     S
C628   H631    1.082   .     S
H633   O658    0.992   .     S
H634   O708    0.989   1_455 S
H635   O649    0.992   .     S
H636   O650    0.992   .     S
N645   Zn660   2.006   .     S
N646   Zn659   2.006   .     S
O647   Zn659   1.995   .     S
O648   H694    0.989   .     S
O651   Zn660   1.995   .     S
O652   Zn659   1.995   .     S
O653   Zn660   1.995   .     S
O654   Zn659   1.951   .     S
O655   Zn660   1.951   .     S
O656   Zn659   1.951   .     S
O657   Zn660   1.951   .     S
C661   C678    1.435   .     S
C661   O713    1.286   .     A
C661   O707    1.285   .     A
C662   C666    1.411   .     A
C662   C685    1.407   .     A
C662   H692    1.082   .     S
C663   O717    1.275   .     A
C663   C667    1.366   .     S
C663   O714    1.275   .     A
C664   C668    1.366   .     S
C664   O715    1.275   .     A
C664   O716    1.275   .     A
C665   C688    1.411   .     A
C665   C686    1.411   .     A
C666   C687    1.411   .     A
C666   C545    1.514   1_565 S
C668   C187    1.166   1_556 S
C669   C674    1.392   .     A
C669   C680    1.402   .     A
C669   O718    1.382   .     S
C670   C681    1.415   .     A
C670   O708    1.382   .     S
C670   C675    1.383   .     A
C671   O709    1.383   .     S
C671   C676    1.391   .     A
C671   C681    1.406   .     A
C672   O711    1.286   .     A
C672   C679    1.435   .     S
C672   O712    1.285   .     A
C673   C677    1.392   .     A
C673   O710    1.382   .     S
C673   C680    1.405   .     A
C674   C678    1.397   .     A
C674   H700    1.084   .     S
C675   C679    1.396   .     A
C675   H701    1.084   .     S
C676   C679    1.394   .     A
C676   H702    1.084   .     S
C677   H703    1.084   .     S
C677   C678    1.395   .     A
C681   C620    1.445   1_655 S
C682   H689    1.082   .     S
C682   N705    1.363   .     A
C682   C686    1.407   .     A
C683   C687    1.407   .     A
C683   N706    1.363   .     A
C683   H697    1.082   .     S
C684   H698    1.082   .     S
C684   C688    1.407   .     A
C684   N705    1.363   .     A
C685   N706    1.363   .     A
C685   H699    1.082   .     S
C686   H704    1.082   .     S
C687   H690    1.082   .     S
C688   H691    1.082   .     S
H693   O718    0.992   .     S
H695   O709    0.992   .     S
H696   O710    0.992   .     S
N705   Zn720   2.006   .     S
N706   Zn719   2.006   .     S
O707   Zn719   1.995   .     S
O708   H634    0.989   1_655 S
O711   Zn720   1.995   .     S
O712   Zn719   1.995   .     S
O713   Zn720   1.995   .     S
O714   Zn719   1.951   .     S
O715   Zn720   1.951   .     S
O716   Zn719   1.951   .     S
O717   Zn720   1.951   .     S
