data_str_m3_o1_o17_pcu_sym.168
_audit_creation_date              2020-01-03
_audit_creation_method            'Materials Studio'
_symmetry_space_group_name_H-M    'P1'
_symmetry_Int_Tables_number       1
_symmetry_cell_setting            triclinic
loop_
_symmetry_equiv_pos_as_xyz
  x,y,z
_cell_length_a                    32.1532
_cell_length_b                    29.5277
_cell_length_c                    29.8370
_cell_angle_alpha                 90.0000
_cell_angle_beta                  90.8592
_cell_angle_gamma                 90.0000
loop_
_atom_site_label
_atom_site_type_symbol
_atom_site_fract_x
_atom_site_fract_y
_atom_site_fract_z
_atom_site_U_iso_or_equiv
_atom_site_adp_type
_atom_site_occupancy
C1     C     0.08663   0.16668   0.25036   0.00000  Uiso   1.00
C2     C     0.24671   0.16668   0.24964   0.00000  Uiso   1.00
C3     C     0.09017   0.17877   0.01835   0.00000  Uiso   1.00
C4     C     0.24316   0.17877   0.48165   0.00000  Uiso   1.00
C5     C     0.02128   0.12540   0.25037   0.00000  Uiso   1.00
C6     C     0.31204   0.20801   0.24981   0.00000  Uiso   1.00
C7     C     0.31205   0.12540   0.24963   0.00000  Uiso   1.00
C8     C     0.02129   0.20801   0.25019   0.00000  Uiso   1.00
C9     C     0.29086   0.16670   0.24956   0.00000  Uiso   1.00
C10    C     0.04247   0.16670   0.25044   0.00000  Uiso   1.00
C11    C     0.19714   0.02395   0.27220   0.00000  Uiso   1.00
C12    C     0.13623   0.30934   0.22773   0.00000  Uiso   1.00
C13    C     0.13619   0.02395   0.22780   0.00000  Uiso   1.00
C14    C     0.19711   0.30934   0.27227   0.00000  Uiso   1.00
C15    C     0.16428   0.16668   0.16351   0.00000  Uiso   1.00
C16    C     0.16906   0.16668   0.33649   0.00000  Uiso   1.00
C17    C     0.20816   0.16507   0.40877   0.00000  Uiso   1.00
C18    C     0.12517   0.16507   0.09123   0.00000  Uiso   1.00
C19    C     0.17024   0.16712   0.38433   0.00000  Uiso   1.00
C20    C     0.16309   0.16712   0.11567   0.00000  Uiso   1.00
C21    C     0.13225   0.17329   0.40503   0.00000  Uiso   1.00
C22    C     0.20108   0.17329   0.09497   0.00000  Uiso   1.00
C23    C     0.13055   0.17552   0.45111   0.00000  Uiso   1.00
C24    C     0.20279   0.17552   0.04889   0.00000  Uiso   1.00
C25    C     0.16771   0.17443   0.47659   0.00000  Uiso   1.00
C26    C     0.16562   0.17443   0.02341   0.00000  Uiso   1.00
C27    C     0.20689   0.17260   0.45538   0.00000  Uiso   1.00
C28    C     0.12644   0.17260   0.04462   0.00000  Uiso   1.00
C29    C     0.09220   0.17966   0.47198   0.00000  Uiso   1.00
C30    C     0.24113   0.17966   0.02802   0.00000  Uiso   1.00
H31    H     0.10382   0.17531   0.38500   0.00000  Uiso   1.00
H32    H     0.22952   0.17531   0.11500   0.00000  Uiso   1.00
H33    H     0.06367   0.18300   0.45242   0.00000  Uiso   1.00
H34    H     0.26966   0.18300   0.04758   0.00000  Uiso   1.00
H35    H     0.06009   0.18407   0.03294   0.00000  Uiso   1.00
H36    H     0.27324   0.18407   0.46706   0.00000  Uiso   1.00
H37    H     0.03742   0.09318   0.25064   0.00000  Uiso   1.00
H38    H     0.29589   0.24022   0.24976   0.00000  Uiso   1.00
H39    H     0.29591   0.09318   0.24936   0.00000  Uiso   1.00
H40    H     0.03744   0.24022   0.25024   0.00000  Uiso   1.00
H41    H     0.22157   0.04200   0.28988   0.00000  Uiso   1.00
H42    H     0.11190   0.29118   0.20989   0.00000  Uiso   1.00
H43    H     0.11177   0.04200   0.21012   0.00000  Uiso   1.00
H44    H     0.22144   0.29118   0.29011   0.00000  Uiso   1.00
N45    N     0.16667   0.28573   0.25000   0.00000  Uiso   1.00
N46    N     0.16667   0.04760   0.25000   0.00000  Uiso   1.00
O47    O     0.10559   0.20487   0.25000   0.00000  Uiso   1.00
O48    O     0.22774   0.12846   0.25001   0.00000  Uiso   1.00
O49    O     0.22774   0.20487   0.25001   0.00000  Uiso   1.00
O50    O     0.10559   0.12846   0.25000   0.00000  Uiso   1.00
O51    O     0.16666   0.20489   0.18393   0.00000  Uiso   1.00
O52    O     0.16667   0.12844   0.31608   0.00000  Uiso   1.00
O53    O     0.16667   0.20489   0.31608   0.00000  Uiso   1.00
O54    O     0.16666   0.12844   0.18393   0.00000  Uiso   1.00
Zn55   Zn    0.16667   0.21771   0.25000   0.00000  Uiso   1.00
Zn56   Zn    0.16667   0.11563   0.25000   0.00000  Uiso   1.00
S57    S     0.25543   0.15018   0.38135   0.00000  Uiso   1.00
O58    O     0.27401   0.19203   0.36117   0.00000  Uiso   1.00
O59    O     0.28641   0.12904   0.41328   0.00000  Uiso   1.00
O60    O     0.24592   0.11219   0.34067   0.00000  Uiso   1.00
H61    H     0.27334   0.09873   0.33394   0.00000  Uiso   1.00
S62    S     0.07790   0.15018   0.11865   0.00000  Uiso   1.00
O63    O     0.05932   0.19203   0.13883   0.00000  Uiso   1.00
O64    O     0.04692   0.12903   0.08672   0.00000  Uiso   1.00
O65    O     0.08741   0.11219   0.15933   0.00000  Uiso   1.00
H66    H     0.06000   0.09873   0.16607   0.00000  Uiso   1.00
C67    C     0.41996   0.16668   0.25036   0.00000  Uiso   1.00
C68    C     0.58004   0.16668   0.24964   0.00000  Uiso   1.00
C69    C     0.42350   0.17877   0.01835   0.00000  Uiso   1.00
C70    C     0.57650   0.17877   0.48165   0.00000  Uiso   1.00
C71    C     0.35461   0.12540   0.25037   0.00000  Uiso   1.00
C72    C     0.64538   0.20801   0.24981   0.00000  Uiso   1.00
C73    C     0.64539   0.12540   0.24963   0.00000  Uiso   1.00
C74    C     0.35462   0.20801   0.25019   0.00000  Uiso   1.00
C75    C     0.62419   0.16670   0.24956   0.00000  Uiso   1.00
C76    C     0.37581   0.16670   0.25044   0.00000  Uiso   1.00
C77    C     0.53047   0.02395   0.27220   0.00000  Uiso   1.00
C78    C     0.46956   0.30934   0.22773   0.00000  Uiso   1.00
C79    C     0.46953   0.02395   0.22780   0.00000  Uiso   1.00
C80    C     0.53044   0.30934   0.27227   0.00000  Uiso   1.00
C81    C     0.49761   0.16668   0.16351   0.00000  Uiso   1.00
C82    C     0.50239   0.16668   0.33649   0.00000  Uiso   1.00
C83    C     0.54149   0.16507   0.40877   0.00000  Uiso   1.00
C84    C     0.45851   0.16507   0.09123   0.00000  Uiso   1.00
C85    C     0.50358   0.16712   0.38433   0.00000  Uiso   1.00
C86    C     0.49642   0.16712   0.11567   0.00000  Uiso   1.00
C87    C     0.46559   0.17329   0.40503   0.00000  Uiso   1.00
C88    C     0.53441   0.17329   0.09497   0.00000  Uiso   1.00
C89    C     0.46388   0.17552   0.45111   0.00000  Uiso   1.00
C90    C     0.53612   0.17552   0.04889   0.00000  Uiso   1.00
C91    C     0.50105   0.17443   0.47659   0.00000  Uiso   1.00
C92    C     0.49895   0.17443   0.02341   0.00000  Uiso   1.00
C93    C     0.54023   0.17260   0.45538   0.00000  Uiso   1.00
C94    C     0.45977   0.17260   0.04462   0.00000  Uiso   1.00
C95    C     0.42553   0.17966   0.47198   0.00000  Uiso   1.00
C96    C     0.57447   0.17966   0.02802   0.00000  Uiso   1.00
H97    H     0.43715   0.17531   0.38500   0.00000  Uiso   1.00
H98    H     0.56285   0.17531   0.11500   0.00000  Uiso   1.00
H99    H     0.39700   0.18300   0.45242   0.00000  Uiso   1.00
H100   H     0.60300   0.18300   0.04758   0.00000  Uiso   1.00
H101   H     0.39343   0.18407   0.03294   0.00000  Uiso   1.00
H102   H     0.60657   0.18407   0.46706   0.00000  Uiso   1.00
H103   H     0.37075   0.09318   0.25064   0.00000  Uiso   1.00
H104   H     0.62922   0.24022   0.24976   0.00000  Uiso   1.00
H105   H     0.62925   0.09318   0.24936   0.00000  Uiso   1.00
H106   H     0.37077   0.24022   0.25024   0.00000  Uiso   1.00
H107   H     0.55490   0.04200   0.28988   0.00000  Uiso   1.00
H108   H     0.44523   0.29118   0.20989   0.00000  Uiso   1.00
H109   H     0.44510   0.04200   0.21012   0.00000  Uiso   1.00
H110   H     0.55477   0.29118   0.29011   0.00000  Uiso   1.00
N111   N     0.50000   0.28573   0.25000   0.00000  Uiso   1.00
N112   N     0.50000   0.04760   0.25000   0.00000  Uiso   1.00
O113   O     0.43892   0.20487   0.25000   0.00000  Uiso   1.00
O114   O     0.56108   0.12846   0.25001   0.00000  Uiso   1.00
O115   O     0.56108   0.20487   0.25001   0.00000  Uiso   1.00
O116   O     0.43892   0.12846   0.25000   0.00000  Uiso   1.00
O117   O     0.49999   0.20489   0.18393   0.00000  Uiso   1.00
O118   O     0.50001   0.12844   0.31608   0.00000  Uiso   1.00
O119   O     0.50001   0.20489   0.31608   0.00000  Uiso   1.00
O120   O     0.49999   0.12844   0.18393   0.00000  Uiso   1.00
Zn121  Zn    0.50000   0.21771   0.25000   0.00000  Uiso   1.00
Zn122  Zn    0.50000   0.11563   0.25000   0.00000  Uiso   1.00
S123   S     0.58877   0.15018   0.38135   0.00000  Uiso   1.00
O124   O     0.60735   0.19203   0.36117   0.00000  Uiso   1.00
O125   O     0.61975   0.12904   0.41328   0.00000  Uiso   1.00
O126   O     0.57926   0.11219   0.34067   0.00000  Uiso   1.00
H127   H     0.60667   0.09873   0.33394   0.00000  Uiso   1.00
S128   S     0.41123   0.15018   0.11865   0.00000  Uiso   1.00
O129   O     0.39265   0.19203   0.13883   0.00000  Uiso   1.00
O130   O     0.38025   0.12903   0.08672   0.00000  Uiso   1.00
O131   O     0.42074   0.11219   0.15933   0.00000  Uiso   1.00
H132   H     0.39333   0.09873   0.16607   0.00000  Uiso   1.00
C133   C     0.75329   0.16668   0.25036   0.00000  Uiso   1.00
C134   C     0.91337   0.16668   0.24964   0.00000  Uiso   1.00
C135   C     0.75684   0.17877   0.01835   0.00000  Uiso   1.00
C136   C     0.90983   0.17877   0.48165   0.00000  Uiso   1.00
C137   C     0.68795   0.12540   0.25037   0.00000  Uiso   1.00
C138   C     0.97871   0.20801   0.24981   0.00000  Uiso   1.00
C139   C     0.97872   0.12540   0.24963   0.00000  Uiso   1.00
C140   C     0.68796   0.20801   0.25019   0.00000  Uiso   1.00
C141   C     0.95753   0.16670   0.24956   0.00000  Uiso   1.00
C142   C     0.70914   0.16670   0.25044   0.00000  Uiso   1.00
C143   C     0.86381   0.02395   0.27220   0.00000  Uiso   1.00
C144   C     0.80289   0.30934   0.22773   0.00000  Uiso   1.00
C145   C     0.80286   0.02395   0.22780   0.00000  Uiso   1.00
C146   C     0.86377   0.30934   0.27227   0.00000  Uiso   1.00
C147   C     0.83094   0.16668   0.16351   0.00000  Uiso   1.00
C148   C     0.83572   0.16668   0.33649   0.00000  Uiso   1.00
C149   C     0.87483   0.16507   0.40877   0.00000  Uiso   1.00
C150   C     0.79184   0.16507   0.09123   0.00000  Uiso   1.00
C151   C     0.83691   0.16712   0.38433   0.00000  Uiso   1.00
C152   C     0.82976   0.16712   0.11567   0.00000  Uiso   1.00
C153   C     0.79892   0.17329   0.40503   0.00000  Uiso   1.00
C154   C     0.86775   0.17329   0.09497   0.00000  Uiso   1.00
C155   C     0.79721   0.17552   0.45111   0.00000  Uiso   1.00
C156   C     0.86945   0.17552   0.04889   0.00000  Uiso   1.00
C157   C     0.83438   0.17443   0.47659   0.00000  Uiso   1.00
C158   C     0.83229   0.17443   0.02341   0.00000  Uiso   1.00
C159   C     0.87356   0.17260   0.45538   0.00000  Uiso   1.00
C160   C     0.79311   0.17260   0.04462   0.00000  Uiso   1.00
C161   C     0.75887   0.17966   0.47198   0.00000  Uiso   1.00
C162   C     0.90780   0.17966   0.02802   0.00000  Uiso   1.00
H163   H     0.77048   0.17531   0.38500   0.00000  Uiso   1.00
H164   H     0.89618   0.17531   0.11500   0.00000  Uiso   1.00
H165   H     0.73034   0.18300   0.45242   0.00000  Uiso   1.00
H166   H     0.93633   0.18300   0.04758   0.00000  Uiso   1.00
H167   H     0.72676   0.18407   0.03294   0.00000  Uiso   1.00
H168   H     0.93991   0.18407   0.46706   0.00000  Uiso   1.00
H169   H     0.70409   0.09318   0.25064   0.00000  Uiso   1.00
H170   H     0.96256   0.24022   0.24976   0.00000  Uiso   1.00
H171   H     0.96258   0.09318   0.24936   0.00000  Uiso   1.00
H172   H     0.70411   0.24022   0.25024   0.00000  Uiso   1.00
H173   H     0.88823   0.04200   0.28988   0.00000  Uiso   1.00
H174   H     0.77856   0.29118   0.20989   0.00000  Uiso   1.00
H175   H     0.77843   0.04200   0.21012   0.00000  Uiso   1.00
H176   H     0.88810   0.29118   0.29011   0.00000  Uiso   1.00
N177   N     0.83333   0.28573   0.25000   0.00000  Uiso   1.00
N178   N     0.83333   0.04760   0.25000   0.00000  Uiso   1.00
O179   O     0.77226   0.20487   0.25000   0.00000  Uiso   1.00
O180   O     0.89441   0.12846   0.25001   0.00000  Uiso   1.00
O181   O     0.89441   0.20487   0.25001   0.00000  Uiso   1.00
O182   O     0.77226   0.12846   0.25000   0.00000  Uiso   1.00
O183   O     0.83333   0.20489   0.18393   0.00000  Uiso   1.00
O184   O     0.83334   0.12844   0.31608   0.00000  Uiso   1.00
O185   O     0.83334   0.20489   0.31608   0.00000  Uiso   1.00
O186   O     0.83333   0.12844   0.18393   0.00000  Uiso   1.00
Zn187  Zn    0.83333   0.21771   0.25000   0.00000  Uiso   1.00
Zn188  Zn    0.83333   0.11563   0.25000   0.00000  Uiso   1.00
S189   S     0.92210   0.15018   0.38135   0.00000  Uiso   1.00
O190   O     0.94068   0.19203   0.36117   0.00000  Uiso   1.00
O191   O     0.95308   0.12904   0.41328   0.00000  Uiso   1.00
O192   O     0.91259   0.11219   0.34067   0.00000  Uiso   1.00
H193   H     0.94000   0.09873   0.33394   0.00000  Uiso   1.00
S194   S     0.74456   0.15018   0.11865   0.00000  Uiso   1.00
O195   O     0.72599   0.19203   0.13883   0.00000  Uiso   1.00
O196   O     0.71359   0.12903   0.08672   0.00000  Uiso   1.00
O197   O     0.75408   0.11219   0.15933   0.00000  Uiso   1.00
H198   H     0.72666   0.09873   0.16607   0.00000  Uiso   1.00
C199   C     0.08663   0.50001   0.25036   0.00000  Uiso   1.00
C200   C     0.24671   0.50001   0.24964   0.00000  Uiso   1.00
C201   C     0.09017   0.51210   0.01835   0.00000  Uiso   1.00
C202   C     0.24316   0.51211   0.48165   0.00000  Uiso   1.00
C203   C     0.02128   0.45873   0.25037   0.00000  Uiso   1.00
C204   C     0.31204   0.54134   0.24981   0.00000  Uiso   1.00
C205   C     0.31205   0.45873   0.24963   0.00000  Uiso   1.00
C206   C     0.02129   0.54134   0.25019   0.00000  Uiso   1.00
C207   C     0.29086   0.50003   0.24956   0.00000  Uiso   1.00
C208   C     0.04247   0.50003   0.25044   0.00000  Uiso   1.00
C209   C     0.19714   0.35728   0.27220   0.00000  Uiso   1.00
C210   C     0.13623   0.64267   0.22773   0.00000  Uiso   1.00
C211   C     0.13619   0.35728   0.22780   0.00000  Uiso   1.00
C212   C     0.19711   0.64267   0.27227   0.00000  Uiso   1.00
C213   C     0.16428   0.50001   0.16351   0.00000  Uiso   1.00
C214   C     0.16906   0.50001   0.33649   0.00000  Uiso   1.00
C215   C     0.20816   0.49840   0.40877   0.00000  Uiso   1.00
C216   C     0.12517   0.49840   0.09123   0.00000  Uiso   1.00
C217   C     0.17024   0.50046   0.38433   0.00000  Uiso   1.00
C218   C     0.16309   0.50046   0.11567   0.00000  Uiso   1.00
C219   C     0.13225   0.50663   0.40503   0.00000  Uiso   1.00
C220   C     0.20108   0.50663   0.09497   0.00000  Uiso   1.00
C221   C     0.13055   0.50885   0.45111   0.00000  Uiso   1.00
C222   C     0.20279   0.50885   0.04889   0.00000  Uiso   1.00
C223   C     0.16771   0.50777   0.47659   0.00000  Uiso   1.00
C224   C     0.16562   0.50777   0.02341   0.00000  Uiso   1.00
C225   C     0.20689   0.50593   0.45538   0.00000  Uiso   1.00
C226   C     0.12644   0.50593   0.04462   0.00000  Uiso   1.00
C227   C     0.09220   0.51299   0.47198   0.00000  Uiso   1.00
C228   C     0.24113   0.51299   0.02802   0.00000  Uiso   1.00
H229   H     0.10382   0.50864   0.38500   0.00000  Uiso   1.00
H230   H     0.22952   0.50864   0.11500   0.00000  Uiso   1.00
H231   H     0.06367   0.51634   0.45242   0.00000  Uiso   1.00
H232   H     0.26966   0.51634   0.04758   0.00000  Uiso   1.00
H233   H     0.06009   0.51740   0.03294   0.00000  Uiso   1.00
H234   H     0.27324   0.51740   0.46706   0.00000  Uiso   1.00
H235   H     0.03742   0.42651   0.25064   0.00000  Uiso   1.00
H236   H     0.29589   0.57355   0.24976   0.00000  Uiso   1.00
H237   H     0.29591   0.42651   0.24936   0.00000  Uiso   1.00
H238   H     0.03744   0.57355   0.25024   0.00000  Uiso   1.00
H239   H     0.22157   0.37534   0.28988   0.00000  Uiso   1.00
H240   H     0.11190   0.62451   0.20989   0.00000  Uiso   1.00
H241   H     0.11177   0.37534   0.21012   0.00000  Uiso   1.00
H242   H     0.22144   0.62451   0.29011   0.00000  Uiso   1.00
N243   N     0.16667   0.61907   0.25000   0.00000  Uiso   1.00
N244   N     0.16667   0.38093   0.25000   0.00000  Uiso   1.00
O245   O     0.10559   0.53821   0.25000   0.00000  Uiso   1.00
O246   O     0.22774   0.46179   0.25001   0.00000  Uiso   1.00
O247   O     0.22774   0.53821   0.25001   0.00000  Uiso   1.00
O248   O     0.10559   0.46179   0.25000   0.00000  Uiso   1.00
O249   O     0.16666   0.53823   0.18393   0.00000  Uiso   1.00
O250   O     0.16667   0.46177   0.31608   0.00000  Uiso   1.00
O251   O     0.16667   0.53823   0.31608   0.00000  Uiso   1.00
O252   O     0.16666   0.46177   0.18393   0.00000  Uiso   1.00
Zn253  Zn    0.16667   0.55104   0.25000   0.00000  Uiso   1.00
Zn254  Zn    0.16667   0.44896   0.25000   0.00000  Uiso   1.00
S255   S     0.25543   0.48351   0.38135   0.00000  Uiso   1.00
O256   O     0.27401   0.52537   0.36117   0.00000  Uiso   1.00
O257   O     0.28641   0.46237   0.41328   0.00000  Uiso   1.00
O258   O     0.24592   0.44552   0.34067   0.00000  Uiso   1.00
H259   H     0.27334   0.43206   0.33394   0.00000  Uiso   1.00
S260   S     0.07790   0.48351   0.11865   0.00000  Uiso   1.00
O261   O     0.05932   0.52537   0.13883   0.00000  Uiso   1.00
O262   O     0.04692   0.46237   0.08672   0.00000  Uiso   1.00
O263   O     0.08741   0.44552   0.15933   0.00000  Uiso   1.00
H264   H     0.06000   0.43206   0.16607   0.00000  Uiso   1.00
C265   C     0.41996   0.50001   0.25036   0.00000  Uiso   1.00
C266   C     0.58004   0.50001   0.24964   0.00000  Uiso   1.00
C267   C     0.42350   0.51210   0.01835   0.00000  Uiso   1.00
C268   C     0.57650   0.51211   0.48165   0.00000  Uiso   1.00
C269   C     0.35461   0.45873   0.25037   0.00000  Uiso   1.00
C270   C     0.64538   0.54134   0.24981   0.00000  Uiso   1.00
C271   C     0.64539   0.45873   0.24963   0.00000  Uiso   1.00
C272   C     0.35462   0.54134   0.25019   0.00000  Uiso   1.00
C273   C     0.62419   0.50003   0.24956   0.00000  Uiso   1.00
C274   C     0.37581   0.50003   0.25044   0.00000  Uiso   1.00
C275   C     0.53047   0.35728   0.27220   0.00000  Uiso   1.00
C276   C     0.46956   0.64267   0.22773   0.00000  Uiso   1.00
C277   C     0.46953   0.35728   0.22780   0.00000  Uiso   1.00
C278   C     0.53044   0.64267   0.27227   0.00000  Uiso   1.00
C279   C     0.49761   0.50001   0.16351   0.00000  Uiso   1.00
C280   C     0.50239   0.50001   0.33649   0.00000  Uiso   1.00
C281   C     0.54149   0.49840   0.40877   0.00000  Uiso   1.00
C282   C     0.45851   0.49840   0.09123   0.00000  Uiso   1.00
C283   C     0.50358   0.50046   0.38433   0.00000  Uiso   1.00
C284   C     0.49642   0.50046   0.11567   0.00000  Uiso   1.00
C285   C     0.46559   0.50663   0.40503   0.00000  Uiso   1.00
C286   C     0.53441   0.50663   0.09497   0.00000  Uiso   1.00
C287   C     0.46388   0.50885   0.45111   0.00000  Uiso   1.00
C288   C     0.53612   0.50885   0.04889   0.00000  Uiso   1.00
C289   C     0.50105   0.50777   0.47659   0.00000  Uiso   1.00
C290   C     0.49895   0.50777   0.02341   0.00000  Uiso   1.00
C291   C     0.54023   0.50593   0.45538   0.00000  Uiso   1.00
C292   C     0.45977   0.50593   0.04462   0.00000  Uiso   1.00
C293   C     0.42553   0.51299   0.47198   0.00000  Uiso   1.00
C294   C     0.57447   0.51299   0.02802   0.00000  Uiso   1.00
H295   H     0.43715   0.50864   0.38500   0.00000  Uiso   1.00
H296   H     0.56285   0.50864   0.11500   0.00000  Uiso   1.00
H297   H     0.39700   0.51634   0.45242   0.00000  Uiso   1.00
H298   H     0.60300   0.51634   0.04758   0.00000  Uiso   1.00
H299   H     0.39343   0.51740   0.03294   0.00000  Uiso   1.00
H300   H     0.60657   0.51740   0.46706   0.00000  Uiso   1.00
H301   H     0.37075   0.42651   0.25064   0.00000  Uiso   1.00
H302   H     0.62922   0.57355   0.24976   0.00000  Uiso   1.00
H303   H     0.62925   0.42651   0.24936   0.00000  Uiso   1.00
H304   H     0.37077   0.57355   0.25024   0.00000  Uiso   1.00
H305   H     0.55490   0.37534   0.28988   0.00000  Uiso   1.00
H306   H     0.44523   0.62451   0.20989   0.00000  Uiso   1.00
H307   H     0.44510   0.37534   0.21012   0.00000  Uiso   1.00
H308   H     0.55477   0.62451   0.29011   0.00000  Uiso   1.00
N309   N     0.50000   0.61907   0.25000   0.00000  Uiso   1.00
N310   N     0.50000   0.38093   0.25000   0.00000  Uiso   1.00
O311   O     0.43892   0.53821   0.25000   0.00000  Uiso   1.00
O312   O     0.56108   0.46179   0.25001   0.00000  Uiso   1.00
O313   O     0.56108   0.53821   0.25001   0.00000  Uiso   1.00
O314   O     0.43892   0.46179   0.25000   0.00000  Uiso   1.00
O315   O     0.49999   0.53823   0.18393   0.00000  Uiso   1.00
O316   O     0.50001   0.46177   0.31608   0.00000  Uiso   1.00
O317   O     0.50001   0.53823   0.31608   0.00000  Uiso   1.00
O318   O     0.49999   0.46177   0.18393   0.00000  Uiso   1.00
Zn319  Zn    0.50000   0.55104   0.25000   0.00000  Uiso   1.00
Zn320  Zn    0.50000   0.44896   0.25000   0.00000  Uiso   1.00
S321   S     0.58877   0.48351   0.38135   0.00000  Uiso   1.00
O322   O     0.60735   0.52537   0.36117   0.00000  Uiso   1.00
O323   O     0.61975   0.46237   0.41328   0.00000  Uiso   1.00
O324   O     0.57926   0.44552   0.34067   0.00000  Uiso   1.00
H325   H     0.60667   0.43206   0.33394   0.00000  Uiso   1.00
S326   S     0.41123   0.48351   0.11865   0.00000  Uiso   1.00
O327   O     0.39265   0.52537   0.13883   0.00000  Uiso   1.00
O328   O     0.38025   0.46237   0.08672   0.00000  Uiso   1.00
O329   O     0.42074   0.44552   0.15933   0.00000  Uiso   1.00
H330   H     0.39333   0.43206   0.16607   0.00000  Uiso   1.00
C331   C     0.75329   0.50001   0.25036   0.00000  Uiso   1.00
C332   C     0.91337   0.50001   0.24964   0.00000  Uiso   1.00
C333   C     0.75684   0.51210   0.01835   0.00000  Uiso   1.00
C334   C     0.90983   0.51211   0.48165   0.00000  Uiso   1.00
C335   C     0.68795   0.45873   0.25037   0.00000  Uiso   1.00
C336   C     0.97871   0.54134   0.24981   0.00000  Uiso   1.00
C337   C     0.97872   0.45873   0.24963   0.00000  Uiso   1.00
C338   C     0.68796   0.54134   0.25019   0.00000  Uiso   1.00
C339   C     0.95753   0.50003   0.24956   0.00000  Uiso   1.00
C340   C     0.70914   0.50003   0.25044   0.00000  Uiso   1.00
C341   C     0.86381   0.35728   0.27220   0.00000  Uiso   1.00
C342   C     0.80289   0.64267   0.22773   0.00000  Uiso   1.00
C343   C     0.80286   0.35728   0.22780   0.00000  Uiso   1.00
C344   C     0.86377   0.64267   0.27227   0.00000  Uiso   1.00
C345   C     0.83094   0.50001   0.16351   0.00000  Uiso   1.00
C346   C     0.83572   0.50001   0.33649   0.00000  Uiso   1.00
C347   C     0.87483   0.49840   0.40877   0.00000  Uiso   1.00
C348   C     0.79184   0.49840   0.09123   0.00000  Uiso   1.00
C349   C     0.83691   0.50046   0.38433   0.00000  Uiso   1.00
C350   C     0.82976   0.50046   0.11567   0.00000  Uiso   1.00
C351   C     0.79892   0.50663   0.40503   0.00000  Uiso   1.00
C352   C     0.86775   0.50663   0.09497   0.00000  Uiso   1.00
C353   C     0.79721   0.50885   0.45111   0.00000  Uiso   1.00
C354   C     0.86945   0.50885   0.04889   0.00000  Uiso   1.00
C355   C     0.83438   0.50777   0.47659   0.00000  Uiso   1.00
C356   C     0.83229   0.50777   0.02341   0.00000  Uiso   1.00
C357   C     0.87356   0.50593   0.45538   0.00000  Uiso   1.00
C358   C     0.79311   0.50593   0.04462   0.00000  Uiso   1.00
C359   C     0.75887   0.51299   0.47198   0.00000  Uiso   1.00
C360   C     0.90780   0.51299   0.02802   0.00000  Uiso   1.00
H361   H     0.77048   0.50864   0.38500   0.00000  Uiso   1.00
H362   H     0.89618   0.50864   0.11500   0.00000  Uiso   1.00
H363   H     0.73034   0.51634   0.45242   0.00000  Uiso   1.00
H364   H     0.93633   0.51634   0.04758   0.00000  Uiso   1.00
H365   H     0.72676   0.51740   0.03294   0.00000  Uiso   1.00
H366   H     0.93991   0.51740   0.46706   0.00000  Uiso   1.00
H367   H     0.70409   0.42651   0.25064   0.00000  Uiso   1.00
H368   H     0.96256   0.57355   0.24976   0.00000  Uiso   1.00
H369   H     0.96258   0.42651   0.24936   0.00000  Uiso   1.00
H370   H     0.70411   0.57355   0.25024   0.00000  Uiso   1.00
H371   H     0.88823   0.37534   0.28988   0.00000  Uiso   1.00
H372   H     0.77856   0.62451   0.20989   0.00000  Uiso   1.00
H373   H     0.77843   0.37534   0.21012   0.00000  Uiso   1.00
H374   H     0.88810   0.62451   0.29011   0.00000  Uiso   1.00
N375   N     0.83333   0.61907   0.25000   0.00000  Uiso   1.00
N376   N     0.83333   0.38093   0.25000   0.00000  Uiso   1.00
O377   O     0.77226   0.53821   0.25000   0.00000  Uiso   1.00
O378   O     0.89441   0.46179   0.25001   0.00000  Uiso   1.00
O379   O     0.89441   0.53821   0.25001   0.00000  Uiso   1.00
O380   O     0.77226   0.46179   0.25000   0.00000  Uiso   1.00
O381   O     0.83333   0.53823   0.18393   0.00000  Uiso   1.00
O382   O     0.83334   0.46177   0.31608   0.00000  Uiso   1.00
O383   O     0.83334   0.53823   0.31608   0.00000  Uiso   1.00
O384   O     0.83333   0.46177   0.18393   0.00000  Uiso   1.00
Zn385  Zn    0.83333   0.55104   0.25000   0.00000  Uiso   1.00
Zn386  Zn    0.83333   0.44896   0.25000   0.00000  Uiso   1.00
S387   S     0.92210   0.48351   0.38135   0.00000  Uiso   1.00
O388   O     0.94068   0.52537   0.36117   0.00000  Uiso   1.00
O389   O     0.95308   0.46237   0.41328   0.00000  Uiso   1.00
O390   O     0.91259   0.44552   0.34067   0.00000  Uiso   1.00
H391   H     0.94000   0.43206   0.33394   0.00000  Uiso   1.00
S392   S     0.74456   0.48351   0.11865   0.00000  Uiso   1.00
O393   O     0.72599   0.52537   0.13883   0.00000  Uiso   1.00
O394   O     0.71359   0.46237   0.08672   0.00000  Uiso   1.00
O395   O     0.75408   0.44552   0.15933   0.00000  Uiso   1.00
H396   H     0.72666   0.43206   0.16607   0.00000  Uiso   1.00
C397   C     0.08663   0.83335   0.25036   0.00000  Uiso   1.00
C398   C     0.24671   0.83335   0.24964   0.00000  Uiso   1.00
C399   C     0.09017   0.84544   0.01835   0.00000  Uiso   1.00
C400   C     0.24316   0.84544   0.48165   0.00000  Uiso   1.00
C401   C     0.02128   0.79206   0.25037   0.00000  Uiso   1.00
C402   C     0.31204   0.87468   0.24981   0.00000  Uiso   1.00
C403   C     0.31205   0.79206   0.24963   0.00000  Uiso   1.00
C404   C     0.02129   0.87468   0.25019   0.00000  Uiso   1.00
C405   C     0.29086   0.83336   0.24956   0.00000  Uiso   1.00
C406   C     0.04247   0.83336   0.25044   0.00000  Uiso   1.00
C407   C     0.19714   0.69061   0.27220   0.00000  Uiso   1.00
C408   C     0.13623   0.97600   0.22773   0.00000  Uiso   1.00
C409   C     0.13619   0.69061   0.22780   0.00000  Uiso   1.00
C410   C     0.19711   0.97600   0.27227   0.00000  Uiso   1.00
C411   C     0.16428   0.83334   0.16351   0.00000  Uiso   1.00
C412   C     0.16906   0.83334   0.33649   0.00000  Uiso   1.00
C413   C     0.20816   0.83173   0.40877   0.00000  Uiso   1.00
C414   C     0.12517   0.83173   0.09123   0.00000  Uiso   1.00
C415   C     0.17024   0.83379   0.38433   0.00000  Uiso   1.00
C416   C     0.16309   0.83379   0.11567   0.00000  Uiso   1.00
C417   C     0.13225   0.83996   0.40503   0.00000  Uiso   1.00
C418   C     0.20108   0.83996   0.09497   0.00000  Uiso   1.00
C419   C     0.13055   0.84219   0.45111   0.00000  Uiso   1.00
C420   C     0.20279   0.84219   0.04889   0.00000  Uiso   1.00
C421   C     0.16771   0.84110   0.47659   0.00000  Uiso   1.00
C422   C     0.16562   0.84110   0.02341   0.00000  Uiso   1.00
C423   C     0.20689   0.83927   0.45538   0.00000  Uiso   1.00
C424   C     0.12644   0.83927   0.04462   0.00000  Uiso   1.00
C425   C     0.09220   0.84633   0.47198   0.00000  Uiso   1.00
C426   C     0.24113   0.84633   0.02802   0.00000  Uiso   1.00
H427   H     0.10382   0.84198   0.38500   0.00000  Uiso   1.00
H428   H     0.22952   0.84198   0.11500   0.00000  Uiso   1.00
H429   H     0.06367   0.84967   0.45242   0.00000  Uiso   1.00
H430   H     0.26966   0.84967   0.04758   0.00000  Uiso   1.00
H431   H     0.06009   0.85073   0.03294   0.00000  Uiso   1.00
H432   H     0.27324   0.85073   0.46706   0.00000  Uiso   1.00
H433   H     0.03742   0.75985   0.25064   0.00000  Uiso   1.00
H434   H     0.29589   0.90688   0.24976   0.00000  Uiso   1.00
H435   H     0.29591   0.75985   0.24936   0.00000  Uiso   1.00
H436   H     0.03744   0.90688   0.25024   0.00000  Uiso   1.00
H437   H     0.22157   0.70867   0.28988   0.00000  Uiso   1.00
H438   H     0.11190   0.95785   0.20989   0.00000  Uiso   1.00
H439   H     0.11177   0.70867   0.21012   0.00000  Uiso   1.00
H440   H     0.22144   0.95785   0.29011   0.00000  Uiso   1.00
N441   N     0.16667   0.95240   0.25000   0.00000  Uiso   1.00
N442   N     0.16667   0.71427   0.25000   0.00000  Uiso   1.00
O443   O     0.10559   0.87154   0.25000   0.00000  Uiso   1.00
O444   O     0.22774   0.79513   0.25001   0.00000  Uiso   1.00
O445   O     0.22774   0.87154   0.25001   0.00000  Uiso   1.00
O446   O     0.10559   0.79513   0.25000   0.00000  Uiso   1.00
O447   O     0.16666   0.87156   0.18393   0.00000  Uiso   1.00
O448   O     0.16667   0.79511   0.31608   0.00000  Uiso   1.00
O449   O     0.16667   0.87156   0.31608   0.00000  Uiso   1.00
O450   O     0.16666   0.79511   0.18393   0.00000  Uiso   1.00
Zn451  Zn    0.16667   0.88437   0.25000   0.00000  Uiso   1.00
Zn452  Zn    0.16667   0.78229   0.25000   0.00000  Uiso   1.00
S453   S     0.25543   0.81685   0.38135   0.00000  Uiso   1.00
O454   O     0.27401   0.85870   0.36117   0.00000  Uiso   1.00
O455   O     0.28641   0.79570   0.41328   0.00000  Uiso   1.00
O456   O     0.24592   0.77885   0.34067   0.00000  Uiso   1.00
H457   H     0.27334   0.76539   0.33394   0.00000  Uiso   1.00
S458   S     0.07790   0.81685   0.11865   0.00000  Uiso   1.00
O459   O     0.05932   0.85870   0.13883   0.00000  Uiso   1.00
O460   O     0.04692   0.79570   0.08672   0.00000  Uiso   1.00
O461   O     0.08741   0.77885   0.15933   0.00000  Uiso   1.00
H462   H     0.06000   0.76539   0.16607   0.00000  Uiso   1.00
C463   C     0.41996   0.83335   0.25036   0.00000  Uiso   1.00
C464   C     0.58004   0.83335   0.24964   0.00000  Uiso   1.00
C465   C     0.42350   0.84544   0.01835   0.00000  Uiso   1.00
C466   C     0.57650   0.84544   0.48165   0.00000  Uiso   1.00
C467   C     0.35461   0.79206   0.25037   0.00000  Uiso   1.00
C468   C     0.64538   0.87468   0.24981   0.00000  Uiso   1.00
C469   C     0.64539   0.79206   0.24963   0.00000  Uiso   1.00
C470   C     0.35462   0.87468   0.25019   0.00000  Uiso   1.00
C471   C     0.62419   0.83336   0.24956   0.00000  Uiso   1.00
C472   C     0.37581   0.83336   0.25044   0.00000  Uiso   1.00
C473   C     0.53047   0.69061   0.27220   0.00000  Uiso   1.00
C474   C     0.46956   0.97600   0.22773   0.00000  Uiso   1.00
C475   C     0.46953   0.69061   0.22780   0.00000  Uiso   1.00
C476   C     0.53044   0.97600   0.27227   0.00000  Uiso   1.00
C477   C     0.49761   0.83334   0.16351   0.00000  Uiso   1.00
C478   C     0.50239   0.83334   0.33649   0.00000  Uiso   1.00
C479   C     0.54149   0.83173   0.40877   0.00000  Uiso   1.00
C480   C     0.45851   0.83173   0.09123   0.00000  Uiso   1.00
C481   C     0.50358   0.83379   0.38433   0.00000  Uiso   1.00
C482   C     0.49642   0.83379   0.11567   0.00000  Uiso   1.00
C483   C     0.46559   0.83996   0.40503   0.00000  Uiso   1.00
C484   C     0.53441   0.83996   0.09497   0.00000  Uiso   1.00
C485   C     0.46388   0.84219   0.45111   0.00000  Uiso   1.00
C486   C     0.53612   0.84219   0.04889   0.00000  Uiso   1.00
C487   C     0.50105   0.84110   0.47659   0.00000  Uiso   1.00
C488   C     0.49895   0.84110   0.02341   0.00000  Uiso   1.00
C489   C     0.54023   0.83927   0.45538   0.00000  Uiso   1.00
C490   C     0.45977   0.83927   0.04462   0.00000  Uiso   1.00
C491   C     0.42553   0.84633   0.47198   0.00000  Uiso   1.00
C492   C     0.57447   0.84633   0.02802   0.00000  Uiso   1.00
H493   H     0.43715   0.84198   0.38500   0.00000  Uiso   1.00
H494   H     0.56285   0.84198   0.11500   0.00000  Uiso   1.00
H495   H     0.39700   0.84967   0.45242   0.00000  Uiso   1.00
H496   H     0.60300   0.84967   0.04758   0.00000  Uiso   1.00
H497   H     0.39343   0.85073   0.03294   0.00000  Uiso   1.00
H498   H     0.60657   0.85073   0.46706   0.00000  Uiso   1.00
H499   H     0.37075   0.75985   0.25064   0.00000  Uiso   1.00
H500   H     0.62922   0.90688   0.24976   0.00000  Uiso   1.00
H501   H     0.62925   0.75985   0.24936   0.00000  Uiso   1.00
H502   H     0.37077   0.90688   0.25024   0.00000  Uiso   1.00
H503   H     0.55490   0.70867   0.28988   0.00000  Uiso   1.00
H504   H     0.44523   0.95785   0.20989   0.00000  Uiso   1.00
H505   H     0.44510   0.70867   0.21012   0.00000  Uiso   1.00
H506   H     0.55477   0.95785   0.29011   0.00000  Uiso   1.00
N507   N     0.50000   0.95240   0.25000   0.00000  Uiso   1.00
N508   N     0.50000   0.71427   0.25000   0.00000  Uiso   1.00
O509   O     0.43892   0.87154   0.25000   0.00000  Uiso   1.00
O510   O     0.56108   0.79513   0.25001   0.00000  Uiso   1.00
O511   O     0.56108   0.87154   0.25001   0.00000  Uiso   1.00
O512   O     0.43892   0.79513   0.25000   0.00000  Uiso   1.00
O513   O     0.49999   0.87156   0.18393   0.00000  Uiso   1.00
O514   O     0.50001   0.79511   0.31608   0.00000  Uiso   1.00
O515   O     0.50001   0.87156   0.31608   0.00000  Uiso   1.00
O516   O     0.49999   0.79511   0.18393   0.00000  Uiso   1.00
Zn517  Zn    0.50000   0.88437   0.25000   0.00000  Uiso   1.00
Zn518  Zn    0.50000   0.78229   0.25000   0.00000  Uiso   1.00
S519   S     0.58877   0.81685   0.38135   0.00000  Uiso   1.00
O520   O     0.60735   0.85870   0.36117   0.00000  Uiso   1.00
O521   O     0.61975   0.79570   0.41328   0.00000  Uiso   1.00
O522   O     0.57926   0.77885   0.34067   0.00000  Uiso   1.00
H523   H     0.60667   0.76539   0.33394   0.00000  Uiso   1.00
S524   S     0.41123   0.81685   0.11865   0.00000  Uiso   1.00
O525   O     0.39265   0.85870   0.13883   0.00000  Uiso   1.00
O526   O     0.38025   0.79570   0.08672   0.00000  Uiso   1.00
O527   O     0.42074   0.77885   0.15933   0.00000  Uiso   1.00
H528   H     0.39333   0.76539   0.16607   0.00000  Uiso   1.00
C529   C     0.75329   0.83335   0.25036   0.00000  Uiso   1.00
C530   C     0.91337   0.83335   0.24964   0.00000  Uiso   1.00
C531   C     0.75684   0.84544   0.01835   0.00000  Uiso   1.00
C532   C     0.90983   0.84544   0.48165   0.00000  Uiso   1.00
C533   C     0.68795   0.79206   0.25037   0.00000  Uiso   1.00
C534   C     0.97871   0.87468   0.24981   0.00000  Uiso   1.00
C535   C     0.97872   0.79206   0.24963   0.00000  Uiso   1.00
C536   C     0.68796   0.87468   0.25019   0.00000  Uiso   1.00
C537   C     0.95753   0.83336   0.24956   0.00000  Uiso   1.00
C538   C     0.70914   0.83336   0.25044   0.00000  Uiso   1.00
C539   C     0.86381   0.69061   0.27220   0.00000  Uiso   1.00
C540   C     0.80289   0.97600   0.22773   0.00000  Uiso   1.00
C541   C     0.80286   0.69061   0.22780   0.00000  Uiso   1.00
C542   C     0.86377   0.97600   0.27227   0.00000  Uiso   1.00
C543   C     0.83094   0.83334   0.16351   0.00000  Uiso   1.00
C544   C     0.83572   0.83334   0.33649   0.00000  Uiso   1.00
C545   C     0.87483   0.83173   0.40877   0.00000  Uiso   1.00
C546   C     0.79184   0.83173   0.09123   0.00000  Uiso   1.00
C547   C     0.83691   0.83379   0.38433   0.00000  Uiso   1.00
C548   C     0.82976   0.83379   0.11567   0.00000  Uiso   1.00
C549   C     0.79892   0.83996   0.40503   0.00000  Uiso   1.00
C550   C     0.86775   0.83996   0.09497   0.00000  Uiso   1.00
C551   C     0.79721   0.84219   0.45111   0.00000  Uiso   1.00
C552   C     0.86945   0.84219   0.04889   0.00000  Uiso   1.00
C553   C     0.83438   0.84110   0.47659   0.00000  Uiso   1.00
C554   C     0.83229   0.84110   0.02341   0.00000  Uiso   1.00
C555   C     0.87356   0.83927   0.45538   0.00000  Uiso   1.00
C556   C     0.79311   0.83927   0.04462   0.00000  Uiso   1.00
C557   C     0.75887   0.84633   0.47198   0.00000  Uiso   1.00
C558   C     0.90780   0.84633   0.02802   0.00000  Uiso   1.00
H559   H     0.77048   0.84198   0.38500   0.00000  Uiso   1.00
H560   H     0.89618   0.84198   0.11500   0.00000  Uiso   1.00
H561   H     0.73034   0.84967   0.45242   0.00000  Uiso   1.00
H562   H     0.93633   0.84967   0.04758   0.00000  Uiso   1.00
H563   H     0.72676   0.85073   0.03294   0.00000  Uiso   1.00
H564   H     0.93991   0.85073   0.46706   0.00000  Uiso   1.00
H565   H     0.70409   0.75985   0.25064   0.00000  Uiso   1.00
H566   H     0.96256   0.90688   0.24976   0.00000  Uiso   1.00
H567   H     0.96258   0.75985   0.24936   0.00000  Uiso   1.00
H568   H     0.70411   0.90688   0.25024   0.00000  Uiso   1.00
H569   H     0.88823   0.70867   0.28988   0.00000  Uiso   1.00
H570   H     0.77856   0.95785   0.20989   0.00000  Uiso   1.00
H571   H     0.77843   0.70867   0.21012   0.00000  Uiso   1.00
H572   H     0.88810   0.95785   0.29011   0.00000  Uiso   1.00
N573   N     0.83333   0.95240   0.25000   0.00000  Uiso   1.00
N574   N     0.83333   0.71427   0.25000   0.00000  Uiso   1.00
O575   O     0.77226   0.87154   0.25000   0.00000  Uiso   1.00
O576   O     0.89441   0.79513   0.25001   0.00000  Uiso   1.00
O577   O     0.89441   0.87154   0.25001   0.00000  Uiso   1.00
O578   O     0.77226   0.79513   0.25000   0.00000  Uiso   1.00
O579   O     0.83333   0.87156   0.18393   0.00000  Uiso   1.00
O580   O     0.83334   0.79511   0.31608   0.00000  Uiso   1.00
O581   O     0.83334   0.87156   0.31608   0.00000  Uiso   1.00
O582   O     0.83333   0.79511   0.18393   0.00000  Uiso   1.00
Zn583  Zn    0.83333   0.88437   0.25000   0.00000  Uiso   1.00
Zn584  Zn    0.83333   0.78229   0.25000   0.00000  Uiso   1.00
S585   S     0.92210   0.81685   0.38135   0.00000  Uiso   1.00
O586   O     0.94068   0.85870   0.36117   0.00000  Uiso   1.00
O587   O     0.95308   0.79570   0.41328   0.00000  Uiso   1.00
O588   O     0.91259   0.77885   0.34067   0.00000  Uiso   1.00
H589   H     0.94000   0.76539   0.33394   0.00000  Uiso   1.00
S590   S     0.74456   0.81685   0.11865   0.00000  Uiso   1.00
O591   O     0.72599   0.85870   0.13883   0.00000  Uiso   1.00
O592   O     0.71359   0.79570   0.08672   0.00000  Uiso   1.00
O593   O     0.75408   0.77885   0.15933   0.00000  Uiso   1.00
H594   H     0.72666   0.76539   0.16607   0.00000  Uiso   1.00
C595   C     0.08663   0.16668   0.75036   0.00000  Uiso   1.00
C596   C     0.24671   0.16668   0.74964   0.00000  Uiso   1.00
C597   C     0.09017   0.17877   0.51835   0.00000  Uiso   1.00
C598   C     0.24316   0.17877   0.98165   0.00000  Uiso   1.00
C599   C     0.02128   0.12540   0.75037   0.00000  Uiso   1.00
C600   C     0.31204   0.20801   0.74981   0.00000  Uiso   1.00
C601   C     0.31205   0.12540   0.74963   0.00000  Uiso   1.00
C602   C     0.02129   0.20801   0.75019   0.00000  Uiso   1.00
C603   C     0.29086   0.16670   0.74956   0.00000  Uiso   1.00
C604   C     0.04247   0.16670   0.75044   0.00000  Uiso   1.00
C605   C     0.19714   0.02395   0.77220   0.00000  Uiso   1.00
C606   C     0.13623   0.30934   0.72773   0.00000  Uiso   1.00
C607   C     0.13619   0.02395   0.72780   0.00000  Uiso   1.00
C608   C     0.19711   0.30934   0.77227   0.00000  Uiso   1.00
C609   C     0.16428   0.16668   0.66351   0.00000  Uiso   1.00
C610   C     0.16906   0.16668   0.83649   0.00000  Uiso   1.00
C611   C     0.20816   0.16507   0.90877   0.00000  Uiso   1.00
C612   C     0.12517   0.16507   0.59123   0.00000  Uiso   1.00
C613   C     0.17024   0.16712   0.88433   0.00000  Uiso   1.00
C614   C     0.16309   0.16712   0.61567   0.00000  Uiso   1.00
C615   C     0.13225   0.17329   0.90503   0.00000  Uiso   1.00
C616   C     0.20108   0.17329   0.59497   0.00000  Uiso   1.00
C617   C     0.13055   0.17552   0.95111   0.00000  Uiso   1.00
C618   C     0.20279   0.17552   0.54889   0.00000  Uiso   1.00
C619   C     0.16771   0.17443   0.97659   0.00000  Uiso   1.00
C620   C     0.16562   0.17443   0.52341   0.00000  Uiso   1.00
C621   C     0.20689   0.17260   0.95538   0.00000  Uiso   1.00
C622   C     0.12644   0.17260   0.54462   0.00000  Uiso   1.00
C623   C     0.09220   0.17966   0.97198   0.00000  Uiso   1.00
C624   C     0.24113   0.17966   0.52802   0.00000  Uiso   1.00
H625   H     0.10382   0.17531   0.88500   0.00000  Uiso   1.00
H626   H     0.22952   0.17531   0.61500   0.00000  Uiso   1.00
H627   H     0.06367   0.18300   0.95242   0.00000  Uiso   1.00
H628   H     0.26966   0.18300   0.54758   0.00000  Uiso   1.00
H629   H     0.06009   0.18407   0.53294   0.00000  Uiso   1.00
H630   H     0.27324   0.18407   0.96706   0.00000  Uiso   1.00
H631   H     0.03742   0.09318   0.75064   0.00000  Uiso   1.00
H632   H     0.29589   0.24022   0.74976   0.00000  Uiso   1.00
H633   H     0.29591   0.09318   0.74936   0.00000  Uiso   1.00
H634   H     0.03744   0.24022   0.75024   0.00000  Uiso   1.00
H635   H     0.22157   0.04200   0.78988   0.00000  Uiso   1.00
H636   H     0.11190   0.29118   0.70989   0.00000  Uiso   1.00
H637   H     0.11177   0.04200   0.71012   0.00000  Uiso   1.00
H638   H     0.22144   0.29118   0.79011   0.00000  Uiso   1.00
N639   N     0.16667   0.28573   0.75000   0.00000  Uiso   1.00
N640   N     0.16667   0.04760   0.75000   0.00000  Uiso   1.00
O641   O     0.10559   0.20487   0.75000   0.00000  Uiso   1.00
O642   O     0.22774   0.12846   0.75001   0.00000  Uiso   1.00
O643   O     0.22774   0.20487   0.75001   0.00000  Uiso   1.00
O644   O     0.10559   0.12846   0.75000   0.00000  Uiso   1.00
O645   O     0.16666   0.20489   0.68393   0.00000  Uiso   1.00
O646   O     0.16667   0.12844   0.81608   0.00000  Uiso   1.00
O647   O     0.16667   0.20489   0.81608   0.00000  Uiso   1.00
O648   O     0.16666   0.12844   0.68393   0.00000  Uiso   1.00
Zn649  Zn    0.16667   0.21771   0.75000   0.00000  Uiso   1.00
Zn650  Zn    0.16667   0.11563   0.75000   0.00000  Uiso   1.00
S651   S     0.25543   0.15018   0.88135   0.00000  Uiso   1.00
O652   O     0.27401   0.19203   0.86117   0.00000  Uiso   1.00
O653   O     0.28641   0.12904   0.91328   0.00000  Uiso   1.00
O654   O     0.24592   0.11219   0.84067   0.00000  Uiso   1.00
H655   H     0.27334   0.09873   0.83394   0.00000  Uiso   1.00
S656   S     0.07790   0.15018   0.61865   0.00000  Uiso   1.00
O657   O     0.05932   0.19203   0.63883   0.00000  Uiso   1.00
O658   O     0.04692   0.12903   0.58672   0.00000  Uiso   1.00
O659   O     0.08741   0.11219   0.65933   0.00000  Uiso   1.00
H660   H     0.06000   0.09873   0.66607   0.00000  Uiso   1.00
C661   C     0.41996   0.16668   0.75036   0.00000  Uiso   1.00
C662   C     0.58004   0.16668   0.74964   0.00000  Uiso   1.00
C663   C     0.42350   0.17877   0.51835   0.00000  Uiso   1.00
C664   C     0.57650   0.17877   0.98165   0.00000  Uiso   1.00
C665   C     0.35461   0.12540   0.75037   0.00000  Uiso   1.00
C666   C     0.64538   0.20801   0.74981   0.00000  Uiso   1.00
C667   C     0.64539   0.12540   0.74963   0.00000  Uiso   1.00
C668   C     0.35462   0.20801   0.75019   0.00000  Uiso   1.00
C669   C     0.62419   0.16670   0.74956   0.00000  Uiso   1.00
C670   C     0.37581   0.16670   0.75044   0.00000  Uiso   1.00
C671   C     0.53047   0.02395   0.77220   0.00000  Uiso   1.00
C672   C     0.46956   0.30934   0.72773   0.00000  Uiso   1.00
C673   C     0.46953   0.02395   0.72780   0.00000  Uiso   1.00
C674   C     0.53044   0.30934   0.77227   0.00000  Uiso   1.00
C675   C     0.49761   0.16668   0.66351   0.00000  Uiso   1.00
C676   C     0.50239   0.16668   0.83649   0.00000  Uiso   1.00
C677   C     0.54149   0.16507   0.90877   0.00000  Uiso   1.00
C678   C     0.45851   0.16507   0.59123   0.00000  Uiso   1.00
C679   C     0.50358   0.16712   0.88433   0.00000  Uiso   1.00
C680   C     0.49642   0.16712   0.61567   0.00000  Uiso   1.00
C681   C     0.46559   0.17329   0.90503   0.00000  Uiso   1.00
C682   C     0.53441   0.17329   0.59497   0.00000  Uiso   1.00
C683   C     0.46388   0.17552   0.95111   0.00000  Uiso   1.00
C684   C     0.53612   0.17552   0.54889   0.00000  Uiso   1.00
C685   C     0.50105   0.17443   0.97659   0.00000  Uiso   1.00
C686   C     0.49895   0.17443   0.52341   0.00000  Uiso   1.00
C687   C     0.54023   0.17260   0.95538   0.00000  Uiso   1.00
C688   C     0.45977   0.17260   0.54462   0.00000  Uiso   1.00
C689   C     0.42553   0.17966   0.97198   0.00000  Uiso   1.00
C690   C     0.57447   0.17966   0.52802   0.00000  Uiso   1.00
H691   H     0.43715   0.17531   0.88500   0.00000  Uiso   1.00
H692   H     0.56285   0.17531   0.61500   0.00000  Uiso   1.00
H693   H     0.39700   0.18300   0.95242   0.00000  Uiso   1.00
H694   H     0.60300   0.18300   0.54758   0.00000  Uiso   1.00
H695   H     0.39343   0.18407   0.53294   0.00000  Uiso   1.00
H696   H     0.60657   0.18407   0.96706   0.00000  Uiso   1.00
H697   H     0.37075   0.09318   0.75064   0.00000  Uiso   1.00
H698   H     0.62922   0.24022   0.74976   0.00000  Uiso   1.00
H699   H     0.62925   0.09318   0.74936   0.00000  Uiso   1.00
H700   H     0.37077   0.24022   0.75024   0.00000  Uiso   1.00
H701   H     0.55490   0.04200   0.78988   0.00000  Uiso   1.00
H702   H     0.44523   0.29118   0.70989   0.00000  Uiso   1.00
H703   H     0.44510   0.04200   0.71012   0.00000  Uiso   1.00
H704   H     0.55477   0.29118   0.79011   0.00000  Uiso   1.00
N705   N     0.50000   0.28573   0.75000   0.00000  Uiso   1.00
N706   N     0.50000   0.04760   0.75000   0.00000  Uiso   1.00
O707   O     0.43892   0.20487   0.75000   0.00000  Uiso   1.00
O708   O     0.56108   0.12846   0.75001   0.00000  Uiso   1.00
O709   O     0.56108   0.20487   0.75001   0.00000  Uiso   1.00
O710   O     0.43892   0.12846   0.75000   0.00000  Uiso   1.00
O711   O     0.49999   0.20489   0.68393   0.00000  Uiso   1.00
O712   O     0.50001   0.12844   0.81608   0.00000  Uiso   1.00
O713   O     0.50001   0.20489   0.81608   0.00000  Uiso   1.00
O714   O     0.49999   0.12844   0.68393   0.00000  Uiso   1.00
Zn715  Zn    0.50000   0.21771   0.75000   0.00000  Uiso   1.00
Zn716  Zn    0.50000   0.11563   0.75000   0.00000  Uiso   1.00
S717   S     0.58877   0.15018   0.88135   0.00000  Uiso   1.00
O718   O     0.60735   0.19203   0.86117   0.00000  Uiso   1.00
O719   O     0.61975   0.12904   0.91328   0.00000  Uiso   1.00
O720   O     0.57926   0.11219   0.84067   0.00000  Uiso   1.00
H721   H     0.60667   0.09873   0.83394   0.00000  Uiso   1.00
S722   S     0.41123   0.15018   0.61865   0.00000  Uiso   1.00
O723   O     0.39265   0.19203   0.63883   0.00000  Uiso   1.00
O724   O     0.38025   0.12903   0.58672   0.00000  Uiso   1.00
O725   O     0.42074   0.11219   0.65933   0.00000  Uiso   1.00
H726   H     0.39333   0.09873   0.66607   0.00000  Uiso   1.00
C727   C     0.75329   0.16668   0.75036   0.00000  Uiso   1.00
C728   C     0.91337   0.16668   0.74964   0.00000  Uiso   1.00
C729   C     0.75684   0.17877   0.51835   0.00000  Uiso   1.00
C730   C     0.90983   0.17877   0.98165   0.00000  Uiso   1.00
C731   C     0.68795   0.12540   0.75037   0.00000  Uiso   1.00
C732   C     0.97871   0.20801   0.74981   0.00000  Uiso   1.00
C733   C     0.97872   0.12540   0.74963   0.00000  Uiso   1.00
C734   C     0.68796   0.20801   0.75019   0.00000  Uiso   1.00
C735   C     0.95753   0.16670   0.74956   0.00000  Uiso   1.00
C736   C     0.70914   0.16670   0.75044   0.00000  Uiso   1.00
C737   C     0.86381   0.02395   0.77220   0.00000  Uiso   1.00
C738   C     0.80289   0.30934   0.72773   0.00000  Uiso   1.00
C739   C     0.80286   0.02395   0.72780   0.00000  Uiso   1.00
C740   C     0.86377   0.30934   0.77227   0.00000  Uiso   1.00
C741   C     0.83094   0.16668   0.66351   0.00000  Uiso   1.00
C742   C     0.83572   0.16668   0.83649   0.00000  Uiso   1.00
C743   C     0.87483   0.16507   0.90877   0.00000  Uiso   1.00
C744   C     0.79184   0.16507   0.59123   0.00000  Uiso   1.00
C745   C     0.83691   0.16712   0.88433   0.00000  Uiso   1.00
C746   C     0.82976   0.16712   0.61567   0.00000  Uiso   1.00
C747   C     0.79892   0.17329   0.90503   0.00000  Uiso   1.00
C748   C     0.86775   0.17329   0.59497   0.00000  Uiso   1.00
C749   C     0.79721   0.17552   0.95111   0.00000  Uiso   1.00
C750   C     0.86945   0.17552   0.54889   0.00000  Uiso   1.00
C751   C     0.83438   0.17443   0.97659   0.00000  Uiso   1.00
C752   C     0.83229   0.17443   0.52341   0.00000  Uiso   1.00
C753   C     0.87356   0.17260   0.95538   0.00000  Uiso   1.00
C754   C     0.79311   0.17260   0.54462   0.00000  Uiso   1.00
C755   C     0.75887   0.17966   0.97198   0.00000  Uiso   1.00
C756   C     0.90780   0.17966   0.52802   0.00000  Uiso   1.00
H757   H     0.77048   0.17531   0.88500   0.00000  Uiso   1.00
H758   H     0.89618   0.17531   0.61500   0.00000  Uiso   1.00
H759   H     0.73034   0.18300   0.95242   0.00000  Uiso   1.00
H760   H     0.93633   0.18300   0.54758   0.00000  Uiso   1.00
H761   H     0.72676   0.18407   0.53294   0.00000  Uiso   1.00
H762   H     0.93991   0.18407   0.96706   0.00000  Uiso   1.00
H763   H     0.70409   0.09318   0.75064   0.00000  Uiso   1.00
H764   H     0.96256   0.24022   0.74976   0.00000  Uiso   1.00
H765   H     0.96258   0.09318   0.74936   0.00000  Uiso   1.00
H766   H     0.70411   0.24022   0.75024   0.00000  Uiso   1.00
H767   H     0.88823   0.04200   0.78988   0.00000  Uiso   1.00
H768   H     0.77856   0.29118   0.70989   0.00000  Uiso   1.00
H769   H     0.77843   0.04200   0.71012   0.00000  Uiso   1.00
H770   H     0.88810   0.29118   0.79011   0.00000  Uiso   1.00
N771   N     0.83333   0.28573   0.75000   0.00000  Uiso   1.00
N772   N     0.83333   0.04760   0.75000   0.00000  Uiso   1.00
O773   O     0.77226   0.20487   0.75000   0.00000  Uiso   1.00
O774   O     0.89441   0.12846   0.75001   0.00000  Uiso   1.00
O775   O     0.89441   0.20487   0.75001   0.00000  Uiso   1.00
O776   O     0.77226   0.12846   0.75000   0.00000  Uiso   1.00
O777   O     0.83333   0.20489   0.68393   0.00000  Uiso   1.00
O778   O     0.83334   0.12844   0.81608   0.00000  Uiso   1.00
O779   O     0.83334   0.20489   0.81608   0.00000  Uiso   1.00
O780   O     0.83333   0.12844   0.68393   0.00000  Uiso   1.00
Zn781  Zn    0.83333   0.21771   0.75000   0.00000  Uiso   1.00
Zn782  Zn    0.83333   0.11563   0.75000   0.00000  Uiso   1.00
S783   S     0.92210   0.15018   0.88135   0.00000  Uiso   1.00
O784   O     0.94068   0.19203   0.86117   0.00000  Uiso   1.00
O785   O     0.95308   0.12904   0.91328   0.00000  Uiso   1.00
O786   O     0.91259   0.11219   0.84067   0.00000  Uiso   1.00
H787   H     0.94000   0.09873   0.83394   0.00000  Uiso   1.00
S788   S     0.74456   0.15018   0.61865   0.00000  Uiso   1.00
O789   O     0.72599   0.19203   0.63883   0.00000  Uiso   1.00
O790   O     0.71359   0.12903   0.58672   0.00000  Uiso   1.00
O791   O     0.75408   0.11219   0.65933   0.00000  Uiso   1.00
H792   H     0.72666   0.09873   0.66607   0.00000  Uiso   1.00
C793   C     0.08663   0.50001   0.75036   0.00000  Uiso   1.00
C794   C     0.24671   0.50001   0.74964   0.00000  Uiso   1.00
C795   C     0.09017   0.51210   0.51835   0.00000  Uiso   1.00
C796   C     0.24316   0.51211   0.98165   0.00000  Uiso   1.00
C797   C     0.02128   0.45873   0.75037   0.00000  Uiso   1.00
C798   C     0.31204   0.54134   0.74981   0.00000  Uiso   1.00
C799   C     0.31205   0.45873   0.74963   0.00000  Uiso   1.00
C800   C     0.02129   0.54134   0.75019   0.00000  Uiso   1.00
C801   C     0.29086   0.50003   0.74956   0.00000  Uiso   1.00
C802   C     0.04247   0.50003   0.75044   0.00000  Uiso   1.00
C803   C     0.19714   0.35728   0.77220   0.00000  Uiso   1.00
C804   C     0.13623   0.64267   0.72773   0.00000  Uiso   1.00
C805   C     0.13619   0.35728   0.72780   0.00000  Uiso   1.00
C806   C     0.19711   0.64267   0.77227   0.00000  Uiso   1.00
C807   C     0.16428   0.50001   0.66351   0.00000  Uiso   1.00
C808   C     0.16906   0.50001   0.83649   0.00000  Uiso   1.00
C809   C     0.20816   0.49840   0.90877   0.00000  Uiso   1.00
C810   C     0.12517   0.49840   0.59123   0.00000  Uiso   1.00
C811   C     0.17024   0.50046   0.88433   0.00000  Uiso   1.00
C812   C     0.16309   0.50046   0.61567   0.00000  Uiso   1.00
C813   C     0.13225   0.50663   0.90503   0.00000  Uiso   1.00
C814   C     0.20108   0.50663   0.59497   0.00000  Uiso   1.00
C815   C     0.13055   0.50885   0.95111   0.00000  Uiso   1.00
C816   C     0.20279   0.50885   0.54889   0.00000  Uiso   1.00
C817   C     0.16771   0.50777   0.97659   0.00000  Uiso   1.00
C818   C     0.16562   0.50777   0.52341   0.00000  Uiso   1.00
C819   C     0.20689   0.50593   0.95538   0.00000  Uiso   1.00
C820   C     0.12644   0.50593   0.54462   0.00000  Uiso   1.00
C821   C     0.09220   0.51299   0.97198   0.00000  Uiso   1.00
C822   C     0.24113   0.51299   0.52802   0.00000  Uiso   1.00
H823   H     0.10382   0.50864   0.88500   0.00000  Uiso   1.00
H824   H     0.22952   0.50864   0.61500   0.00000  Uiso   1.00
H825   H     0.06367   0.51634   0.95242   0.00000  Uiso   1.00
H826   H     0.26966   0.51634   0.54758   0.00000  Uiso   1.00
H827   H     0.06009   0.51740   0.53294   0.00000  Uiso   1.00
H828   H     0.27324   0.51740   0.96706   0.00000  Uiso   1.00
H829   H     0.03742   0.42651   0.75064   0.00000  Uiso   1.00
H830   H     0.29589   0.57355   0.74976   0.00000  Uiso   1.00
H831   H     0.29591   0.42651   0.74936   0.00000  Uiso   1.00
H832   H     0.03744   0.57355   0.75024   0.00000  Uiso   1.00
H833   H     0.22157   0.37534   0.78988   0.00000  Uiso   1.00
H834   H     0.11190   0.62451   0.70989   0.00000  Uiso   1.00
H835   H     0.11177   0.37534   0.71012   0.00000  Uiso   1.00
H836   H     0.22144   0.62451   0.79011   0.00000  Uiso   1.00
N837   N     0.16667   0.61907   0.75000   0.00000  Uiso   1.00
N838   N     0.16667   0.38093   0.75000   0.00000  Uiso   1.00
O839   O     0.10559   0.53821   0.75000   0.00000  Uiso   1.00
O840   O     0.22774   0.46179   0.75001   0.00000  Uiso   1.00
O841   O     0.22774   0.53821   0.75001   0.00000  Uiso   1.00
O842   O     0.10559   0.46179   0.75000   0.00000  Uiso   1.00
O843   O     0.16666   0.53823   0.68393   0.00000  Uiso   1.00
O844   O     0.16667   0.46177   0.81608   0.00000  Uiso   1.00
O845   O     0.16667   0.53823   0.81608   0.00000  Uiso   1.00
O846   O     0.16666   0.46177   0.68393   0.00000  Uiso   1.00
Zn847  Zn    0.16667   0.55104   0.75000   0.00000  Uiso   1.00
Zn848  Zn    0.16667   0.44896   0.75000   0.00000  Uiso   1.00
S849   S     0.25543   0.48351   0.88135   0.00000  Uiso   1.00
O850   O     0.27401   0.52537   0.86117   0.00000  Uiso   1.00
O851   O     0.28641   0.46237   0.91328   0.00000  Uiso   1.00
O852   O     0.24592   0.44552   0.84067   0.00000  Uiso   1.00
H853   H     0.27334   0.43206   0.83394   0.00000  Uiso   1.00
S854   S     0.07790   0.48351   0.61865   0.00000  Uiso   1.00
O855   O     0.05932   0.52537   0.63883   0.00000  Uiso   1.00
O856   O     0.04692   0.46237   0.58672   0.00000  Uiso   1.00
O857   O     0.08741   0.44552   0.65933   0.00000  Uiso   1.00
H858   H     0.06000   0.43206   0.66607   0.00000  Uiso   1.00
C859   C     0.41996   0.50001   0.75036   0.00000  Uiso   1.00
C860   C     0.58004   0.50001   0.74964   0.00000  Uiso   1.00
C861   C     0.42350   0.51210   0.51835   0.00000  Uiso   1.00
C862   C     0.57650   0.51211   0.98165   0.00000  Uiso   1.00
C863   C     0.35461   0.45873   0.75037   0.00000  Uiso   1.00
C864   C     0.64538   0.54134   0.74981   0.00000  Uiso   1.00
C865   C     0.64539   0.45873   0.74963   0.00000  Uiso   1.00
C866   C     0.35462   0.54134   0.75019   0.00000  Uiso   1.00
C867   C     0.62419   0.50003   0.74956   0.00000  Uiso   1.00
C868   C     0.37581   0.50003   0.75044   0.00000  Uiso   1.00
C869   C     0.53047   0.35728   0.77220   0.00000  Uiso   1.00
C870   C     0.46956   0.64267   0.72773   0.00000  Uiso   1.00
C871   C     0.46953   0.35728   0.72780   0.00000  Uiso   1.00
C872   C     0.53044   0.64267   0.77227   0.00000  Uiso   1.00
C873   C     0.49761   0.50001   0.66351   0.00000  Uiso   1.00
C874   C     0.50239   0.50001   0.83649   0.00000  Uiso   1.00
C875   C     0.54149   0.49840   0.90877   0.00000  Uiso   1.00
C876   C     0.45851   0.49840   0.59123   0.00000  Uiso   1.00
C877   C     0.50358   0.50046   0.88433   0.00000  Uiso   1.00
C878   C     0.49642   0.50046   0.61567   0.00000  Uiso   1.00
C879   C     0.46559   0.50663   0.90503   0.00000  Uiso   1.00
C880   C     0.53441   0.50663   0.59497   0.00000  Uiso   1.00
C881   C     0.46388   0.50885   0.95111   0.00000  Uiso   1.00
C882   C     0.53612   0.50885   0.54889   0.00000  Uiso   1.00
C883   C     0.50105   0.50777   0.97659   0.00000  Uiso   1.00
C884   C     0.49895   0.50777   0.52341   0.00000  Uiso   1.00
C885   C     0.54023   0.50593   0.95538   0.00000  Uiso   1.00
C886   C     0.45977   0.50593   0.54462   0.00000  Uiso   1.00
C887   C     0.42553   0.51299   0.97198   0.00000  Uiso   1.00
C888   C     0.57447   0.51299   0.52802   0.00000  Uiso   1.00
H889   H     0.43715   0.50864   0.88500   0.00000  Uiso   1.00
H890   H     0.56285   0.50864   0.61500   0.00000  Uiso   1.00
H891   H     0.39700   0.51634   0.95242   0.00000  Uiso   1.00
H892   H     0.60300   0.51634   0.54758   0.00000  Uiso   1.00
H893   H     0.39343   0.51740   0.53294   0.00000  Uiso   1.00
H894   H     0.60657   0.51740   0.96706   0.00000  Uiso   1.00
H895   H     0.37075   0.42651   0.75064   0.00000  Uiso   1.00
H896   H     0.62922   0.57355   0.74976   0.00000  Uiso   1.00
H897   H     0.62925   0.42651   0.74936   0.00000  Uiso   1.00
H898   H     0.37077   0.57355   0.75024   0.00000  Uiso   1.00
H899   H     0.55490   0.37534   0.78988   0.00000  Uiso   1.00
H900   H     0.44523   0.62451   0.70989   0.00000  Uiso   1.00
H901   H     0.44510   0.37534   0.71012   0.00000  Uiso   1.00
H902   H     0.55477   0.62451   0.79011   0.00000  Uiso   1.00
N903   N     0.50000   0.61907   0.75000   0.00000  Uiso   1.00
N904   N     0.50000   0.38093   0.75000   0.00000  Uiso   1.00
O905   O     0.43892   0.53821   0.75000   0.00000  Uiso   1.00
O906   O     0.56108   0.46179   0.75001   0.00000  Uiso   1.00
O907   O     0.56108   0.53821   0.75001   0.00000  Uiso   1.00
O908   O     0.43892   0.46179   0.75000   0.00000  Uiso   1.00
O909   O     0.49999   0.53823   0.68393   0.00000  Uiso   1.00
O910   O     0.50001   0.46177   0.81608   0.00000  Uiso   1.00
O911   O     0.50001   0.53823   0.81608   0.00000  Uiso   1.00
O912   O     0.49999   0.46177   0.68393   0.00000  Uiso   1.00
Zn913  Zn    0.50000   0.55104   0.75000   0.00000  Uiso   1.00
Zn914  Zn    0.50000   0.44896   0.75000   0.00000  Uiso   1.00
S915   S     0.58877   0.48351   0.88135   0.00000  Uiso   1.00
O916   O     0.60735   0.52537   0.86117   0.00000  Uiso   1.00
O917   O     0.61975   0.46237   0.91328   0.00000  Uiso   1.00
O918   O     0.57926   0.44552   0.84067   0.00000  Uiso   1.00
H919   H     0.60667   0.43206   0.83394   0.00000  Uiso   1.00
S920   S     0.41123   0.48351   0.61865   0.00000  Uiso   1.00
O921   O     0.39265   0.52537   0.63883   0.00000  Uiso   1.00
O922   O     0.38025   0.46237   0.58672   0.00000  Uiso   1.00
O923   O     0.42074   0.44552   0.65933   0.00000  Uiso   1.00
H924   H     0.39333   0.43206   0.66607   0.00000  Uiso   1.00
C925   C     0.75329   0.50001   0.75036   0.00000  Uiso   1.00
C926   C     0.91337   0.50001   0.74964   0.00000  Uiso   1.00
C927   C     0.75684   0.51210   0.51835   0.00000  Uiso   1.00
C928   C     0.90983   0.51211   0.98165   0.00000  Uiso   1.00
C929   C     0.68795   0.45873   0.75037   0.00000  Uiso   1.00
C930   C     0.97871   0.54134   0.74981   0.00000  Uiso   1.00
C931   C     0.97872   0.45873   0.74963   0.00000  Uiso   1.00
C932   C     0.68796   0.54134   0.75019   0.00000  Uiso   1.00
C933   C     0.95753   0.50003   0.74956   0.00000  Uiso   1.00
C934   C     0.70914   0.50003   0.75044   0.00000  Uiso   1.00
C935   C     0.86381   0.35728   0.77220   0.00000  Uiso   1.00
C936   C     0.80289   0.64267   0.72773   0.00000  Uiso   1.00
C937   C     0.80286   0.35728   0.72780   0.00000  Uiso   1.00
C938   C     0.86377   0.64267   0.77227   0.00000  Uiso   1.00
C939   C     0.83094   0.50001   0.66351   0.00000  Uiso   1.00
C940   C     0.83572   0.50001   0.83649   0.00000  Uiso   1.00
C941   C     0.87483   0.49840   0.90877   0.00000  Uiso   1.00
C942   C     0.79184   0.49840   0.59123   0.00000  Uiso   1.00
C943   C     0.83691   0.50046   0.88433   0.00000  Uiso   1.00
C944   C     0.82976   0.50046   0.61567   0.00000  Uiso   1.00
C945   C     0.79892   0.50663   0.90503   0.00000  Uiso   1.00
C946   C     0.86775   0.50663   0.59497   0.00000  Uiso   1.00
C947   C     0.79721   0.50885   0.95111   0.00000  Uiso   1.00
C948   C     0.86945   0.50885   0.54889   0.00000  Uiso   1.00
C949   C     0.83438   0.50777   0.97659   0.00000  Uiso   1.00
C950   C     0.83229   0.50777   0.52341   0.00000  Uiso   1.00
C951   C     0.87356   0.50593   0.95538   0.00000  Uiso   1.00
C952   C     0.79311   0.50593   0.54462   0.00000  Uiso   1.00
C953   C     0.75887   0.51299   0.97198   0.00000  Uiso   1.00
C954   C     0.90780   0.51299   0.52802   0.00000  Uiso   1.00
H955   H     0.77048   0.50864   0.88500   0.00000  Uiso   1.00
H956   H     0.89618   0.50864   0.61500   0.00000  Uiso   1.00
H957   H     0.73034   0.51634   0.95242   0.00000  Uiso   1.00
H958   H     0.93633   0.51634   0.54758   0.00000  Uiso   1.00
H959   H     0.72676   0.51740   0.53294   0.00000  Uiso   1.00
H960   H     0.93991   0.51740   0.96706   0.00000  Uiso   1.00
H961   H     0.70409   0.42651   0.75064   0.00000  Uiso   1.00
H962   H     0.96256   0.57355   0.74976   0.00000  Uiso   1.00
H963   H     0.96258   0.42651   0.74936   0.00000  Uiso   1.00
H964   H     0.70411   0.57355   0.75024   0.00000  Uiso   1.00
H965   H     0.88823   0.37534   0.78988   0.00000  Uiso   1.00
H966   H     0.77856   0.62451   0.70989   0.00000  Uiso   1.00
H967   H     0.77843   0.37534   0.71012   0.00000  Uiso   1.00
H968   H     0.88810   0.62451   0.79011   0.00000  Uiso   1.00
N969   N     0.83333   0.61907   0.75000   0.00000  Uiso   1.00
N970   N     0.83333   0.38093   0.75000   0.00000  Uiso   1.00
O971   O     0.77226   0.53821   0.75000   0.00000  Uiso   1.00
O972   O     0.89441   0.46179   0.75001   0.00000  Uiso   1.00
O973   O     0.89441   0.53821   0.75001   0.00000  Uiso   1.00
O974   O     0.77226   0.46179   0.75000   0.00000  Uiso   1.00
O975   O     0.83333   0.53823   0.68393   0.00000  Uiso   1.00
O976   O     0.83334   0.46177   0.81608   0.00000  Uiso   1.00
O977   O     0.83334   0.53823   0.81608   0.00000  Uiso   1.00
O978   O     0.83333   0.46177   0.68393   0.00000  Uiso   1.00
Zn979  Zn    0.83333   0.55104   0.75000   0.00000  Uiso   1.00
Zn980  Zn    0.83333   0.44896   0.75000   0.00000  Uiso   1.00
S981   S     0.92210   0.48351   0.88135   0.00000  Uiso   1.00
O982   O     0.94068   0.52537   0.86117   0.00000  Uiso   1.00
O983   O     0.95308   0.46237   0.91328   0.00000  Uiso   1.00
O984   O     0.91259   0.44552   0.84067   0.00000  Uiso   1.00
H985   H     0.94000   0.43206   0.83394   0.00000  Uiso   1.00
S986   S     0.74456   0.48351   0.61865   0.00000  Uiso   1.00
O987   O     0.72599   0.52537   0.63883   0.00000  Uiso   1.00
O988   O     0.71359   0.46237   0.58672   0.00000  Uiso   1.00
O989   O     0.75408   0.44552   0.65933   0.00000  Uiso   1.00
H990   H     0.72666   0.43206   0.66607   0.00000  Uiso   1.00
C991   C     0.08663   0.83335   0.75036   0.00000  Uiso   1.00
C992   C     0.24671   0.83335   0.74964   0.00000  Uiso   1.00
C993   C     0.09017   0.84544   0.51835   0.00000  Uiso   1.00
C994   C     0.24316   0.84544   0.98165   0.00000  Uiso   1.00
C995   C     0.02128   0.79206   0.75037   0.00000  Uiso   1.00
C996   C     0.31204   0.87468   0.74981   0.00000  Uiso   1.00
C997   C     0.31205   0.79206   0.74963   0.00000  Uiso   1.00
C998   C     0.02129   0.87468   0.75019   0.00000  Uiso   1.00
C999   C     0.29086   0.83336   0.74956   0.00000  Uiso   1.00
C1000  C     0.04247   0.83336   0.75044   0.00000  Uiso   1.00
C1001  C     0.19714   0.69061   0.77220   0.00000  Uiso   1.00
C1002  C     0.13623   0.97600   0.72773   0.00000  Uiso   1.00
C1003  C     0.13619   0.69061   0.72780   0.00000  Uiso   1.00
C1004  C     0.19711   0.97600   0.77227   0.00000  Uiso   1.00
C1005  C     0.16428   0.83334   0.66351   0.00000  Uiso   1.00
C1006  C     0.16906   0.83334   0.83649   0.00000  Uiso   1.00
C1007  C     0.20816   0.83173   0.90877   0.00000  Uiso   1.00
C1008  C     0.12517   0.83173   0.59123   0.00000  Uiso   1.00
C1009  C     0.17024   0.83379   0.88433   0.00000  Uiso   1.00
C1010  C     0.16309   0.83379   0.61567   0.00000  Uiso   1.00
C1011  C     0.13225   0.83996   0.90503   0.00000  Uiso   1.00
C1012  C     0.20108   0.83996   0.59497   0.00000  Uiso   1.00
C1013  C     0.13055   0.84219   0.95111   0.00000  Uiso   1.00
C1014  C     0.20279   0.84219   0.54889   0.00000  Uiso   1.00
C1015  C     0.16771   0.84110   0.97659   0.00000  Uiso   1.00
C1016  C     0.16562   0.84110   0.52341   0.00000  Uiso   1.00
C1017  C     0.20689   0.83927   0.95538   0.00000  Uiso   1.00
C1018  C     0.12644   0.83927   0.54462   0.00000  Uiso   1.00
C1019  C     0.09220   0.84633   0.97198   0.00000  Uiso   1.00
C1020  C     0.24113   0.84633   0.52802   0.00000  Uiso   1.00
H1021  H     0.10382   0.84198   0.88500   0.00000  Uiso   1.00
H1022  H     0.22952   0.84198   0.61500   0.00000  Uiso   1.00
H1023  H     0.06367   0.84967   0.95242   0.00000  Uiso   1.00
H1024  H     0.26966   0.84967   0.54758   0.00000  Uiso   1.00
H1025  H     0.06009   0.85073   0.53294   0.00000  Uiso   1.00
H1026  H     0.27324   0.85073   0.96706   0.00000  Uiso   1.00
H1027  H     0.03742   0.75985   0.75064   0.00000  Uiso   1.00
H1028  H     0.29589   0.90688   0.74976   0.00000  Uiso   1.00
H1029  H     0.29591   0.75985   0.74936   0.00000  Uiso   1.00
H1030  H     0.03744   0.90688   0.75024   0.00000  Uiso   1.00
H1031  H     0.22157   0.70867   0.78988   0.00000  Uiso   1.00
H1032  H     0.11190   0.95785   0.70989   0.00000  Uiso   1.00
H1033  H     0.11177   0.70867   0.71012   0.00000  Uiso   1.00
H1034  H     0.22144   0.95785   0.79011   0.00000  Uiso   1.00
N1035  N     0.16667   0.95240   0.75000   0.00000  Uiso   1.00
N1036  N     0.16667   0.71427   0.75000   0.00000  Uiso   1.00
O1037  O     0.10559   0.87154   0.75000   0.00000  Uiso   1.00
O1038  O     0.22774   0.79513   0.75001   0.00000  Uiso   1.00
O1039  O     0.22774   0.87154   0.75001   0.00000  Uiso   1.00
O1040  O     0.10559   0.79513   0.75000   0.00000  Uiso   1.00
O1041  O     0.16666   0.87156   0.68393   0.00000  Uiso   1.00
O1042  O     0.16667   0.79511   0.81608   0.00000  Uiso   1.00
O1043  O     0.16667   0.87156   0.81608   0.00000  Uiso   1.00
O1044  O     0.16666   0.79511   0.68393   0.00000  Uiso   1.00
Zn1045 Zn    0.16667   0.88437   0.75000   0.00000  Uiso   1.00
Zn1046 Zn    0.16667   0.78229   0.75000   0.00000  Uiso   1.00
S1047  S     0.25543   0.81685   0.88135   0.00000  Uiso   1.00
O1048  O     0.27401   0.85870   0.86117   0.00000  Uiso   1.00
O1049  O     0.28641   0.79570   0.91328   0.00000  Uiso   1.00
O1050  O     0.24592   0.77885   0.84067   0.00000  Uiso   1.00
H1051  H     0.27334   0.76539   0.83394   0.00000  Uiso   1.00
S1052  S     0.07790   0.81685   0.61865   0.00000  Uiso   1.00
O1053  O     0.05932   0.85870   0.63883   0.00000  Uiso   1.00
O1054  O     0.04692   0.79570   0.58672   0.00000  Uiso   1.00
O1055  O     0.08741   0.77885   0.65933   0.00000  Uiso   1.00
H1056  H     0.06000   0.76539   0.66607   0.00000  Uiso   1.00
C1057  C     0.41996   0.83335   0.75036   0.00000  Uiso   1.00
C1058  C     0.58004   0.83335   0.74964   0.00000  Uiso   1.00
C1059  C     0.42350   0.84544   0.51835   0.00000  Uiso   1.00
C1060  C     0.57650   0.84544   0.98165   0.00000  Uiso   1.00
C1061  C     0.35461   0.79206   0.75037   0.00000  Uiso   1.00
C1062  C     0.64538   0.87468   0.74981   0.00000  Uiso   1.00
C1063  C     0.64539   0.79206   0.74963   0.00000  Uiso   1.00
C1064  C     0.35462   0.87468   0.75019   0.00000  Uiso   1.00
C1065  C     0.62419   0.83336   0.74956   0.00000  Uiso   1.00
C1066  C     0.37581   0.83336   0.75044   0.00000  Uiso   1.00
C1067  C     0.53047   0.69061   0.77220   0.00000  Uiso   1.00
C1068  C     0.46956   0.97600   0.72773   0.00000  Uiso   1.00
C1069  C     0.46953   0.69061   0.72780   0.00000  Uiso   1.00
C1070  C     0.53044   0.97600   0.77227   0.00000  Uiso   1.00
C1071  C     0.49761   0.83334   0.66351   0.00000  Uiso   1.00
C1072  C     0.50239   0.83334   0.83649   0.00000  Uiso   1.00
C1073  C     0.54149   0.83173   0.90877   0.00000  Uiso   1.00
C1074  C     0.45851   0.83173   0.59123   0.00000  Uiso   1.00
C1075  C     0.50358   0.83379   0.88433   0.00000  Uiso   1.00
C1076  C     0.49642   0.83379   0.61567   0.00000  Uiso   1.00
C1077  C     0.46559   0.83996   0.90503   0.00000  Uiso   1.00
C1078  C     0.53441   0.83996   0.59497   0.00000  Uiso   1.00
C1079  C     0.46388   0.84219   0.95111   0.00000  Uiso   1.00
C1080  C     0.53612   0.84219   0.54889   0.00000  Uiso   1.00
C1081  C     0.50105   0.84110   0.97659   0.00000  Uiso   1.00
C1082  C     0.49895   0.84110   0.52341   0.00000  Uiso   1.00
C1083  C     0.54023   0.83927   0.95538   0.00000  Uiso   1.00
C1084  C     0.45977   0.83927   0.54462   0.00000  Uiso   1.00
C1085  C     0.42553   0.84633   0.97198   0.00000  Uiso   1.00
C1086  C     0.57447   0.84633   0.52802   0.00000  Uiso   1.00
H1087  H     0.43715   0.84198   0.88500   0.00000  Uiso   1.00
H1088  H     0.56285   0.84198   0.61500   0.00000  Uiso   1.00
H1089  H     0.39700   0.84967   0.95242   0.00000  Uiso   1.00
H1090  H     0.60300   0.84967   0.54758   0.00000  Uiso   1.00
H1091  H     0.39343   0.85073   0.53294   0.00000  Uiso   1.00
H1092  H     0.60657   0.85073   0.96706   0.00000  Uiso   1.00
H1093  H     0.37075   0.75985   0.75064   0.00000  Uiso   1.00
H1094  H     0.62922   0.90688   0.74976   0.00000  Uiso   1.00
H1095  H     0.62925   0.75985   0.74936   0.00000  Uiso   1.00
H1096  H     0.37077   0.90688   0.75024   0.00000  Uiso   1.00
H1097  H     0.55490   0.70867   0.78988   0.00000  Uiso   1.00
H1098  H     0.44523   0.95785   0.70989   0.00000  Uiso   1.00
H1099  H     0.44510   0.70867   0.71012   0.00000  Uiso   1.00
H1100  H     0.55477   0.95785   0.79011   0.00000  Uiso   1.00
N1101  N     0.50000   0.95240   0.75000   0.00000  Uiso   1.00
N1102  N     0.50000   0.71427   0.75000   0.00000  Uiso   1.00
O1103  O     0.43892   0.87154   0.75000   0.00000  Uiso   1.00
O1104  O     0.56108   0.79513   0.75001   0.00000  Uiso   1.00
O1105  O     0.56108   0.87154   0.75001   0.00000  Uiso   1.00
O1106  O     0.43892   0.79513   0.75000   0.00000  Uiso   1.00
O1107  O     0.49999   0.87156   0.68393   0.00000  Uiso   1.00
O1108  O     0.50001   0.79511   0.81608   0.00000  Uiso   1.00
O1109  O     0.50001   0.87156   0.81608   0.00000  Uiso   1.00
O1110  O     0.49999   0.79511   0.68393   0.00000  Uiso   1.00
Zn1111 Zn    0.50000   0.88437   0.75000   0.00000  Uiso   1.00
Zn1112 Zn    0.50000   0.78229   0.75000   0.00000  Uiso   1.00
S1113  S     0.58877   0.81685   0.88135   0.00000  Uiso   1.00
O1114  O     0.60735   0.85870   0.86117   0.00000  Uiso   1.00
O1115  O     0.61975   0.79570   0.91328   0.00000  Uiso   1.00
O1116  O     0.57926   0.77885   0.84067   0.00000  Uiso   1.00
H1117  H     0.60667   0.76539   0.83394   0.00000  Uiso   1.00
S1118  S     0.41123   0.81685   0.61865   0.00000  Uiso   1.00
O1119  O     0.39265   0.85870   0.63883   0.00000  Uiso   1.00
O1120  O     0.38025   0.79570   0.58672   0.00000  Uiso   1.00
O1121  O     0.42074   0.77885   0.65933   0.00000  Uiso   1.00
H1122  H     0.39333   0.76539   0.66607   0.00000  Uiso   1.00
C1123  C     0.75329   0.83335   0.75036   0.00000  Uiso   1.00
C1124  C     0.91337   0.83335   0.74964   0.00000  Uiso   1.00
C1125  C     0.75684   0.84544   0.51835   0.00000  Uiso   1.00
C1126  C     0.90983   0.84544   0.98165   0.00000  Uiso   1.00
C1127  C     0.68795   0.79206   0.75037   0.00000  Uiso   1.00
C1128  C     0.97871   0.87468   0.74981   0.00000  Uiso   1.00
C1129  C     0.97872   0.79206   0.74963   0.00000  Uiso   1.00
C1130  C     0.68796   0.87468   0.75019   0.00000  Uiso   1.00
C1131  C     0.95753   0.83336   0.74956   0.00000  Uiso   1.00
C1132  C     0.70914   0.83336   0.75044   0.00000  Uiso   1.00
C1133  C     0.86381   0.69061   0.77220   0.00000  Uiso   1.00
C1134  C     0.80289   0.97600   0.72773   0.00000  Uiso   1.00
C1135  C     0.80286   0.69061   0.72780   0.00000  Uiso   1.00
C1136  C     0.86377   0.97600   0.77227   0.00000  Uiso   1.00
C1137  C     0.83094   0.83334   0.66351   0.00000  Uiso   1.00
C1138  C     0.83572   0.83334   0.83649   0.00000  Uiso   1.00
C1139  C     0.87483   0.83173   0.90877   0.00000  Uiso   1.00
C1140  C     0.79184   0.83173   0.59123   0.00000  Uiso   1.00
C1141  C     0.83691   0.83379   0.88433   0.00000  Uiso   1.00
C1142  C     0.82976   0.83379   0.61567   0.00000  Uiso   1.00
C1143  C     0.79892   0.83996   0.90503   0.00000  Uiso   1.00
C1144  C     0.86775   0.83996   0.59497   0.00000  Uiso   1.00
C1145  C     0.79721   0.84219   0.95111   0.00000  Uiso   1.00
C1146  C     0.86945   0.84219   0.54889   0.00000  Uiso   1.00
C1147  C     0.83438   0.84110   0.97659   0.00000  Uiso   1.00
C1148  C     0.83229   0.84110   0.52341   0.00000  Uiso   1.00
C1149  C     0.87356   0.83927   0.95538   0.00000  Uiso   1.00
C1150  C     0.79311   0.83927   0.54462   0.00000  Uiso   1.00
C1151  C     0.75887   0.84633   0.97198   0.00000  Uiso   1.00
C1152  C     0.90780   0.84633   0.52802   0.00000  Uiso   1.00
H1153  H     0.77048   0.84198   0.88500   0.00000  Uiso   1.00
H1154  H     0.89618   0.84198   0.61500   0.00000  Uiso   1.00
H1155  H     0.73034   0.84967   0.95242   0.00000  Uiso   1.00
H1156  H     0.93633   0.84967   0.54758   0.00000  Uiso   1.00
H1157  H     0.72676   0.85073   0.53294   0.00000  Uiso   1.00
H1158  H     0.93991   0.85073   0.96706   0.00000  Uiso   1.00
H1159  H     0.70409   0.75985   0.75064   0.00000  Uiso   1.00
H1160  H     0.96256   0.90688   0.74976   0.00000  Uiso   1.00
H1161  H     0.96258   0.75985   0.74936   0.00000  Uiso   1.00
H1162  H     0.70411   0.90688   0.75024   0.00000  Uiso   1.00
H1163  H     0.88823   0.70867   0.78988   0.00000  Uiso   1.00
H1164  H     0.77856   0.95785   0.70989   0.00000  Uiso   1.00
H1165  H     0.77843   0.70867   0.71012   0.00000  Uiso   1.00
H1166  H     0.88810   0.95785   0.79011   0.00000  Uiso   1.00
N1167  N     0.83333   0.95240   0.75000   0.00000  Uiso   1.00
N1168  N     0.83333   0.71427   0.75000   0.00000  Uiso   1.00
O1169  O     0.77226   0.87154   0.75000   0.00000  Uiso   1.00
O1170  O     0.89441   0.79513   0.75001   0.00000  Uiso   1.00
O1171  O     0.89441   0.87154   0.75001   0.00000  Uiso   1.00
O1172  O     0.77226   0.79513   0.75000   0.00000  Uiso   1.00
O1173  O     0.83333   0.87156   0.68393   0.00000  Uiso   1.00
O1174  O     0.83334   0.79511   0.81608   0.00000  Uiso   1.00
O1175  O     0.83334   0.87156   0.81608   0.00000  Uiso   1.00
O1176  O     0.83333   0.79511   0.68393   0.00000  Uiso   1.00
Zn1177 Zn    0.83333   0.88437   0.75000   0.00000  Uiso   1.00
Zn1178 Zn    0.83333   0.78229   0.75000   0.00000  Uiso   1.00
S1179  S     0.92210   0.81685   0.88135   0.00000  Uiso   1.00
O1180  O     0.94068   0.85870   0.86117   0.00000  Uiso   1.00
O1181  O     0.95308   0.79570   0.91328   0.00000  Uiso   1.00
O1182  O     0.91259   0.77885   0.84067   0.00000  Uiso   1.00
H1183  H     0.94000   0.76539   0.83394   0.00000  Uiso   1.00
S1184  S     0.74456   0.81685   0.61865   0.00000  Uiso   1.00
O1185  O     0.72599   0.85870   0.63883   0.00000  Uiso   1.00
O1186  O     0.71359   0.79570   0.58672   0.00000  Uiso   1.00
O1187  O     0.75408   0.77885   0.65933   0.00000  Uiso   1.00
H1188  H     0.72666   0.76539   0.66607   0.00000  Uiso   1.00
loop_
_geom_bond_atom_site_label_1
_geom_bond_atom_site_label_2
_geom_bond_distance
_geom_bond_site_symmetry_2
_ccdc_geom_bond_type
C1     O50     1.283   .     A
C1     O47     1.282   .     A
C1     C10     1.420   .     S
C2     O49     1.282   .     A
C2     O48     1.283   .     A
C2     C9      1.420   .     S
C3     H35     1.078   .     S
C3     C28     1.407   .     A
C3     C623    1.386   1_554 S
C4     H36     1.078   .     S
C4     C27     1.407   .     A
C4     C624    1.386   .     S
C5     H37     1.084   .     S
C5     C10     1.397   .     A
C5     C139    1.368   1_455 S
C6     C9      1.397   .     A
C6     H38     1.084   .     S
C6     C74     1.369   .     S
C7     H39     1.084   .     S
C7     C9      1.397   .     A
C7     C71     1.368   .     S
C8     C10     1.397   .     A
C8     H40     1.084   .     S
C8     C138    1.369   1_455 S
C11    N46     1.366   .     A
C11    H41     1.080   .     S
C11    C410    1.416   1_545 S
C12    H42     1.082   .     S
C12    N45     1.366   .     A
C12    C211    1.416   .     S
C13    N46     1.366   .     A
C13    H43     1.080   .     S
C13    C408    1.416   1_545 S
C14    N45     1.366   .     A
C14    H44     1.082   .     S
C14    C209    1.416   .     S
C15    O51     1.284   .     A
C15    C20     1.427   .     S
C15    O54     1.285   .     A
C16    C19     1.427   .     S
C16    O52     1.285   .     A
C16    O53     1.284   .     A
C17    C19     1.413   .     A
C17    C27     1.410   .     A
C17    S57     1.792   .     S
C18    C20     1.413   .     A
C18    C28     1.410   .     A
C18    S62     1.792   .     S
C19    C21     1.389   .     A
C20    C22     1.389   .     A
C21    H31     1.087   .     S
C21    C23     1.378   .     A
C22    H32     1.087   .     S
C22    C24     1.378   .     A
C23    C29     1.395   .     A
C23    C25     1.407   .     A
C24    C26     1.407   .     A
C24    C30     1.395   .     A
C25    C27     1.419   .     A
C25    C620    1.400   .     S
C26    C28     1.419   .     A
C26    C619    1.400   1_554 S
C29    H33     1.084   .     S
C29    C597    1.386   .     S
C30    H34     1.084   .     S
C30    C598    1.386   1_554 S
N45    Zn55    2.009   .     S
N46    Zn56    2.009   .     S
O47    Zn55    2.000   .     S
O48    Zn56    2.000   .     S
O49    Zn55    2.000   .     S
O50    Zn56    2.000   .     S
O51    Zn55    2.007   .     S
O52    Zn56    2.007   .     S
O53    Zn55    2.007   .     S
O54    Zn56    2.007   .     S
S57    O58     1.502   .     D
S57    O59     1.504   .     D
S57    O60     1.678   .     S
O60    H61     0.990   .     S
S62    O64     1.504   .     D
S62    O63     1.502   .     D
S62    O65     1.678   .     S
O65    H66     0.990   .     S
C67    O116    1.283   .     A
C67    O113    1.282   .     A
C67    C76     1.420   .     S
C68    O115    1.282   .     A
C68    O114    1.283   .     A
C68    C75     1.420   .     S
C69    H101    1.078   .     S
C69    C94     1.407   .     A
C69    C689    1.386   1_554 S
C70    H102    1.078   .     S
C70    C93     1.407   .     A
C70    C690    1.386   .     S
C71    H103    1.084   .     S
C71    C76     1.397   .     A
C72    C75     1.397   .     A
C72    H104    1.084   .     S
C72    C140    1.369   .     S
C73    H105    1.084   .     S
C73    C75     1.397   .     A
C73    C137    1.368   .     S
C74    C76     1.397   .     A
C74    H106    1.084   .     S
C77    N112    1.366   .     A
C77    H107    1.080   .     S
C77    C476    1.416   1_545 S
C78    H108    1.082   .     S
C78    N111    1.366   .     A
C78    C277    1.416   .     S
C79    N112    1.366   .     A
C79    H109    1.080   .     S
C79    C474    1.416   1_545 S
C80    N111    1.366   .     A
C80    H110    1.082   .     S
C80    C275    1.416   .     S
C81    O117    1.284   .     A
C81    C86     1.427   .     S
C81    O120    1.285   .     A
C82    C85     1.427   .     S
C82    O118    1.285   .     A
C82    O119    1.284   .     A
C83    C85     1.413   .     A
C83    C93     1.410   .     A
C83    S123    1.792   .     S
C84    C86     1.413   .     A
C84    C94     1.410   .     A
C84    S128    1.792   .     S
C85    C87     1.389   .     A
C86    C88     1.389   .     A
C87    H97     1.087   .     S
C87    C89     1.378   .     A
C88    H98     1.087   .     S
C88    C90     1.378   .     A
C89    C95     1.395   .     A
C89    C91     1.407   .     A
C90    C92     1.407   .     A
C90    C96     1.395   .     A
C91    C93     1.419   .     A
C91    C686    1.400   .     S
C92    C94     1.419   .     A
C92    C685    1.400   1_554 S
C95    H99     1.084   .     S
C95    C663    1.386   .     S
C96    H100    1.084   .     S
C96    C664    1.386   1_554 S
N111   Zn121   2.009   .     S
N112   Zn122   2.009   .     S
O113   Zn121   2.000   .     S
O114   Zn122   2.000   .     S
O115   Zn121   2.000   .     S
O116   Zn122   2.000   .     S
O117   Zn121   2.007   .     S
O118   Zn122   2.007   .     S
O119   Zn121   2.007   .     S
O120   Zn122   2.007   .     S
S123   O124    1.502   .     D
S123   O125    1.504   .     D
S123   O126    1.678   .     S
O126   H127    0.990   .     S
S128   O130    1.504   .     D
S128   O129    1.502   .     D
S128   O131    1.678   .     S
O131   H132    0.990   .     S
C133   O182    1.283   .     A
C133   O179    1.282   .     A
C133   C142    1.420   .     S
C134   O181    1.282   .     A
C134   O180    1.283   .     A
C134   C141    1.420   .     S
C135   H167    1.078   .     S
C135   C160    1.407   .     A
C135   C755    1.386   1_554 S
C136   H168    1.078   .     S
C136   C159    1.407   .     A
C136   C756    1.386   .     S
C137   H169    1.084   .     S
C137   C142    1.397   .     A
C138   C141    1.397   .     A
C138   H170    1.084   .     S
C138   C8      1.369   1_655 S
C139   H171    1.084   .     S
C139   C141    1.397   .     A
C139   C5      1.368   1_655 S
C140   C142    1.397   .     A
C140   H172    1.084   .     S
C143   N178    1.366   .     A
C143   H173    1.080   .     S
C143   C542    1.416   1_545 S
C144   H174    1.082   .     S
C144   N177    1.366   .     A
C144   C343    1.416   .     S
C145   N178    1.366   .     A
C145   H175    1.080   .     S
C145   C540    1.416   1_545 S
C146   N177    1.366   .     A
C146   H176    1.082   .     S
C146   C341    1.416   .     S
C147   O183    1.284   .     A
C147   C152    1.427   .     S
C147   O186    1.285   .     A
C148   C151    1.427   .     S
C148   O184    1.285   .     A
C148   O185    1.284   .     A
C149   C151    1.413   .     A
C149   C159    1.410   .     A
C149   S189    1.792   .     S
C150   C152    1.413   .     A
C150   C160    1.410   .     A
C150   S194    1.792   .     S
C151   C153    1.389   .     A
C152   C154    1.389   .     A
C153   H163    1.087   .     S
C153   C155    1.378   .     A
C154   H164    1.087   .     S
C154   C156    1.378   .     A
C155   C161    1.395   .     A
C155   C157    1.407   .     A
C156   C158    1.407   .     A
C156   C162    1.395   .     A
C157   C159    1.419   .     A
C157   C752    1.400   .     S
C158   C160    1.419   .     A
C158   C751    1.400   1_554 S
C161   H165    1.084   .     S
C161   C729    1.386   .     S
C162   H166    1.084   .     S
C162   C730    1.386   1_554 S
N177   Zn187   2.009   .     S
N178   Zn188   2.009   .     S
O179   Zn187   2.000   .     S
O180   Zn188   2.000   .     S
O181   Zn187   2.000   .     S
O182   Zn188   2.000   .     S
O183   Zn187   2.007   .     S
O184   Zn188   2.007   .     S
O185   Zn187   2.007   .     S
O186   Zn188   2.007   .     S
S189   O190    1.502   .     D
S189   O191    1.504   .     D
S189   O192    1.678   .     S
O192   H193    0.990   .     S
S194   O196    1.504   .     D
S194   O195    1.502   .     D
S194   O197    1.678   .     S
O197   H198    0.990   .     S
C199   O248    1.283   .     A
C199   O245    1.282   .     A
C199   C208    1.420   .     S
C200   O247    1.282   .     A
C200   O246    1.283   .     A
C200   C207    1.420   .     S
C201   H233    1.078   .     S
C201   C226    1.407   .     A
C201   C821    1.386   1_554 S
C202   H234    1.078   .     S
C202   C225    1.407   .     A
C202   C822    1.386   .     S
C203   H235    1.084   .     S
C203   C208    1.397   .     A
C203   C337    1.368   1_455 S
C204   C207    1.397   .     A
C204   H236    1.084   .     S
C204   C272    1.369   .     S
C205   H237    1.084   .     S
C205   C207    1.397   .     A
C205   C269    1.368   .     S
C206   C208    1.397   .     A
C206   H238    1.084   .     S
C206   C336    1.369   1_455 S
C209   N244    1.366   .     A
C209   H239    1.080   .     S
C210   H240    1.082   .     S
C210   N243    1.366   .     A
C210   C409    1.416   .     S
C211   N244    1.366   .     A
C211   H241    1.080   .     S
C212   N243    1.366   .     A
C212   H242    1.082   .     S
C212   C407    1.416   .     S
C213   O249    1.284   .     A
C213   C218    1.427   .     S
C213   O252    1.285   .     A
C214   C217    1.427   .     S
C214   O250    1.285   .     A
C214   O251    1.284   .     A
C215   C217    1.413   .     A
C215   C225    1.410   .     A
C215   S255    1.792   .     S
C216   C218    1.413   .     A
C216   C226    1.410   .     A
C216   S260    1.792   .     S
C217   C219    1.389   .     A
C218   C220    1.389   .     A
C219   H229    1.087   .     S
C219   C221    1.378   .     A
C220   H230    1.087   .     S
C220   C222    1.378   .     A
C221   C227    1.395   .     A
C221   C223    1.407   .     A
C222   C224    1.407   .     A
C222   C228    1.395   .     A
C223   C225    1.419   .     A
C223   C818    1.400   .     S
C224   C226    1.419   .     A
C224   C817    1.400   1_554 S
C227   H231    1.084   .     S
C227   C795    1.386   .     S
C228   H232    1.084   .     S
C228   C796    1.386   1_554 S
N243   Zn253   2.009   .     S
N244   Zn254   2.009   .     S
O245   Zn253   2.000   .     S
O246   Zn254   2.000   .     S
O247   Zn253   2.000   .     S
O248   Zn254   2.000   .     S
O249   Zn253   2.007   .     S
O250   Zn254   2.007   .     S
O251   Zn253   2.007   .     S
O252   Zn254   2.007   .     S
S255   O256    1.502   .     D
S255   O257    1.504   .     D
S255   O258    1.678   .     S
O258   H259    0.990   .     S
S260   O262    1.504   .     D
S260   O261    1.502   .     D
S260   O263    1.678   .     S
O263   H264    0.990   .     S
C265   O314    1.283   .     A
C265   O311    1.282   .     A
C265   C274    1.420   .     S
C266   O313    1.282   .     A
C266   O312    1.283   .     A
C266   C273    1.420   .     S
C267   H299    1.078   .     S
C267   C292    1.407   .     A
C267   C887    1.386   1_554 S
C268   H300    1.078   .     S
C268   C291    1.407   .     A
C268   C888    1.386   .     S
C269   H301    1.084   .     S
C269   C274    1.397   .     A
C270   C273    1.397   .     A
C270   H302    1.084   .     S
C270   C338    1.369   .     S
C271   H303    1.084   .     S
C271   C273    1.397   .     A
C271   C335    1.368   .     S
C272   C274    1.397   .     A
C272   H304    1.084   .     S
C275   N310    1.366   .     A
C275   H305    1.080   .     S
C276   H306    1.082   .     S
C276   N309    1.366   .     A
C276   C475    1.416   .     S
C277   N310    1.366   .     A
C277   H307    1.080   .     S
C278   N309    1.366   .     A
C278   H308    1.082   .     S
C278   C473    1.416   .     S
C279   O315    1.284   .     A
C279   C284    1.427   .     S
C279   O318    1.285   .     A
C280   C283    1.427   .     S
C280   O316    1.285   .     A
C280   O317    1.284   .     A
C281   C283    1.413   .     A
C281   C291    1.410   .     A
C281   S321    1.792   .     S
C282   C284    1.413   .     A
C282   C292    1.410   .     A
C282   S326    1.792   .     S
C283   C285    1.389   .     A
C284   C286    1.389   .     A
C285   H295    1.087   .     S
C285   C287    1.378   .     A
C286   H296    1.087   .     S
C286   C288    1.378   .     A
C287   C293    1.395   .     A
C287   C289    1.407   .     A
C288   C290    1.407   .     A
C288   C294    1.395   .     A
C289   C291    1.419   .     A
C289   C884    1.400   .     S
C290   C292    1.419   .     A
C290   C883    1.400   1_554 S
C293   H297    1.084   .     S
C293   C861    1.386   .     S
C294   H298    1.084   .     S
C294   C862    1.386   1_554 S
N309   Zn319   2.009   .     S
N310   Zn320   2.009   .     S
O311   Zn319   2.000   .     S
O312   Zn320   2.000   .     S
O313   Zn319   2.000   .     S
O314   Zn320   2.000   .     S
O315   Zn319   2.007   .     S
O316   Zn320   2.007   .     S
O317   Zn319   2.007   .     S
O318   Zn320   2.007   .     S
S321   O322    1.502   .     D
S321   O323    1.504   .     D
S321   O324    1.678   .     S
O324   H325    0.990   .     S
S326   O328    1.504   .     D
S326   O327    1.502   .     D
S326   O329    1.678   .     S
O329   H330    0.990   .     S
C331   O380    1.283   .     A
C331   O377    1.282   .     A
C331   C340    1.420   .     S
C332   O379    1.282   .     A
C332   O378    1.283   .     A
C332   C339    1.420   .     S
C333   H365    1.078   .     S
C333   C358    1.407   .     A
C333   C953    1.386   1_554 S
C334   H366    1.078   .     S
C334   C357    1.407   .     A
C334   C954    1.386   .     S
C335   H367    1.084   .     S
C335   C340    1.397   .     A
C336   C339    1.397   .     A
C336   H368    1.084   .     S
C336   C206    1.369   1_655 S
C337   H369    1.084   .     S
C337   C339    1.397   .     A
C337   C203    1.368   1_655 S
C338   C340    1.397   .     A
C338   H370    1.084   .     S
C341   N376    1.366   .     A
C341   H371    1.080   .     S
C342   H372    1.082   .     S
C342   N375    1.366   .     A
C342   C541    1.416   .     S
C343   N376    1.366   .     A
C343   H373    1.080   .     S
C344   N375    1.366   .     A
C344   H374    1.082   .     S
C344   C539    1.416   .     S
C345   O381    1.284   .     A
C345   C350    1.427   .     S
C345   O384    1.285   .     A
C346   C349    1.427   .     S
C346   O382    1.285   .     A
C346   O383    1.284   .     A
C347   C349    1.413   .     A
C347   C357    1.410   .     A
C347   S387    1.792   .     S
C348   C350    1.413   .     A
C348   C358    1.410   .     A
C348   S392    1.792   .     S
C349   C351    1.389   .     A
C350   C352    1.389   .     A
C351   H361    1.087   .     S
C351   C353    1.378   .     A
C352   H362    1.087   .     S
C352   C354    1.378   .     A
C353   C359    1.395   .     A
C353   C355    1.407   .     A
C354   C356    1.407   .     A
C354   C360    1.395   .     A
C355   C357    1.419   .     A
C355   C950    1.400   .     S
C356   C358    1.419   .     A
C356   C949    1.400   1_554 S
C359   H363    1.084   .     S
C359   C927    1.386   .     S
C360   H364    1.084   .     S
C360   C928    1.386   1_554 S
N375   Zn385   2.009   .     S
N376   Zn386   2.009   .     S
O377   Zn385   2.000   .     S
O378   Zn386   2.000   .     S
O379   Zn385   2.000   .     S
O380   Zn386   2.000   .     S
O381   Zn385   2.007   .     S
O382   Zn386   2.007   .     S
O383   Zn385   2.007   .     S
O384   Zn386   2.007   .     S
S387   O388    1.502   .     D
S387   O389    1.504   .     D
S387   O390    1.678   .     S
O390   H391    0.990   .     S
S392   O394    1.504   .     D
S392   O393    1.502   .     D
S392   O395    1.678   .     S
O395   H396    0.990   .     S
C397   O446    1.283   .     A
C397   O443    1.282   .     A
C397   C406    1.420   .     S
C398   O445    1.282   .     A
C398   O444    1.283   .     A
C398   C405    1.420   .     S
C399   H431    1.078   .     S
C399   C424    1.407   .     A
C399   C1019   1.386   1_554 S
C400   H432    1.078   .     S
C400   C423    1.407   .     A
C400   C1020   1.386   .     S
C401   H433    1.084   .     S
C401   C406    1.397   .     A
C401   C535    1.368   1_455 S
C402   C405    1.397   .     A
C402   H434    1.084   .     S
C402   C470    1.369   .     S
C403   H435    1.084   .     S
C403   C405    1.397   .     A
C403   C467    1.368   .     S
C404   C406    1.397   .     A
C404   H436    1.084   .     S
C404   C534    1.369   1_455 S
C407   N442    1.366   .     A
C407   H437    1.080   .     S
C408   H438    1.082   .     S
C408   N441    1.366   .     A
C408   C13     1.416   1_565 S
C409   N442    1.366   .     A
C409   H439    1.080   .     S
C410   N441    1.366   .     A
C410   H440    1.082   .     S
C410   C11     1.416   1_565 S
C411   O447    1.284   .     A
C411   C416    1.427   .     S
C411   O450    1.285   .     A
C412   C415    1.427   .     S
C412   O448    1.285   .     A
C412   O449    1.284   .     A
C413   C415    1.413   .     A
C413   C423    1.410   .     A
C413   S453    1.792   .     S
C414   C416    1.413   .     A
C414   C424    1.410   .     A
C414   S458    1.792   .     S
C415   C417    1.389   .     A
C416   C418    1.389   .     A
C417   H427    1.087   .     S
C417   C419    1.378   .     A
C418   H428    1.087   .     S
C418   C420    1.378   .     A
C419   C425    1.395   .     A
C419   C421    1.407   .     A
C420   C422    1.407   .     A
C420   C426    1.395   .     A
C421   C423    1.419   .     A
C421   C1016   1.400   .     S
C422   C424    1.419   .     A
C422   C1015   1.400   1_554 S
C425   H429    1.084   .     S
C425   C993    1.386   .     S
C426   H430    1.084   .     S
C426   C994    1.386   1_554 S
N441   Zn451   2.009   .     S
N442   Zn452   2.009   .     S
O443   Zn451   2.000   .     S
O444   Zn452   2.000   .     S
O445   Zn451   2.000   .     S
O446   Zn452   2.000   .     S
O447   Zn451   2.007   .     S
O448   Zn452   2.007   .     S
O449   Zn451   2.007   .     S
O450   Zn452   2.007   .     S
S453   O454    1.502   .     D
S453   O455    1.504   .     D
S453   O456    1.678   .     S
O456   H457    0.990   .     S
S458   O460    1.504   .     D
S458   O459    1.502   .     D
S458   O461    1.678   .     S
O461   H462    0.990   .     S
C463   O512    1.283   .     A
C463   O509    1.282   .     A
C463   C472    1.420   .     S
C464   O511    1.282   .     A
C464   O510    1.283   .     A
C464   C471    1.420   .     S
C465   H497    1.078   .     S
C465   C490    1.407   .     A
C465   C1085   1.386   1_554 S
C466   H498    1.078   .     S
C466   C489    1.407   .     A
C466   C1086   1.386   .     S
C467   H499    1.084   .     S
C467   C472    1.397   .     A
C468   C471    1.397   .     A
C468   H500    1.084   .     S
C468   C536    1.369   .     S
C469   H501    1.084   .     S
C469   C471    1.397   .     A
C469   C533    1.368   .     S
C470   C472    1.397   .     A
C470   H502    1.084   .     S
C473   N508    1.366   .     A
C473   H503    1.080   .     S
C474   H504    1.082   .     S
C474   N507    1.366   .     A
C474   C79     1.416   1_565 S
C475   N508    1.366   .     A
C475   H505    1.080   .     S
C476   N507    1.366   .     A
C476   H506    1.082   .     S
C476   C77     1.416   1_565 S
C477   O513    1.284   .     A
C477   C482    1.427   .     S
C477   O516    1.285   .     A
C478   C481    1.427   .     S
C478   O514    1.285   .     A
C478   O515    1.284   .     A
C479   C481    1.413   .     A
C479   C489    1.410   .     A
C479   S519    1.792   .     S
C480   C482    1.413   .     A
C480   C490    1.410   .     A
C480   S524    1.792   .     S
C481   C483    1.389   .     A
C482   C484    1.389   .     A
C483   H493    1.087   .     S
C483   C485    1.378   .     A
C484   H494    1.087   .     S
C484   C486    1.378   .     A
C485   C491    1.395   .     A
C485   C487    1.407   .     A
C486   C488    1.407   .     A
C486   C492    1.395   .     A
C487   C489    1.419   .     A
C487   C1082   1.400   .     S
C488   C490    1.419   .     A
C488   C1081   1.400   1_554 S
C491   H495    1.084   .     S
C491   C1059   1.386   .     S
C492   H496    1.084   .     S
C492   C1060   1.386   1_554 S
N507   Zn517   2.009   .     S
N508   Zn518   2.009   .     S
O509   Zn517   2.000   .     S
O510   Zn518   2.000   .     S
O511   Zn517   2.000   .     S
O512   Zn518   2.000   .     S
O513   Zn517   2.007   .     S
O514   Zn518   2.007   .     S
O515   Zn517   2.007   .     S
O516   Zn518   2.007   .     S
S519   O520    1.502   .     D
S519   O521    1.504   .     D
S519   O522    1.678   .     S
O522   H523    0.990   .     S
S524   O526    1.504   .     D
S524   O525    1.502   .     D
S524   O527    1.678   .     S
O527   H528    0.990   .     S
C529   O578    1.283   .     A
C529   O575    1.282   .     A
C529   C538    1.420   .     S
C530   O577    1.282   .     A
C530   O576    1.283   .     A
C530   C537    1.420   .     S
C531   H563    1.078   .     S
C531   C556    1.407   .     A
C531   C1151   1.386   1_554 S
C532   H564    1.078   .     S
C532   C555    1.407   .     A
C532   C1152   1.386   .     S
C533   H565    1.084   .     S
C533   C538    1.397   .     A
C534   C537    1.397   .     A
C534   H566    1.084   .     S
C534   C404    1.369   1_655 S
C535   H567    1.084   .     S
C535   C537    1.397   .     A
C535   C401    1.368   1_655 S
C536   C538    1.397   .     A
C536   H568    1.084   .     S
C539   N574    1.366   .     A
C539   H569    1.080   .     S
C540   H570    1.082   .     S
C540   N573    1.366   .     A
C540   C145    1.416   1_565 S
C541   N574    1.366   .     A
C541   H571    1.080   .     S
C542   N573    1.366   .     A
C542   H572    1.082   .     S
C542   C143    1.416   1_565 S
C543   O579    1.284   .     A
C543   C548    1.427   .     S
C543   O582    1.285   .     A
C544   C547    1.427   .     S
C544   O580    1.285   .     A
C544   O581    1.284   .     A
C545   C547    1.413   .     A
C545   C555    1.410   .     A
C545   S585    1.792   .     S
C546   C548    1.413   .     A
C546   C556    1.410   .     A
C546   S590    1.792   .     S
C547   C549    1.389   .     A
C548   C550    1.389   .     A
C549   H559    1.087   .     S
C549   C551    1.378   .     A
C550   H560    1.087   .     S
C550   C552    1.378   .     A
C551   C557    1.395   .     A
C551   C553    1.407   .     A
C552   C554    1.407   .     A
C552   C558    1.395   .     A
C553   C555    1.419   .     A
C553   C1148   1.400   .     S
C554   C556    1.419   .     A
C554   C1147   1.400   1_554 S
C557   H561    1.084   .     S
C557   C1125   1.386   .     S
C558   H562    1.084   .     S
C558   C1126   1.386   1_554 S
N573   Zn583   2.009   .     S
N574   Zn584   2.009   .     S
O575   Zn583   2.000   .     S
O576   Zn584   2.000   .     S
O577   Zn583   2.000   .     S
O578   Zn584   2.000   .     S
O579   Zn583   2.007   .     S
O580   Zn584   2.007   .     S
O581   Zn583   2.007   .     S
O582   Zn584   2.007   .     S
S585   O586    1.502   .     D
S585   O587    1.504   .     D
S585   O588    1.678   .     S
O588   H589    0.990   .     S
S590   O592    1.504   .     D
S590   O591    1.502   .     D
S590   O593    1.678   .     S
O593   H594    0.990   .     S
C595   O644    1.283   .     A
C595   O641    1.282   .     A
C595   C604    1.420   .     S
C596   O643    1.282   .     A
C596   O642    1.283   .     A
C596   C603    1.420   .     S
C597   H629    1.078   .     S
C597   C622    1.407   .     A
C598   H630    1.078   .     S
C598   C621    1.407   .     A
C598   C30     1.386   1_556 S
C599   H631    1.084   .     S
C599   C604    1.397   .     A
C599   C733    1.368   1_455 S
C600   C603    1.397   .     A
C600   H632    1.084   .     S
C600   C668    1.369   .     S
C601   H633    1.084   .     S
C601   C603    1.397   .     A
C601   C665    1.368   .     S
C602   C604    1.397   .     A
C602   H634    1.084   .     S
C602   C732    1.369   1_455 S
C605   N640    1.366   .     A
C605   H635    1.080   .     S
C605   C1004   1.416   1_545 S
C606   H636    1.082   .     S
C606   N639    1.366   .     A
C606   C805    1.416   .     S
C607   N640    1.366   .     A
C607   H637    1.080   .     S
C607   C1002   1.416   1_545 S
C608   N639    1.366   .     A
C608   H638    1.082   .     S
C608   C803    1.416   .     S
C609   O645    1.284   .     A
C609   C614    1.427   .     S
C609   O648    1.285   .     A
C610   C613    1.427   .     S
C610   O646    1.285   .     A
C610   O647    1.284   .     A
C611   C613    1.413   .     A
C611   C621    1.410   .     A
C611   S651    1.792   .     S
C612   C614    1.413   .     A
C612   C622    1.410   .     A
C612   S656    1.792   .     S
C613   C615    1.389   .     A
C614   C616    1.389   .     A
C615   H625    1.087   .     S
C615   C617    1.378   .     A
C616   H626    1.087   .     S
C616   C618    1.378   .     A
C617   C623    1.395   .     A
C617   C619    1.407   .     A
C618   C620    1.407   .     A
C618   C624    1.395   .     A
C619   C621    1.419   .     A
C619   C26     1.400   1_556 S
C620   C622    1.419   .     A
C623   H627    1.084   .     S
C623   C3      1.386   1_556 S
C624   H628    1.084   .     S
N639   Zn649   2.009   .     S
N640   Zn650   2.009   .     S
O641   Zn649   2.000   .     S
O642   Zn650   2.000   .     S
O643   Zn649   2.000   .     S
O644   Zn650   2.000   .     S
O645   Zn649   2.007   .     S
O646   Zn650   2.007   .     S
O647   Zn649   2.007   .     S
O648   Zn650   2.007   .     S
S651   O652    1.502   .     D
S651   O653    1.504   .     D
S651   O654    1.678   .     S
O654   H655    0.990   .     S
S656   O658    1.504   .     D
S656   O657    1.502   .     D
S656   O659    1.678   .     S
O659   H660    0.990   .     S
C661   O710    1.283   .     A
C661   O707    1.282   .     A
C661   C670    1.420   .     S
C662   O709    1.282   .     A
C662   O708    1.283   .     A
C662   C669    1.420   .     S
C663   H695    1.078   .     S
C663   C688    1.407   .     A
C664   H696    1.078   .     S
C664   C687    1.407   .     A
C664   C96     1.386   1_556 S
C665   H697    1.084   .     S
C665   C670    1.397   .     A
C666   C669    1.397   .     A
C666   H698    1.084   .     S
C666   C734    1.369   .     S
C667   H699    1.084   .     S
C667   C669    1.397   .     A
C667   C731    1.368   .     S
C668   C670    1.397   .     A
C668   H700    1.084   .     S
C671   N706    1.366   .     A
C671   H701    1.080   .     S
C671   C1070   1.416   1_545 S
C672   H702    1.082   .     S
C672   N705    1.366   .     A
C672   C871    1.416   .     S
C673   N706    1.366   .     A
C673   H703    1.080   .     S
C673   C1068   1.416   1_545 S
C674   N705    1.366   .     A
C674   H704    1.082   .     S
C674   C869    1.416   .     S
C675   O711    1.284   .     A
C675   C680    1.427   .     S
C675   O714    1.285   .     A
C676   C679    1.427   .     S
C676   O712    1.285   .     A
C676   O713    1.284   .     A
C677   C679    1.413   .     A
C677   C687    1.410   .     A
C677   S717    1.792   .     S
C678   C680    1.413   .     A
C678   C688    1.410   .     A
C678   S722    1.792   .     S
C679   C681    1.389   .     A
C680   C682    1.389   .     A
C681   H691    1.087   .     S
C681   C683    1.378   .     A
C682   H692    1.087   .     S
C682   C684    1.378   .     A
C683   C689    1.395   .     A
C683   C685    1.407   .     A
C684   C686    1.407   .     A
C684   C690    1.395   .     A
C685   C687    1.419   .     A
C685   C92     1.400   1_556 S
C686   C688    1.419   .     A
C689   H693    1.084   .     S
C689   C69     1.386   1_556 S
C690   H694    1.084   .     S
N705   Zn715   2.009   .     S
N706   Zn716   2.009   .     S
O707   Zn715   2.000   .     S
O708   Zn716   2.000   .     S
O709   Zn715   2.000   .     S
O710   Zn716   2.000   .     S
O711   Zn715   2.007   .     S
O712   Zn716   2.007   .     S
O713   Zn715   2.007   .     S
O714   Zn716   2.007   .     S
S717   O718    1.502   .     D
S717   O719    1.504   .     D
S717   O720    1.678   .     S
O720   H721    0.990   .     S
S722   O724    1.504   .     D
S722   O723    1.502   .     D
S722   O725    1.678   .     S
O725   H726    0.990   .     S
C727   O776    1.283   .     A
C727   O773    1.282   .     A
C727   C736    1.420   .     S
C728   O775    1.282   .     A
C728   O774    1.283   .     A
C728   C735    1.420   .     S
C729   H761    1.078   .     S
C729   C754    1.407   .     A
C730   H762    1.078   .     S
C730   C753    1.407   .     A
C730   C162    1.386   1_556 S
C731   H763    1.084   .     S
C731   C736    1.397   .     A
C732   C735    1.397   .     A
C732   H764    1.084   .     S
C732   C602    1.369   1_655 S
C733   H765    1.084   .     S
C733   C735    1.397   .     A
C733   C599    1.368   1_655 S
C734   C736    1.397   .     A
C734   H766    1.084   .     S
C737   N772    1.366   .     A
C737   H767    1.080   .     S
C737   C1136   1.416   1_545 S
C738   H768    1.082   .     S
C738   N771    1.366   .     A
C738   C937    1.416   .     S
C739   N772    1.366   .     A
C739   H769    1.080   .     S
C739   C1134   1.416   1_545 S
C740   N771    1.366   .     A
C740   H770    1.082   .     S
C740   C935    1.416   .     S
C741   O777    1.284   .     A
C741   C746    1.427   .     S
C741   O780    1.285   .     A
C742   C745    1.427   .     S
C742   O778    1.285   .     A
C742   O779    1.284   .     A
C743   C745    1.413   .     A
C743   C753    1.410   .     A
C743   S783    1.792   .     S
C744   C746    1.413   .     A
C744   C754    1.410   .     A
C744   S788    1.792   .     S
C745   C747    1.389   .     A
C746   C748    1.389   .     A
C747   H757    1.087   .     S
C747   C749    1.378   .     A
C748   H758    1.087   .     S
C748   C750    1.378   .     A
C749   C755    1.395   .     A
C749   C751    1.407   .     A
C750   C752    1.407   .     A
C750   C756    1.395   .     A
C751   C753    1.419   .     A
C751   C158    1.400   1_556 S
C752   C754    1.419   .     A
C755   H759    1.084   .     S
C755   C135    1.386   1_556 S
C756   H760    1.084   .     S
N771   Zn781   2.009   .     S
N772   Zn782   2.009   .     S
O773   Zn781   2.000   .     S
O774   Zn782   2.000   .     S
O775   Zn781   2.000   .     S
O776   Zn782   2.000   .     S
O777   Zn781   2.007   .     S
O778   Zn782   2.007   .     S
O779   Zn781   2.007   .     S
O780   Zn782   2.007   .     S
S783   O784    1.502   .     D
S783   O785    1.504   .     D
S783   O786    1.678   .     S
O786   H787    0.990   .     S
S788   O790    1.504   .     D
S788   O789    1.502   .     D
S788   O791    1.678   .     S
O791   H792    0.990   .     S
C793   O842    1.283   .     A
C793   O839    1.282   .     A
C793   C802    1.420   .     S
C794   O841    1.282   .     A
C794   O840    1.283   .     A
C794   C801    1.420   .     S
C795   H827    1.078   .     S
C795   C820    1.407   .     A
C796   H828    1.078   .     S
C796   C819    1.407   .     A
C796   C228    1.386   1_556 S
C797   H829    1.084   .     S
C797   C802    1.397   .     A
C797   C931    1.368   1_455 S
C798   C801    1.397   .     A
C798   H830    1.084   .     S
C798   C866    1.369   .     S
C799   H831    1.084   .     S
C799   C801    1.397   .     A
C799   C863    1.368   .     S
C800   C802    1.397   .     A
C800   H832    1.084   .     S
C800   C930    1.369   1_455 S
C803   N838    1.366   .     A
C803   H833    1.080   .     S
C804   H834    1.082   .     S
C804   N837    1.366   .     A
C804   C1003   1.416   .     S
C805   N838    1.366   .     A
C805   H835    1.080   .     S
C806   N837    1.366   .     A
C806   H836    1.082   .     S
C806   C1001   1.416   .     S
C807   O843    1.284   .     A
C807   C812    1.427   .     S
C807   O846    1.285   .     A
C808   C811    1.427   .     S
C808   O844    1.285   .     A
C808   O845    1.284   .     A
C809   C811    1.413   .     A
C809   C819    1.410   .     A
C809   S849    1.792   .     S
C810   C812    1.413   .     A
C810   C820    1.410   .     A
C810   S854    1.792   .     S
C811   C813    1.389   .     A
C812   C814    1.389   .     A
C813   H823    1.087   .     S
C813   C815    1.378   .     A
C814   H824    1.087   .     S
C814   C816    1.378   .     A
C815   C821    1.395   .     A
C815   C817    1.407   .     A
C816   C818    1.407   .     A
C816   C822    1.395   .     A
C817   C819    1.419   .     A
C817   C224    1.400   1_556 S
C818   C820    1.419   .     A
C821   H825    1.084   .     S
C821   C201    1.386   1_556 S
C822   H826    1.084   .     S
N837   Zn847   2.009   .     S
N838   Zn848   2.009   .     S
O839   Zn847   2.000   .     S
O840   Zn848   2.000   .     S
O841   Zn847   2.000   .     S
O842   Zn848   2.000   .     S
O843   Zn847   2.007   .     S
O844   Zn848   2.007   .     S
O845   Zn847   2.007   .     S
O846   Zn848   2.007   .     S
S849   O850    1.502   .     D
S849   O851    1.504   .     D
S849   O852    1.678   .     S
O852   H853    0.990   .     S
S854   O856    1.504   .     D
S854   O855    1.502   .     D
S854   O857    1.678   .     S
O857   H858    0.990   .     S
C859   O908    1.283   .     A
C859   O905    1.282   .     A
C859   C868    1.420   .     S
C860   O907    1.282   .     A
C860   O906    1.283   .     A
C860   C867    1.420   .     S
C861   H893    1.078   .     S
C861   C886    1.407   .     A
C862   H894    1.078   .     S
C862   C885    1.407   .     A
C862   C294    1.386   1_556 S
C863   H895    1.084   .     S
C863   C868    1.397   .     A
C864   C867    1.397   .     A
C864   H896    1.084   .     S
C864   C932    1.369   .     S
C865   H897    1.084   .     S
C865   C867    1.397   .     A
C865   C929    1.368   .     S
C866   C868    1.397   .     A
C866   H898    1.084   .     S
C869   N904    1.366   .     A
C869   H899    1.080   .     S
C870   H900    1.082   .     S
C870   N903    1.366   .     A
C870   C1069   1.416   .     S
C871   N904    1.366   .     A
C871   H901    1.080   .     S
C872   N903    1.366   .     A
C872   H902    1.082   .     S
C872   C1067   1.416   .     S
C873   O909    1.284   .     A
C873   C878    1.427   .     S
C873   O912    1.285   .     A
C874   C877    1.427   .     S
C874   O910    1.285   .     A
C874   O911    1.284   .     A
C875   C877    1.413   .     A
C875   C885    1.410   .     A
C875   S915    1.792   .     S
C876   C878    1.413   .     A
C876   C886    1.410   .     A
C876   S920    1.792   .     S
C877   C879    1.389   .     A
C878   C880    1.389   .     A
C879   H889    1.087   .     S
C879   C881    1.378   .     A
C880   H890    1.087   .     S
C880   C882    1.378   .     A
C881   C887    1.395   .     A
C881   C883    1.407   .     A
C882   C884    1.407   .     A
C882   C888    1.395   .     A
C883   C885    1.419   .     A
C883   C290    1.400   1_556 S
C884   C886    1.419   .     A
C887   H891    1.084   .     S
C887   C267    1.386   1_556 S
C888   H892    1.084   .     S
N903   Zn913   2.009   .     S
N904   Zn914   2.009   .     S
O905   Zn913   2.000   .     S
O906   Zn914   2.000   .     S
O907   Zn913   2.000   .     S
O908   Zn914   2.000   .     S
O909   Zn913   2.007   .     S
O910   Zn914   2.007   .     S
O911   Zn913   2.007   .     S
O912   Zn914   2.007   .     S
S915   O916    1.502   .     D
S915   O917    1.504   .     D
S915   O918    1.678   .     S
O918   H919    0.990   .     S
S920   O922    1.504   .     D
S920   O921    1.502   .     D
S920   O923    1.678   .     S
O923   H924    0.990   .     S
C925   O974    1.283   .     A
C925   O971    1.282   .     A
C925   C934    1.420   .     S
C926   O973    1.282   .     A
C926   O972    1.283   .     A
C926   C933    1.420   .     S
C927   H959    1.078   .     S
C927   C952    1.407   .     A
C928   H960    1.078   .     S
C928   C951    1.407   .     A
C928   C360    1.386   1_556 S
C929   H961    1.084   .     S
C929   C934    1.397   .     A
C930   C933    1.397   .     A
C930   H962    1.084   .     S
C930   C800    1.369   1_655 S
C931   H963    1.084   .     S
C931   C933    1.397   .     A
C931   C797    1.368   1_655 S
C932   C934    1.397   .     A
C932   H964    1.084   .     S
C935   N970    1.366   .     A
C935   H965    1.080   .     S
C936   H966    1.082   .     S
C936   N969    1.366   .     A
C936   C1135   1.416   .     S
C937   N970    1.366   .     A
C937   H967    1.080   .     S
C938   N969    1.366   .     A
C938   H968    1.082   .     S
C938   C1133   1.416   .     S
C939   O975    1.284   .     A
C939   C944    1.427   .     S
C939   O978    1.285   .     A
C940   C943    1.427   .     S
C940   O976    1.285   .     A
C940   O977    1.284   .     A
C941   C943    1.413   .     A
C941   C951    1.410   .     A
C941   S981    1.792   .     S
C942   C944    1.413   .     A
C942   C952    1.410   .     A
C942   S986    1.792   .     S
C943   C945    1.389   .     A
C944   C946    1.389   .     A
C945   H955    1.087   .     S
C945   C947    1.378   .     A
C946   H956    1.087   .     S
C946   C948    1.378   .     A
C947   C953    1.395   .     A
C947   C949    1.407   .     A
C948   C950    1.407   .     A
C948   C954    1.395   .     A
C949   C951    1.419   .     A
C949   C356    1.400   1_556 S
C950   C952    1.419   .     A
C953   H957    1.084   .     S
C953   C333    1.386   1_556 S
C954   H958    1.084   .     S
N969   Zn979   2.009   .     S
N970   Zn980   2.009   .     S
O971   Zn979   2.000   .     S
O972   Zn980   2.000   .     S
O973   Zn979   2.000   .     S
O974   Zn980   2.000   .     S
O975   Zn979   2.007   .     S
O976   Zn980   2.007   .     S
O977   Zn979   2.007   .     S
O978   Zn980   2.007   .     S
S981   O982    1.502   .     D
S981   O983    1.504   .     D
S981   O984    1.678   .     S
O984   H985    0.990   .     S
S986   O988    1.504   .     D
S986   O987    1.502   .     D
S986   O989    1.678   .     S
O989   H990    0.990   .     S
C991   O1040   1.283   .     A
C991   O1037   1.282   .     A
C991   C1000   1.420   .     S
C992   O1039   1.282   .     A
C992   O1038   1.283   .     A
C992   C999    1.420   .     S
C993   H1025   1.078   .     S
C993   C1018   1.407   .     A
C994   H1026   1.078   .     S
C994   C1017   1.407   .     A
C994   C426    1.386   1_556 S
C995   H1027   1.084   .     S
C995   C1000   1.397   .     A
C995   C1129   1.368   1_455 S
C996   C999    1.397   .     A
C996   H1028   1.084   .     S
C996   C1064   1.369   .     S
C997   H1029   1.084   .     S
C997   C999    1.397   .     A
C997   C1061   1.368   .     S
C998   C1000   1.397   .     A
C998   H1030   1.084   .     S
C998   C1128   1.369   1_455 S
C1001  N1036   1.366   .     A
C1001  H1031   1.080   .     S
C1002  H1032   1.082   .     S
C1002  N1035   1.366   .     A
C1002  C607    1.416   1_565 S
C1003  N1036   1.366   .     A
C1003  H1033   1.080   .     S
C1004  N1035   1.366   .     A
C1004  H1034   1.082   .     S
C1004  C605    1.416   1_565 S
C1005  O1041   1.284   .     A
C1005  C1010   1.427   .     S
C1005  O1044   1.285   .     A
C1006  C1009   1.427   .     S
C1006  O1042   1.285   .     A
C1006  O1043   1.284   .     A
C1007  C1009   1.413   .     A
C1007  C1017   1.410   .     A
C1007  S1047   1.792   .     S
C1008  C1010   1.413   .     A
C1008  C1018   1.410   .     A
C1008  S1052   1.792   .     S
C1009  C1011   1.389   .     A
C1010  C1012   1.389   .     A
C1011  H1021   1.087   .     S
C1011  C1013   1.378   .     A
C1012  H1022   1.087   .     S
C1012  C1014   1.378   .     A
C1013  C1019   1.395   .     A
C1013  C1015   1.407   .     A
C1014  C1016   1.407   .     A
C1014  C1020   1.395   .     A
C1015  C1017   1.419   .     A
C1015  C422    1.400   1_556 S
C1016  C1018   1.419   .     A
C1019  H1023   1.084   .     S
C1019  C399    1.386   1_556 S
C1020  H1024   1.084   .     S
N1035  Zn1045  2.009   .     S
N1036  Zn1046  2.009   .     S
O1037  Zn1045  2.000   .     S
O1038  Zn1046  2.000   .     S
O1039  Zn1045  2.000   .     S
O1040  Zn1046  2.000   .     S
O1041  Zn1045  2.007   .     S
O1042  Zn1046  2.007   .     S
O1043  Zn1045  2.007   .     S
O1044  Zn1046  2.007   .     S
S1047  O1048   1.502   .     D
S1047  O1049   1.504   .     D
S1047  O1050   1.678   .     S
O1050  H1051   0.990   .     S
S1052  O1054   1.504   .     D
S1052  O1053   1.502   .     D
S1052  O1055   1.678   .     S
O1055  H1056   0.990   .     S
C1057  O1106   1.283   .     A
C1057  O1103   1.282   .     A
C1057  C1066   1.420   .     S
C1058  O1105   1.282   .     A
C1058  O1104   1.283   .     A
C1058  C1065   1.420   .     S
C1059  H1091   1.078   .     S
C1059  C1084   1.407   .     A
C1060  H1092   1.078   .     S
C1060  C1083   1.407   .     A
C1060  C492    1.386   1_556 S
C1061  H1093   1.084   .     S
C1061  C1066   1.397   .     A
C1062  C1065   1.397   .     A
C1062  H1094   1.084   .     S
C1062  C1130   1.369   .     S
C1063  H1095   1.084   .     S
C1063  C1065   1.397   .     A
C1063  C1127   1.368   .     S
C1064  C1066   1.397   .     A
C1064  H1096   1.084   .     S
C1067  N1102   1.366   .     A
C1067  H1097   1.080   .     S
C1068  H1098   1.082   .     S
C1068  N1101   1.366   .     A
C1068  C673    1.416   1_565 S
C1069  N1102   1.366   .     A
C1069  H1099   1.080   .     S
C1070  N1101   1.366   .     A
C1070  H1100   1.082   .     S
C1070  C671    1.416   1_565 S
C1071  O1107   1.284   .     A
C1071  C1076   1.427   .     S
C1071  O1110   1.285   .     A
C1072  C1075   1.427   .     S
C1072  O1108   1.285   .     A
C1072  O1109   1.284   .     A
C1073  C1075   1.413   .     A
C1073  C1083   1.410   .     A
C1073  S1113   1.792   .     S
C1074  C1076   1.413   .     A
C1074  C1084   1.410   .     A
C1074  S1118   1.792   .     S
C1075  C1077   1.389   .     A
C1076  C1078   1.389   .     A
C1077  H1087   1.087   .     S
C1077  C1079   1.378   .     A
C1078  H1088   1.087   .     S
C1078  C1080   1.378   .     A
C1079  C1085   1.395   .     A
C1079  C1081   1.407   .     A
C1080  C1082   1.407   .     A
C1080  C1086   1.395   .     A
C1081  C1083   1.419   .     A
C1081  C488    1.400   1_556 S
C1082  C1084   1.419   .     A
C1085  H1089   1.084   .     S
C1085  C465    1.386   1_556 S
C1086  H1090   1.084   .     S
N1101  Zn1111  2.009   .     S
N1102  Zn1112  2.009   .     S
O1103  Zn1111  2.000   .     S
O1104  Zn1112  2.000   .     S
O1105  Zn1111  2.000   .     S
O1106  Zn1112  2.000   .     S
O1107  Zn1111  2.007   .     S
O1108  Zn1112  2.007   .     S
O1109  Zn1111  2.007   .     S
O1110  Zn1112  2.007   .     S
S1113  O1114   1.502   .     D
S1113  O1115   1.504   .     D
S1113  O1116   1.678   .     S
O1116  H1117   0.990   .     S
S1118  O1120   1.504   .     D
S1118  O1119   1.502   .     D
S1118  O1121   1.678   .     S
O1121  H1122   0.990   .     S
C1123  O1172   1.283   .     A
C1123  O1169   1.282   .     A
C1123  C1132   1.420   .     S
C1124  O1171   1.282   .     A
C1124  O1170   1.283   .     A
C1124  C1131   1.420   .     S
C1125  H1157   1.078   .     S
C1125  C1150   1.407   .     A
C1126  H1158   1.078   .     S
C1126  C1149   1.407   .     A
C1126  C558    1.386   1_556 S
C1127  H1159   1.084   .     S
C1127  C1132   1.397   .     A
C1128  C1131   1.397   .     A
C1128  H1160   1.084   .     S
C1128  C998    1.369   1_655 S
C1129  H1161   1.084   .     S
C1129  C1131   1.397   .     A
C1129  C995    1.368   1_655 S
C1130  C1132   1.397   .     A
C1130  H1162   1.084   .     S
C1133  N1168   1.366   .     A
C1133  H1163   1.080   .     S
C1134  H1164   1.082   .     S
C1134  N1167   1.366   .     A
C1134  C739    1.416   1_565 S
C1135  N1168   1.366   .     A
C1135  H1165   1.080   .     S
C1136  N1167   1.366   .     A
C1136  H1166   1.082   .     S
C1136  C737    1.416   1_565 S
C1137  O1173   1.284   .     A
C1137  C1142   1.427   .     S
C1137  O1176   1.285   .     A
C1138  C1141   1.427   .     S
C1138  O1174   1.285   .     A
C1138  O1175   1.284   .     A
C1139  C1141   1.413   .     A
C1139  C1149   1.410   .     A
C1139  S1179   1.792   .     S
C1140  C1142   1.413   .     A
C1140  C1150   1.410   .     A
C1140  S1184   1.792   .     S
C1141  C1143   1.389   .     A
C1142  C1144   1.389   .     A
C1143  H1153   1.087   .     S
C1143  C1145   1.378   .     A
C1144  H1154   1.087   .     S
C1144  C1146   1.378   .     A
C1145  C1151   1.395   .     A
C1145  C1147   1.407   .     A
C1146  C1148   1.407   .     A
C1146  C1152   1.395   .     A
C1147  C1149   1.419   .     A
C1147  C554    1.400   1_556 S
C1148  C1150   1.419   .     A
C1151  H1155   1.084   .     S
C1151  C531    1.386   1_556 S
C1152  H1156   1.084   .     S
N1167  Zn1177  2.009   .     S
N1168  Zn1178  2.009   .     S
O1169  Zn1177  2.000   .     S
O1170  Zn1178  2.000   .     S
O1171  Zn1177  2.000   .     S
O1172  Zn1178  2.000   .     S
O1173  Zn1177  2.007   .     S
O1174  Zn1178  2.007   .     S
O1175  Zn1177  2.007   .     S
O1176  Zn1178  2.007   .     S
S1179  O1180   1.502   .     D
S1179  O1181   1.504   .     D
S1179  O1182   1.678   .     S
O1182  H1183   0.990   .     S
S1184  O1186   1.504   .     D
S1184  O1185   1.502   .     D
S1184  O1187   1.678   .     S
O1187  H1188   0.990   .     S
