data_str_m3_o1_o17_pcu_sym.193
_audit_creation_date              2020-01-03
_audit_creation_method            'Materials Studio'
_symmetry_space_group_name_H-M    'P1'
_symmetry_Int_Tables_number       1
_symmetry_cell_setting            triclinic
loop_
_symmetry_equiv_pos_as_xyz
  x,y,z
_cell_length_a                    32.3865
_cell_length_b                    29.6358
_cell_length_c                    29.8831
_cell_angle_alpha                 89.8703
_cell_angle_beta                  91.1663
_cell_angle_gamma                 89.0854
loop_
_atom_site_label
_atom_site_type_symbol
_atom_site_fract_x
_atom_site_fract_y
_atom_site_fract_z
_atom_site_U_iso_or_equiv
_atom_site_adp_type
_atom_site_occupancy
C1     C     0.08680   0.16705   0.25368   0.00000  Uiso   1.00
C2     C     0.24654   0.16629   0.24632   0.00000  Uiso   1.00
C3     C     0.09108   0.16757   0.02087   0.00000  Uiso   1.00
C4     C     0.24226   0.16577   0.47913   0.00000  Uiso   1.00
C5     C     0.02159   0.12641   0.26098   0.00000  Uiso   1.00
C6     C     0.31174   0.20692   0.23902   0.00000  Uiso   1.00
C7     C     0.31338   0.12480   0.24980   0.00000  Uiso   1.00
C8     C     0.01996   0.20853   0.25020   0.00000  Uiso   1.00
C9     C     0.29104   0.16561   0.24281   0.00000  Uiso   1.00
C10    C     0.04229   0.16772   0.25719   0.00000  Uiso   1.00
C11    C     0.19117   0.02354   0.27964   0.00000  Uiso   1.00
C12    C     0.14216   0.30979   0.22036   0.00000  Uiso   1.00
C13    C     0.14190   0.02453   0.22060   0.00000  Uiso   1.00
C14    C     0.19143   0.30881   0.27939   0.00000  Uiso   1.00
C15    C     0.16643   0.16672   0.16372   0.00000  Uiso   1.00
C16    C     0.16690   0.16661   0.33628   0.00000  Uiso   1.00
C17    C     0.20502   0.16604   0.40738   0.00000  Uiso   1.00
C18    C     0.12831   0.16730   0.09262   0.00000  Uiso   1.00
C19    C     0.16713   0.16649   0.38391   0.00000  Uiso   1.00
C20    C     0.16620   0.16684   0.11609   0.00000  Uiso   1.00
C21    C     0.12916   0.16691   0.40550   0.00000  Uiso   1.00
C22    C     0.20417   0.16643   0.09450   0.00000  Uiso   1.00
C23    C     0.12891   0.16698   0.45207   0.00000  Uiso   1.00
C24    C     0.20442   0.16635   0.04793   0.00000  Uiso   1.00
C25    C     0.16683   0.16661   0.47653   0.00000  Uiso   1.00
C26    C     0.16651   0.16672   0.02347   0.00000  Uiso   1.00
C27    C     0.20503   0.16613   0.45417   0.00000  Uiso   1.00
C28    C     0.12830   0.16721   0.04583   0.00000  Uiso   1.00
C29    C     0.09141   0.16745   0.47462   0.00000  Uiso   1.00
C30    C     0.24192   0.16589   0.02538   0.00000  Uiso   1.00
H31    H     0.06200   0.16773   0.45669   0.00000  Uiso   1.00
H32    H     0.27133   0.16560   0.04331   0.00000  Uiso   1.00
H33    H     0.06135   0.16793   0.03679   0.00000  Uiso   1.00
H34    H     0.27199   0.16541   0.46321   0.00000  Uiso   1.00
N35    N     0.16667   0.28573   0.25000   0.00000  Uiso   1.00
N36    N     0.16667   0.04760   0.25000   0.00000  Uiso   1.00
O37    O     0.10559   0.20487   0.24999   0.00000  Uiso   1.00
O38    O     0.22774   0.12846   0.25000   0.00000  Uiso   1.00
O39    O     0.22774   0.20487   0.25000   0.00000  Uiso   1.00
O40    O     0.10559   0.12846   0.24999   0.00000  Uiso   1.00
O41    O     0.16666   0.20489   0.18392   0.00000  Uiso   1.00
O42    O     0.16667   0.12844   0.31607   0.00000  Uiso   1.00
O43    O     0.16667   0.20489   0.31607   0.00000  Uiso   1.00
O44    O     0.16666   0.12844   0.18392   0.00000  Uiso   1.00
Zn45   Zn    0.16667   0.21771   0.25000   0.00000  Uiso   1.00
Zn46   Zn    0.16667   0.11563   0.25000   0.00000  Uiso   1.00
C47    C     0.24352   0.16542   0.38310   0.00000  Uiso   1.00
N48    N     0.27414   0.16490   0.36377   0.00000  Uiso   1.00
C49    C     0.08981   0.16792   0.11690   0.00000  Uiso   1.00
N50    N     0.05919   0.16843   0.13623   0.00000  Uiso   1.00
N51    N     0.09082   0.16725   0.38027   0.00000  Uiso   1.00
H52    H     0.08999   0.13855   0.36000   0.00000  Uiso   1.00
H53    H     0.08964   0.19587   0.35972   0.00000  Uiso   1.00
N54    N     0.24251   0.16608   0.11973   0.00000  Uiso   1.00
H55    H     0.24370   0.13746   0.14028   0.00000  Uiso   1.00
H56    H     0.24334   0.19478   0.14000   0.00000  Uiso   1.00
C57    C     0.04183   0.08594   0.27917   0.00000  Uiso   1.00
N58    N     0.05788   0.05386   0.29386   0.00000  Uiso   1.00
C59    C     0.29150   0.24740   0.22083   0.00000  Uiso   1.00
N60    N     0.27546   0.27947   0.20614   0.00000  Uiso   1.00
C61    C     0.29543   0.08080   0.24199   0.00000  Uiso   1.00
N62    N     0.28160   0.04564   0.23532   0.00000  Uiso   1.00
C63    C     0.03790   0.25253   0.25801   0.00000  Uiso   1.00
N64    N     0.05173   0.28770   0.26468   0.00000  Uiso   1.00
C65    C     0.21684   0.04728   0.31147   0.00000  Uiso   1.00
N66    N     0.23764   0.06587   0.33715   0.00000  Uiso   1.00
C67    C     0.11649   0.28605   0.18853   0.00000  Uiso   1.00
N68    N     0.09569   0.26747   0.16285   0.00000  Uiso   1.00
C69    C     0.11483   0.04932   0.19018   0.00000  Uiso   1.00
N70    N     0.09286   0.06879   0.16568   0.00000  Uiso   1.00
C71    C     0.21851   0.28401   0.30982   0.00000  Uiso   1.00
N72    N     0.24047   0.26454   0.33432   0.00000  Uiso   1.00
C73    C     0.42013   0.16705   0.25368   0.00000  Uiso   1.00
C74    C     0.57987   0.16629   0.24632   0.00000  Uiso   1.00
C75    C     0.42441   0.16757   0.02087   0.00000  Uiso   1.00
C76    C     0.57559   0.16577   0.47913   0.00000  Uiso   1.00
C77    C     0.35493   0.12641   0.26098   0.00000  Uiso   1.00
C78    C     0.64507   0.20692   0.23902   0.00000  Uiso   1.00
C79    C     0.64671   0.12480   0.24980   0.00000  Uiso   1.00
C80    C     0.35329   0.20853   0.25020   0.00000  Uiso   1.00
C81    C     0.62437   0.16561   0.24281   0.00000  Uiso   1.00
C82    C     0.37563   0.16772   0.25719   0.00000  Uiso   1.00
C83    C     0.52451   0.02354   0.27964   0.00000  Uiso   1.00
C84    C     0.47549   0.30979   0.22036   0.00000  Uiso   1.00
C85    C     0.47524   0.02453   0.22060   0.00000  Uiso   1.00
C86    C     0.52476   0.30881   0.27939   0.00000  Uiso   1.00
C87    C     0.49976   0.16672   0.16372   0.00000  Uiso   1.00
C88    C     0.50024   0.16661   0.33628   0.00000  Uiso   1.00
C89    C     0.53836   0.16604   0.40738   0.00000  Uiso   1.00
C90    C     0.46164   0.16730   0.09262   0.00000  Uiso   1.00
C91    C     0.50046   0.16649   0.38391   0.00000  Uiso   1.00
C92    C     0.49953   0.16684   0.11609   0.00000  Uiso   1.00
C93    C     0.46249   0.16691   0.40550   0.00000  Uiso   1.00
C94    C     0.53751   0.16643   0.09450   0.00000  Uiso   1.00
C95    C     0.46224   0.16698   0.45207   0.00000  Uiso   1.00
C96    C     0.53775   0.16635   0.04793   0.00000  Uiso   1.00
C97    C     0.50016   0.16661   0.47653   0.00000  Uiso   1.00
C98    C     0.49984   0.16672   0.02347   0.00000  Uiso   1.00
C99    C     0.53837   0.16613   0.45417   0.00000  Uiso   1.00
C100   C     0.46163   0.16721   0.04583   0.00000  Uiso   1.00
C101   C     0.42474   0.16745   0.47462   0.00000  Uiso   1.00
C102   C     0.57525   0.16589   0.02538   0.00000  Uiso   1.00
H103   H     0.39534   0.16773   0.45669   0.00000  Uiso   1.00
H104   H     0.60466   0.16560   0.04331   0.00000  Uiso   1.00
H105   H     0.39468   0.16793   0.03679   0.00000  Uiso   1.00
H106   H     0.60532   0.16541   0.46321   0.00000  Uiso   1.00
N107   N     0.50000   0.28573   0.25000   0.00000  Uiso   1.00
N108   N     0.50000   0.04760   0.25000   0.00000  Uiso   1.00
O109   O     0.43892   0.20487   0.24999   0.00000  Uiso   1.00
O110   O     0.56108   0.12846   0.25000   0.00000  Uiso   1.00
O111   O     0.56108   0.20487   0.25000   0.00000  Uiso   1.00
O112   O     0.43892   0.12846   0.24999   0.00000  Uiso   1.00
O113   O     0.49999   0.20489   0.18392   0.00000  Uiso   1.00
O114   O     0.50001   0.12844   0.31607   0.00000  Uiso   1.00
O115   O     0.50001   0.20489   0.31607   0.00000  Uiso   1.00
O116   O     0.49999   0.12844   0.18392   0.00000  Uiso   1.00
Zn117  Zn    0.50000   0.21771   0.25000   0.00000  Uiso   1.00
Zn118  Zn    0.50000   0.11563   0.25000   0.00000  Uiso   1.00
C119   C     0.57686   0.16542   0.38310   0.00000  Uiso   1.00
N120   N     0.60748   0.16490   0.36377   0.00000  Uiso   1.00
C121   C     0.42314   0.16792   0.11690   0.00000  Uiso   1.00
N122   N     0.39252   0.16843   0.13623   0.00000  Uiso   1.00
N123   N     0.42415   0.16725   0.38027   0.00000  Uiso   1.00
H124   H     0.42332   0.13855   0.36000   0.00000  Uiso   1.00
H125   H     0.42297   0.19587   0.35972   0.00000  Uiso   1.00
N126   N     0.57585   0.16608   0.11973   0.00000  Uiso   1.00
H127   H     0.57703   0.13746   0.14028   0.00000  Uiso   1.00
H128   H     0.57667   0.19478   0.14000   0.00000  Uiso   1.00
C129   C     0.37516   0.08594   0.27917   0.00000  Uiso   1.00
N130   N     0.39121   0.05386   0.29386   0.00000  Uiso   1.00
C131   C     0.62484   0.24740   0.22083   0.00000  Uiso   1.00
N132   N     0.60879   0.27947   0.20614   0.00000  Uiso   1.00
C133   C     0.62876   0.08080   0.24199   0.00000  Uiso   1.00
N134   N     0.61494   0.04564   0.23532   0.00000  Uiso   1.00
C135   C     0.37124   0.25253   0.25801   0.00000  Uiso   1.00
N136   N     0.38506   0.28770   0.26468   0.00000  Uiso   1.00
C137   C     0.55018   0.04728   0.31147   0.00000  Uiso   1.00
N138   N     0.57098   0.06587   0.33715   0.00000  Uiso   1.00
C139   C     0.44982   0.28605   0.18853   0.00000  Uiso   1.00
N140   N     0.42902   0.26747   0.16285   0.00000  Uiso   1.00
C141   C     0.44816   0.04932   0.19018   0.00000  Uiso   1.00
N142   N     0.42619   0.06879   0.16568   0.00000  Uiso   1.00
C143   C     0.55184   0.28401   0.30982   0.00000  Uiso   1.00
N144   N     0.57381   0.26454   0.33432   0.00000  Uiso   1.00
C145   C     0.75346   0.16705   0.25368   0.00000  Uiso   1.00
C146   C     0.91320   0.16629   0.24632   0.00000  Uiso   1.00
C147   C     0.75774   0.16757   0.02087   0.00000  Uiso   1.00
C148   C     0.90892   0.16577   0.47913   0.00000  Uiso   1.00
C149   C     0.68826   0.12641   0.26098   0.00000  Uiso   1.00
C150   C     0.97841   0.20692   0.23902   0.00000  Uiso   1.00
C151   C     0.98004   0.12480   0.24980   0.00000  Uiso   1.00
C152   C     0.68662   0.20853   0.25020   0.00000  Uiso   1.00
C153   C     0.95771   0.16561   0.24281   0.00000  Uiso   1.00
C154   C     0.70896   0.16772   0.25719   0.00000  Uiso   1.00
C155   C     0.85784   0.02354   0.27964   0.00000  Uiso   1.00
C156   C     0.80883   0.30979   0.22036   0.00000  Uiso   1.00
C157   C     0.80857   0.02453   0.22060   0.00000  Uiso   1.00
C158   C     0.85810   0.30881   0.27939   0.00000  Uiso   1.00
C159   C     0.83309   0.16672   0.16372   0.00000  Uiso   1.00
C160   C     0.83357   0.16661   0.33628   0.00000  Uiso   1.00
C161   C     0.87169   0.16604   0.40738   0.00000  Uiso   1.00
C162   C     0.79497   0.16730   0.09262   0.00000  Uiso   1.00
C163   C     0.83380   0.16649   0.38391   0.00000  Uiso   1.00
C164   C     0.83287   0.16684   0.11609   0.00000  Uiso   1.00
C165   C     0.79583   0.16691   0.40550   0.00000  Uiso   1.00
C166   C     0.87084   0.16643   0.09450   0.00000  Uiso   1.00
C167   C     0.79558   0.16698   0.45207   0.00000  Uiso   1.00
C168   C     0.87109   0.16635   0.04793   0.00000  Uiso   1.00
C169   C     0.83349   0.16661   0.47653   0.00000  Uiso   1.00
C170   C     0.83317   0.16672   0.02347   0.00000  Uiso   1.00
C171   C     0.87170   0.16613   0.45417   0.00000  Uiso   1.00
C172   C     0.79497   0.16721   0.04583   0.00000  Uiso   1.00
C173   C     0.75808   0.16745   0.47462   0.00000  Uiso   1.00
C174   C     0.90859   0.16589   0.02538   0.00000  Uiso   1.00
H175   H     0.72867   0.16773   0.45669   0.00000  Uiso   1.00
H176   H     0.93800   0.16560   0.04331   0.00000  Uiso   1.00
H177   H     0.72801   0.16793   0.03679   0.00000  Uiso   1.00
H178   H     0.93865   0.16541   0.46321   0.00000  Uiso   1.00
N179   N     0.83333   0.28573   0.25000   0.00000  Uiso   1.00
N180   N     0.83333   0.04760   0.25000   0.00000  Uiso   1.00
O181   O     0.77226   0.20487   0.24999   0.00000  Uiso   1.00
O182   O     0.89441   0.12846   0.25000   0.00000  Uiso   1.00
O183   O     0.89441   0.20487   0.25000   0.00000  Uiso   1.00
O184   O     0.77226   0.12846   0.24999   0.00000  Uiso   1.00
O185   O     0.83333   0.20489   0.18392   0.00000  Uiso   1.00
O186   O     0.83334   0.12844   0.31607   0.00000  Uiso   1.00
O187   O     0.83334   0.20489   0.31607   0.00000  Uiso   1.00
O188   O     0.83333   0.12844   0.18392   0.00000  Uiso   1.00
Zn189  Zn    0.83333   0.21771   0.25000   0.00000  Uiso   1.00
Zn190  Zn    0.83333   0.11563   0.25000   0.00000  Uiso   1.00
C191   C     0.91019   0.16542   0.38310   0.00000  Uiso   1.00
N192   N     0.94081   0.16490   0.36377   0.00000  Uiso   1.00
C193   C     0.75648   0.16792   0.11690   0.00000  Uiso   1.00
N194   N     0.72586   0.16843   0.13623   0.00000  Uiso   1.00
N195   N     0.75749   0.16725   0.38027   0.00000  Uiso   1.00
H196   H     0.75666   0.13855   0.36000   0.00000  Uiso   1.00
H197   H     0.75630   0.19587   0.35972   0.00000  Uiso   1.00
N198   N     0.90918   0.16608   0.11973   0.00000  Uiso   1.00
H199   H     0.91036   0.13746   0.14028   0.00000  Uiso   1.00
H200   H     0.91001   0.19478   0.14000   0.00000  Uiso   1.00
C201   C     0.70850   0.08594   0.27917   0.00000  Uiso   1.00
N202   N     0.72454   0.05386   0.29386   0.00000  Uiso   1.00
C203   C     0.95817   0.24740   0.22083   0.00000  Uiso   1.00
N204   N     0.94212   0.27947   0.20614   0.00000  Uiso   1.00
C205   C     0.96210   0.08080   0.24199   0.00000  Uiso   1.00
N206   N     0.94827   0.04564   0.23532   0.00000  Uiso   1.00
C207   C     0.70457   0.25253   0.25801   0.00000  Uiso   1.00
N208   N     0.71840   0.28770   0.26468   0.00000  Uiso   1.00
C209   C     0.88351   0.04728   0.31147   0.00000  Uiso   1.00
N210   N     0.90431   0.06587   0.33715   0.00000  Uiso   1.00
C211   C     0.78316   0.28605   0.18853   0.00000  Uiso   1.00
N212   N     0.76236   0.26747   0.16285   0.00000  Uiso   1.00
C213   C     0.78149   0.04932   0.19018   0.00000  Uiso   1.00
N214   N     0.75953   0.06879   0.16568   0.00000  Uiso   1.00
C215   C     0.88517   0.28401   0.30982   0.00000  Uiso   1.00
N216   N     0.90714   0.26454   0.33432   0.00000  Uiso   1.00
C217   C     0.08680   0.50038   0.25368   0.00000  Uiso   1.00
C218   C     0.24654   0.49962   0.24632   0.00000  Uiso   1.00
C219   C     0.09108   0.50090   0.02087   0.00000  Uiso   1.00
C220   C     0.24226   0.49910   0.47913   0.00000  Uiso   1.00
C221   C     0.02159   0.45975   0.26098   0.00000  Uiso   1.00
C222   C     0.31174   0.54025   0.23902   0.00000  Uiso   1.00
C223   C     0.31338   0.45814   0.24980   0.00000  Uiso   1.00
C224   C     0.01996   0.54186   0.25020   0.00000  Uiso   1.00
C225   C     0.29104   0.49894   0.24281   0.00000  Uiso   1.00
C226   C     0.04229   0.50106   0.25719   0.00000  Uiso   1.00
C227   C     0.19117   0.35687   0.27964   0.00000  Uiso   1.00
C228   C     0.14216   0.64313   0.22036   0.00000  Uiso   1.00
C229   C     0.14190   0.35786   0.22060   0.00000  Uiso   1.00
C230   C     0.19143   0.64214   0.27939   0.00000  Uiso   1.00
C231   C     0.16643   0.50005   0.16372   0.00000  Uiso   1.00
C232   C     0.16690   0.49995   0.33628   0.00000  Uiso   1.00
C233   C     0.20502   0.49937   0.40738   0.00000  Uiso   1.00
C234   C     0.12831   0.50063   0.09262   0.00000  Uiso   1.00
C235   C     0.16713   0.49983   0.38391   0.00000  Uiso   1.00
C236   C     0.16620   0.50017   0.11609   0.00000  Uiso   1.00
C237   C     0.12916   0.50024   0.40550   0.00000  Uiso   1.00
C238   C     0.20417   0.49976   0.09450   0.00000  Uiso   1.00
C239   C     0.12891   0.50031   0.45207   0.00000  Uiso   1.00
C240   C     0.20442   0.49969   0.04793   0.00000  Uiso   1.00
C241   C     0.16683   0.49995   0.47653   0.00000  Uiso   1.00
C242   C     0.16651   0.50005   0.02347   0.00000  Uiso   1.00
C243   C     0.20503   0.49946   0.45417   0.00000  Uiso   1.00
C244   C     0.12830   0.50054   0.04583   0.00000  Uiso   1.00
C245   C     0.09141   0.50078   0.47462   0.00000  Uiso   1.00
C246   C     0.24192   0.49922   0.02538   0.00000  Uiso   1.00
H247   H     0.06200   0.50106   0.45669   0.00000  Uiso   1.00
H248   H     0.27133   0.49894   0.04331   0.00000  Uiso   1.00
H249   H     0.06135   0.50126   0.03679   0.00000  Uiso   1.00
H250   H     0.27199   0.49874   0.46321   0.00000  Uiso   1.00
N251   N     0.16667   0.61907   0.25000   0.00000  Uiso   1.00
N252   N     0.16667   0.38093   0.25000   0.00000  Uiso   1.00
O253   O     0.10559   0.53821   0.24999   0.00000  Uiso   1.00
O254   O     0.22774   0.46179   0.25000   0.00000  Uiso   1.00
O255   O     0.22774   0.53821   0.25000   0.00000  Uiso   1.00
O256   O     0.10559   0.46179   0.24999   0.00000  Uiso   1.00
O257   O     0.16666   0.53823   0.18392   0.00000  Uiso   1.00
O258   O     0.16667   0.46177   0.31607   0.00000  Uiso   1.00
O259   O     0.16667   0.53823   0.31607   0.00000  Uiso   1.00
O260   O     0.16666   0.46177   0.18392   0.00000  Uiso   1.00
Zn261  Zn    0.16667   0.55104   0.25000   0.00000  Uiso   1.00
Zn262  Zn    0.16667   0.44896   0.25000   0.00000  Uiso   1.00
C263   C     0.24352   0.49875   0.38310   0.00000  Uiso   1.00
N264   N     0.27414   0.49823   0.36377   0.00000  Uiso   1.00
C265   C     0.08981   0.50125   0.11690   0.00000  Uiso   1.00
N266   N     0.05919   0.50177   0.13623   0.00000  Uiso   1.00
N267   N     0.09082   0.50058   0.38027   0.00000  Uiso   1.00
H268   H     0.08999   0.47189   0.36000   0.00000  Uiso   1.00
H269   H     0.08964   0.52920   0.35972   0.00000  Uiso   1.00
N270   N     0.24251   0.49942   0.11973   0.00000  Uiso   1.00
H271   H     0.24370   0.47080   0.14028   0.00000  Uiso   1.00
H272   H     0.24334   0.52811   0.14000   0.00000  Uiso   1.00
C273   C     0.04183   0.41927   0.27917   0.00000  Uiso   1.00
N274   N     0.05788   0.38720   0.29386   0.00000  Uiso   1.00
C275   C     0.29150   0.58073   0.22083   0.00000  Uiso   1.00
N276   N     0.27546   0.61280   0.20614   0.00000  Uiso   1.00
C277   C     0.29543   0.41413   0.24199   0.00000  Uiso   1.00
N278   N     0.28160   0.37897   0.23532   0.00000  Uiso   1.00
C279   C     0.03790   0.58587   0.25801   0.00000  Uiso   1.00
N280   N     0.05173   0.62103   0.26468   0.00000  Uiso   1.00
C281   C     0.21684   0.38061   0.31147   0.00000  Uiso   1.00
N282   N     0.23764   0.39920   0.33715   0.00000  Uiso   1.00
C283   C     0.11649   0.61939   0.18853   0.00000  Uiso   1.00
N284   N     0.09569   0.60080   0.16285   0.00000  Uiso   1.00
C285   C     0.11483   0.38265   0.19018   0.00000  Uiso   1.00
N286   N     0.09286   0.40212   0.16568   0.00000  Uiso   1.00
C287   C     0.21851   0.61735   0.30982   0.00000  Uiso   1.00
N288   N     0.24047   0.59788   0.33432   0.00000  Uiso   1.00
C289   C     0.42013   0.50038   0.25368   0.00000  Uiso   1.00
C290   C     0.57987   0.49962   0.24632   0.00000  Uiso   1.00
C291   C     0.42441   0.50090   0.02087   0.00000  Uiso   1.00
C292   C     0.57559   0.49910   0.47913   0.00000  Uiso   1.00
C293   C     0.35493   0.45975   0.26098   0.00000  Uiso   1.00
C294   C     0.64507   0.54025   0.23902   0.00000  Uiso   1.00
C295   C     0.64671   0.45814   0.24980   0.00000  Uiso   1.00
C296   C     0.35329   0.54186   0.25020   0.00000  Uiso   1.00
C297   C     0.62437   0.49894   0.24281   0.00000  Uiso   1.00
C298   C     0.37563   0.50106   0.25719   0.00000  Uiso   1.00
C299   C     0.52451   0.35687   0.27964   0.00000  Uiso   1.00
C300   C     0.47549   0.64313   0.22036   0.00000  Uiso   1.00
C301   C     0.47524   0.35786   0.22060   0.00000  Uiso   1.00
C302   C     0.52476   0.64214   0.27939   0.00000  Uiso   1.00
C303   C     0.49976   0.50005   0.16372   0.00000  Uiso   1.00
C304   C     0.50024   0.49995   0.33628   0.00000  Uiso   1.00
C305   C     0.53836   0.49937   0.40738   0.00000  Uiso   1.00
C306   C     0.46164   0.50063   0.09262   0.00000  Uiso   1.00
C307   C     0.50046   0.49983   0.38391   0.00000  Uiso   1.00
C308   C     0.49953   0.50017   0.11609   0.00000  Uiso   1.00
C309   C     0.46249   0.50024   0.40550   0.00000  Uiso   1.00
C310   C     0.53751   0.49976   0.09450   0.00000  Uiso   1.00
C311   C     0.46224   0.50031   0.45207   0.00000  Uiso   1.00
C312   C     0.53775   0.49969   0.04793   0.00000  Uiso   1.00
C313   C     0.50016   0.49995   0.47653   0.00000  Uiso   1.00
C314   C     0.49984   0.50005   0.02347   0.00000  Uiso   1.00
C315   C     0.53837   0.49946   0.45417   0.00000  Uiso   1.00
C316   C     0.46163   0.50054   0.04583   0.00000  Uiso   1.00
C317   C     0.42474   0.50078   0.47462   0.00000  Uiso   1.00
C318   C     0.57525   0.49922   0.02538   0.00000  Uiso   1.00
H319   H     0.39534   0.50106   0.45669   0.00000  Uiso   1.00
H320   H     0.60466   0.49894   0.04331   0.00000  Uiso   1.00
H321   H     0.39468   0.50126   0.03679   0.00000  Uiso   1.00
H322   H     0.60532   0.49874   0.46321   0.00000  Uiso   1.00
N323   N     0.50000   0.61907   0.25000   0.00000  Uiso   1.00
N324   N     0.50000   0.38093   0.25000   0.00000  Uiso   1.00
O325   O     0.43892   0.53821   0.24999   0.00000  Uiso   1.00
O326   O     0.56108   0.46179   0.25000   0.00000  Uiso   1.00
O327   O     0.56108   0.53821   0.25000   0.00000  Uiso   1.00
O328   O     0.43892   0.46179   0.24999   0.00000  Uiso   1.00
O329   O     0.49999   0.53823   0.18392   0.00000  Uiso   1.00
O330   O     0.50001   0.46177   0.31607   0.00000  Uiso   1.00
O331   O     0.50001   0.53823   0.31607   0.00000  Uiso   1.00
O332   O     0.49999   0.46177   0.18392   0.00000  Uiso   1.00
Zn333  Zn    0.50000   0.55104   0.25000   0.00000  Uiso   1.00
Zn334  Zn    0.50000   0.44896   0.25000   0.00000  Uiso   1.00
C335   C     0.57686   0.49875   0.38310   0.00000  Uiso   1.00
N336   N     0.60748   0.49823   0.36377   0.00000  Uiso   1.00
C337   C     0.42314   0.50125   0.11690   0.00000  Uiso   1.00
N338   N     0.39252   0.50177   0.13623   0.00000  Uiso   1.00
N339   N     0.42415   0.50058   0.38027   0.00000  Uiso   1.00
H340   H     0.42332   0.47189   0.36000   0.00000  Uiso   1.00
H341   H     0.42297   0.52920   0.35972   0.00000  Uiso   1.00
N342   N     0.57585   0.49942   0.11973   0.00000  Uiso   1.00
H343   H     0.57703   0.47080   0.14028   0.00000  Uiso   1.00
H344   H     0.57667   0.52811   0.14000   0.00000  Uiso   1.00
C345   C     0.37516   0.41927   0.27917   0.00000  Uiso   1.00
N346   N     0.39121   0.38720   0.29386   0.00000  Uiso   1.00
C347   C     0.62484   0.58073   0.22083   0.00000  Uiso   1.00
N348   N     0.60879   0.61280   0.20614   0.00000  Uiso   1.00
C349   C     0.62876   0.41413   0.24199   0.00000  Uiso   1.00
N350   N     0.61494   0.37897   0.23532   0.00000  Uiso   1.00
C351   C     0.37124   0.58587   0.25801   0.00000  Uiso   1.00
N352   N     0.38506   0.62103   0.26468   0.00000  Uiso   1.00
C353   C     0.55018   0.38061   0.31147   0.00000  Uiso   1.00
N354   N     0.57098   0.39920   0.33715   0.00000  Uiso   1.00
C355   C     0.44982   0.61939   0.18853   0.00000  Uiso   1.00
N356   N     0.42902   0.60080   0.16285   0.00000  Uiso   1.00
C357   C     0.44816   0.38265   0.19018   0.00000  Uiso   1.00
N358   N     0.42619   0.40212   0.16568   0.00000  Uiso   1.00
C359   C     0.55184   0.61735   0.30982   0.00000  Uiso   1.00
N360   N     0.57381   0.59788   0.33432   0.00000  Uiso   1.00
C361   C     0.75346   0.50038   0.25368   0.00000  Uiso   1.00
C362   C     0.91320   0.49962   0.24632   0.00000  Uiso   1.00
C363   C     0.75774   0.50090   0.02087   0.00000  Uiso   1.00
C364   C     0.90892   0.49910   0.47913   0.00000  Uiso   1.00
C365   C     0.68826   0.45975   0.26098   0.00000  Uiso   1.00
C366   C     0.97841   0.54025   0.23902   0.00000  Uiso   1.00
C367   C     0.98004   0.45814   0.24980   0.00000  Uiso   1.00
C368   C     0.68662   0.54186   0.25020   0.00000  Uiso   1.00
C369   C     0.95771   0.49894   0.24281   0.00000  Uiso   1.00
C370   C     0.70896   0.50106   0.25719   0.00000  Uiso   1.00
C371   C     0.85784   0.35687   0.27964   0.00000  Uiso   1.00
C372   C     0.80883   0.64313   0.22036   0.00000  Uiso   1.00
C373   C     0.80857   0.35786   0.22060   0.00000  Uiso   1.00
C374   C     0.85810   0.64214   0.27939   0.00000  Uiso   1.00
C375   C     0.83309   0.50005   0.16372   0.00000  Uiso   1.00
C376   C     0.83357   0.49995   0.33628   0.00000  Uiso   1.00
C377   C     0.87169   0.49937   0.40738   0.00000  Uiso   1.00
C378   C     0.79497   0.50063   0.09262   0.00000  Uiso   1.00
C379   C     0.83380   0.49983   0.38391   0.00000  Uiso   1.00
C380   C     0.83287   0.50017   0.11609   0.00000  Uiso   1.00
C381   C     0.79583   0.50024   0.40550   0.00000  Uiso   1.00
C382   C     0.87084   0.49976   0.09450   0.00000  Uiso   1.00
C383   C     0.79558   0.50031   0.45207   0.00000  Uiso   1.00
C384   C     0.87109   0.49969   0.04793   0.00000  Uiso   1.00
C385   C     0.83349   0.49995   0.47653   0.00000  Uiso   1.00
C386   C     0.83317   0.50005   0.02347   0.00000  Uiso   1.00
C387   C     0.87170   0.49946   0.45417   0.00000  Uiso   1.00
C388   C     0.79497   0.50054   0.04583   0.00000  Uiso   1.00
C389   C     0.75808   0.50078   0.47462   0.00000  Uiso   1.00
C390   C     0.90859   0.49922   0.02538   0.00000  Uiso   1.00
H391   H     0.72867   0.50106   0.45669   0.00000  Uiso   1.00
H392   H     0.93800   0.49894   0.04331   0.00000  Uiso   1.00
H393   H     0.72801   0.50126   0.03679   0.00000  Uiso   1.00
H394   H     0.93865   0.49874   0.46321   0.00000  Uiso   1.00
N395   N     0.83333   0.61907   0.25000   0.00000  Uiso   1.00
N396   N     0.83333   0.38093   0.25000   0.00000  Uiso   1.00
O397   O     0.77226   0.53821   0.24999   0.00000  Uiso   1.00
O398   O     0.89441   0.46179   0.25000   0.00000  Uiso   1.00
O399   O     0.89441   0.53821   0.25000   0.00000  Uiso   1.00
O400   O     0.77226   0.46179   0.24999   0.00000  Uiso   1.00
O401   O     0.83333   0.53823   0.18392   0.00000  Uiso   1.00
O402   O     0.83334   0.46177   0.31607   0.00000  Uiso   1.00
O403   O     0.83334   0.53823   0.31607   0.00000  Uiso   1.00
O404   O     0.83333   0.46177   0.18392   0.00000  Uiso   1.00
Zn405  Zn    0.83333   0.55104   0.25000   0.00000  Uiso   1.00
Zn406  Zn    0.83333   0.44896   0.25000   0.00000  Uiso   1.00
C407   C     0.91019   0.49875   0.38310   0.00000  Uiso   1.00
N408   N     0.94081   0.49823   0.36377   0.00000  Uiso   1.00
C409   C     0.75648   0.50125   0.11690   0.00000  Uiso   1.00
N410   N     0.72586   0.50177   0.13623   0.00000  Uiso   1.00
N411   N     0.75749   0.50058   0.38027   0.00000  Uiso   1.00
H412   H     0.75666   0.47189   0.36000   0.00000  Uiso   1.00
H413   H     0.75630   0.52920   0.35972   0.00000  Uiso   1.00
N414   N     0.90918   0.49942   0.11973   0.00000  Uiso   1.00
H415   H     0.91036   0.47080   0.14028   0.00000  Uiso   1.00
H416   H     0.91001   0.52811   0.14000   0.00000  Uiso   1.00
C417   C     0.70850   0.41927   0.27917   0.00000  Uiso   1.00
N418   N     0.72454   0.38720   0.29386   0.00000  Uiso   1.00
C419   C     0.95817   0.58073   0.22083   0.00000  Uiso   1.00
N420   N     0.94212   0.61280   0.20614   0.00000  Uiso   1.00
C421   C     0.96210   0.41413   0.24199   0.00000  Uiso   1.00
N422   N     0.94827   0.37897   0.23532   0.00000  Uiso   1.00
C423   C     0.70457   0.58587   0.25801   0.00000  Uiso   1.00
N424   N     0.71840   0.62103   0.26468   0.00000  Uiso   1.00
C425   C     0.88351   0.38061   0.31147   0.00000  Uiso   1.00
N426   N     0.90431   0.39920   0.33715   0.00000  Uiso   1.00
C427   C     0.78316   0.61939   0.18853   0.00000  Uiso   1.00
N428   N     0.76236   0.60080   0.16285   0.00000  Uiso   1.00
C429   C     0.78149   0.38265   0.19018   0.00000  Uiso   1.00
N430   N     0.75953   0.40212   0.16568   0.00000  Uiso   1.00
C431   C     0.88517   0.61735   0.30982   0.00000  Uiso   1.00
N432   N     0.90714   0.59788   0.33432   0.00000  Uiso   1.00
C433   C     0.08680   0.83371   0.25368   0.00000  Uiso   1.00
C434   C     0.24654   0.83295   0.24632   0.00000  Uiso   1.00
C435   C     0.09108   0.83423   0.02087   0.00000  Uiso   1.00
C436   C     0.24226   0.83243   0.47913   0.00000  Uiso   1.00
C437   C     0.02159   0.79308   0.26098   0.00000  Uiso   1.00
C438   C     0.31174   0.87359   0.23902   0.00000  Uiso   1.00
C439   C     0.31338   0.79147   0.24980   0.00000  Uiso   1.00
C440   C     0.01996   0.87520   0.25020   0.00000  Uiso   1.00
C441   C     0.29104   0.83227   0.24281   0.00000  Uiso   1.00
C442   C     0.04229   0.83439   0.25719   0.00000  Uiso   1.00
C443   C     0.19117   0.69021   0.27964   0.00000  Uiso   1.00
C444   C     0.14216   0.97646   0.22036   0.00000  Uiso   1.00
C445   C     0.14190   0.69119   0.22060   0.00000  Uiso   1.00
C446   C     0.19143   0.97547   0.27939   0.00000  Uiso   1.00
C447   C     0.16643   0.83339   0.16372   0.00000  Uiso   1.00
C448   C     0.16690   0.83328   0.33628   0.00000  Uiso   1.00
C449   C     0.20502   0.83270   0.40738   0.00000  Uiso   1.00
C450   C     0.12831   0.83396   0.09262   0.00000  Uiso   1.00
C451   C     0.16713   0.83316   0.38391   0.00000  Uiso   1.00
C452   C     0.16620   0.83351   0.11609   0.00000  Uiso   1.00
C453   C     0.12916   0.83357   0.40550   0.00000  Uiso   1.00
C454   C     0.20417   0.83309   0.09450   0.00000  Uiso   1.00
C455   C     0.12891   0.83365   0.45207   0.00000  Uiso   1.00
C456   C     0.20442   0.83302   0.04793   0.00000  Uiso   1.00
C457   C     0.16683   0.83328   0.47653   0.00000  Uiso   1.00
C458   C     0.16651   0.83339   0.02347   0.00000  Uiso   1.00
C459   C     0.20503   0.83279   0.45417   0.00000  Uiso   1.00
C460   C     0.12830   0.83387   0.04583   0.00000  Uiso   1.00
C461   C     0.09141   0.83411   0.47462   0.00000  Uiso   1.00
C462   C     0.24192   0.83255   0.02538   0.00000  Uiso   1.00
H463   H     0.06200   0.83440   0.45669   0.00000  Uiso   1.00
H464   H     0.27133   0.83227   0.04331   0.00000  Uiso   1.00
H465   H     0.06135   0.83459   0.03679   0.00000  Uiso   1.00
H466   H     0.27199   0.83207   0.46321   0.00000  Uiso   1.00
N467   N     0.16667   0.95240   0.25000   0.00000  Uiso   1.00
N468   N     0.16667   0.71427   0.25000   0.00000  Uiso   1.00
O469   O     0.10559   0.87154   0.24999   0.00000  Uiso   1.00
O470   O     0.22774   0.79513   0.25000   0.00000  Uiso   1.00
O471   O     0.22774   0.87154   0.25000   0.00000  Uiso   1.00
O472   O     0.10559   0.79513   0.24999   0.00000  Uiso   1.00
O473   O     0.16666   0.87156   0.18392   0.00000  Uiso   1.00
O474   O     0.16667   0.79511   0.31607   0.00000  Uiso   1.00
O475   O     0.16667   0.87156   0.31607   0.00000  Uiso   1.00
O476   O     0.16666   0.79511   0.18392   0.00000  Uiso   1.00
Zn477  Zn    0.16667   0.88437   0.25000   0.00000  Uiso   1.00
Zn478  Zn    0.16667   0.78229   0.25000   0.00000  Uiso   1.00
C479   C     0.24352   0.83208   0.38310   0.00000  Uiso   1.00
N480   N     0.27414   0.83157   0.36377   0.00000  Uiso   1.00
C481   C     0.08981   0.83458   0.11690   0.00000  Uiso   1.00
N482   N     0.05919   0.83510   0.13623   0.00000  Uiso   1.00
N483   N     0.09082   0.83392   0.38027   0.00000  Uiso   1.00
H484   H     0.08999   0.80522   0.36000   0.00000  Uiso   1.00
H485   H     0.08964   0.86254   0.35972   0.00000  Uiso   1.00
N486   N     0.24251   0.83275   0.11973   0.00000  Uiso   1.00
H487   H     0.24370   0.80413   0.14028   0.00000  Uiso   1.00
H488   H     0.24334   0.86145   0.14000   0.00000  Uiso   1.00
C489   C     0.04183   0.75260   0.27917   0.00000  Uiso   1.00
N490   N     0.05788   0.72053   0.29386   0.00000  Uiso   1.00
C491   C     0.29150   0.91406   0.22083   0.00000  Uiso   1.00
N492   N     0.27546   0.94614   0.20614   0.00000  Uiso   1.00
C493   C     0.29543   0.74747   0.24199   0.00000  Uiso   1.00
N494   N     0.28160   0.71230   0.23532   0.00000  Uiso   1.00
C495   C     0.03790   0.91920   0.25801   0.00000  Uiso   1.00
N496   N     0.05173   0.95436   0.26468   0.00000  Uiso   1.00
C497   C     0.21684   0.71395   0.31147   0.00000  Uiso   1.00
N498   N     0.23764   0.73253   0.33715   0.00000  Uiso   1.00
C499   C     0.11649   0.95272   0.18853   0.00000  Uiso   1.00
N500   N     0.09569   0.93413   0.16285   0.00000  Uiso   1.00
C501   C     0.11483   0.71599   0.19018   0.00000  Uiso   1.00
N502   N     0.09286   0.73546   0.16568   0.00000  Uiso   1.00
C503   C     0.21851   0.95068   0.30982   0.00000  Uiso   1.00
N504   N     0.24047   0.93121   0.33432   0.00000  Uiso   1.00
C505   C     0.42013   0.83371   0.25368   0.00000  Uiso   1.00
C506   C     0.57987   0.83295   0.24632   0.00000  Uiso   1.00
C507   C     0.42441   0.83423   0.02087   0.00000  Uiso   1.00
C508   C     0.57559   0.83243   0.47913   0.00000  Uiso   1.00
C509   C     0.35493   0.79308   0.26098   0.00000  Uiso   1.00
C510   C     0.64507   0.87359   0.23902   0.00000  Uiso   1.00
C511   C     0.64671   0.79147   0.24980   0.00000  Uiso   1.00
C512   C     0.35329   0.87520   0.25020   0.00000  Uiso   1.00
C513   C     0.62437   0.83227   0.24281   0.00000  Uiso   1.00
C514   C     0.37563   0.83439   0.25719   0.00000  Uiso   1.00
C515   C     0.52451   0.69021   0.27964   0.00000  Uiso   1.00
C516   C     0.47549   0.97646   0.22036   0.00000  Uiso   1.00
C517   C     0.47524   0.69119   0.22060   0.00000  Uiso   1.00
C518   C     0.52476   0.97547   0.27939   0.00000  Uiso   1.00
C519   C     0.49976   0.83339   0.16372   0.00000  Uiso   1.00
C520   C     0.50024   0.83328   0.33628   0.00000  Uiso   1.00
C521   C     0.53836   0.83270   0.40738   0.00000  Uiso   1.00
C522   C     0.46164   0.83396   0.09262   0.00000  Uiso   1.00
C523   C     0.50046   0.83316   0.38391   0.00000  Uiso   1.00
C524   C     0.49953   0.83351   0.11609   0.00000  Uiso   1.00
C525   C     0.46249   0.83357   0.40550   0.00000  Uiso   1.00
C526   C     0.53751   0.83309   0.09450   0.00000  Uiso   1.00
C527   C     0.46224   0.83365   0.45207   0.00000  Uiso   1.00
C528   C     0.53775   0.83302   0.04793   0.00000  Uiso   1.00
C529   C     0.50016   0.83328   0.47653   0.00000  Uiso   1.00
C530   C     0.49984   0.83339   0.02347   0.00000  Uiso   1.00
C531   C     0.53837   0.83279   0.45417   0.00000  Uiso   1.00
C532   C     0.46163   0.83387   0.04583   0.00000  Uiso   1.00
C533   C     0.42474   0.83411   0.47462   0.00000  Uiso   1.00
C534   C     0.57525   0.83255   0.02538   0.00000  Uiso   1.00
H535   H     0.39534   0.83440   0.45669   0.00000  Uiso   1.00
H536   H     0.60466   0.83227   0.04331   0.00000  Uiso   1.00
H537   H     0.39468   0.83459   0.03679   0.00000  Uiso   1.00
H538   H     0.60532   0.83207   0.46321   0.00000  Uiso   1.00
N539   N     0.50000   0.95240   0.25000   0.00000  Uiso   1.00
N540   N     0.50000   0.71427   0.25000   0.00000  Uiso   1.00
O541   O     0.43892   0.87154   0.24999   0.00000  Uiso   1.00
O542   O     0.56108   0.79513   0.25000   0.00000  Uiso   1.00
O543   O     0.56108   0.87154   0.25000   0.00000  Uiso   1.00
O544   O     0.43892   0.79513   0.24999   0.00000  Uiso   1.00
O545   O     0.49999   0.87156   0.18392   0.00000  Uiso   1.00
O546   O     0.50001   0.79511   0.31607   0.00000  Uiso   1.00
O547   O     0.50001   0.87156   0.31607   0.00000  Uiso   1.00
O548   O     0.49999   0.79511   0.18392   0.00000  Uiso   1.00
Zn549  Zn    0.50000   0.88437   0.25000   0.00000  Uiso   1.00
Zn550  Zn    0.50000   0.78229   0.25000   0.00000  Uiso   1.00
C551   C     0.57686   0.83208   0.38310   0.00000  Uiso   1.00
N552   N     0.60748   0.83157   0.36377   0.00000  Uiso   1.00
C553   C     0.42314   0.83458   0.11690   0.00000  Uiso   1.00
N554   N     0.39252   0.83510   0.13623   0.00000  Uiso   1.00
N555   N     0.42415   0.83392   0.38027   0.00000  Uiso   1.00
H556   H     0.42332   0.80522   0.36000   0.00000  Uiso   1.00
H557   H     0.42297   0.86254   0.35972   0.00000  Uiso   1.00
N558   N     0.57585   0.83275   0.11973   0.00000  Uiso   1.00
H559   H     0.57703   0.80413   0.14028   0.00000  Uiso   1.00
H560   H     0.57667   0.86145   0.14000   0.00000  Uiso   1.00
C561   C     0.37516   0.75260   0.27917   0.00000  Uiso   1.00
N562   N     0.39121   0.72053   0.29386   0.00000  Uiso   1.00
C563   C     0.62484   0.91406   0.22083   0.00000  Uiso   1.00
N564   N     0.60879   0.94614   0.20614   0.00000  Uiso   1.00
C565   C     0.62876   0.74747   0.24199   0.00000  Uiso   1.00
N566   N     0.61494   0.71230   0.23532   0.00000  Uiso   1.00
C567   C     0.37124   0.91920   0.25801   0.00000  Uiso   1.00
N568   N     0.38506   0.95436   0.26468   0.00000  Uiso   1.00
C569   C     0.55018   0.71395   0.31147   0.00000  Uiso   1.00
N570   N     0.57098   0.73253   0.33715   0.00000  Uiso   1.00
C571   C     0.44982   0.95272   0.18853   0.00000  Uiso   1.00
N572   N     0.42902   0.93413   0.16285   0.00000  Uiso   1.00
C573   C     0.44816   0.71599   0.19018   0.00000  Uiso   1.00
N574   N     0.42619   0.73546   0.16568   0.00000  Uiso   1.00
C575   C     0.55184   0.95068   0.30982   0.00000  Uiso   1.00
N576   N     0.57381   0.93121   0.33432   0.00000  Uiso   1.00
C577   C     0.75346   0.83371   0.25368   0.00000  Uiso   1.00
C578   C     0.91320   0.83295   0.24632   0.00000  Uiso   1.00
C579   C     0.75774   0.83423   0.02087   0.00000  Uiso   1.00
C580   C     0.90892   0.83243   0.47913   0.00000  Uiso   1.00
C581   C     0.68826   0.79308   0.26098   0.00000  Uiso   1.00
C582   C     0.97841   0.87359   0.23902   0.00000  Uiso   1.00
C583   C     0.98004   0.79147   0.24980   0.00000  Uiso   1.00
C584   C     0.68662   0.87520   0.25020   0.00000  Uiso   1.00
C585   C     0.95771   0.83227   0.24281   0.00000  Uiso   1.00
C586   C     0.70896   0.83439   0.25719   0.00000  Uiso   1.00
C587   C     0.85784   0.69021   0.27964   0.00000  Uiso   1.00
C588   C     0.80883   0.97646   0.22036   0.00000  Uiso   1.00
C589   C     0.80857   0.69119   0.22060   0.00000  Uiso   1.00
C590   C     0.85810   0.97547   0.27939   0.00000  Uiso   1.00
C591   C     0.83309   0.83339   0.16372   0.00000  Uiso   1.00
C592   C     0.83357   0.83328   0.33628   0.00000  Uiso   1.00
C593   C     0.87169   0.83270   0.40738   0.00000  Uiso   1.00
C594   C     0.79497   0.83396   0.09262   0.00000  Uiso   1.00
C595   C     0.83380   0.83316   0.38391   0.00000  Uiso   1.00
C596   C     0.83287   0.83351   0.11609   0.00000  Uiso   1.00
C597   C     0.79583   0.83357   0.40550   0.00000  Uiso   1.00
C598   C     0.87084   0.83309   0.09450   0.00000  Uiso   1.00
C599   C     0.79558   0.83365   0.45207   0.00000  Uiso   1.00
C600   C     0.87109   0.83302   0.04793   0.00000  Uiso   1.00
C601   C     0.83349   0.83328   0.47653   0.00000  Uiso   1.00
C602   C     0.83317   0.83339   0.02347   0.00000  Uiso   1.00
C603   C     0.87170   0.83279   0.45417   0.00000  Uiso   1.00
C604   C     0.79497   0.83387   0.04583   0.00000  Uiso   1.00
C605   C     0.75808   0.83411   0.47462   0.00000  Uiso   1.00
C606   C     0.90859   0.83255   0.02538   0.00000  Uiso   1.00
H607   H     0.72867   0.83440   0.45669   0.00000  Uiso   1.00
H608   H     0.93800   0.83227   0.04331   0.00000  Uiso   1.00
H609   H     0.72801   0.83459   0.03679   0.00000  Uiso   1.00
H610   H     0.93865   0.83207   0.46321   0.00000  Uiso   1.00
N611   N     0.83333   0.95240   0.25000   0.00000  Uiso   1.00
N612   N     0.83333   0.71427   0.25000   0.00000  Uiso   1.00
O613   O     0.77226   0.87154   0.24999   0.00000  Uiso   1.00
O614   O     0.89441   0.79513   0.25000   0.00000  Uiso   1.00
O615   O     0.89441   0.87154   0.25000   0.00000  Uiso   1.00
O616   O     0.77226   0.79513   0.24999   0.00000  Uiso   1.00
O617   O     0.83333   0.87156   0.18392   0.00000  Uiso   1.00
O618   O     0.83334   0.79511   0.31607   0.00000  Uiso   1.00
O619   O     0.83334   0.87156   0.31607   0.00000  Uiso   1.00
O620   O     0.83333   0.79511   0.18392   0.00000  Uiso   1.00
Zn621  Zn    0.83333   0.88437   0.25000   0.00000  Uiso   1.00
Zn622  Zn    0.83333   0.78229   0.25000   0.00000  Uiso   1.00
C623   C     0.91019   0.83208   0.38310   0.00000  Uiso   1.00
N624   N     0.94081   0.83157   0.36377   0.00000  Uiso   1.00
C625   C     0.75648   0.83458   0.11690   0.00000  Uiso   1.00
N626   N     0.72586   0.83510   0.13623   0.00000  Uiso   1.00
N627   N     0.75749   0.83392   0.38027   0.00000  Uiso   1.00
H628   H     0.75666   0.80522   0.36000   0.00000  Uiso   1.00
H629   H     0.75630   0.86254   0.35972   0.00000  Uiso   1.00
N630   N     0.90918   0.83275   0.11973   0.00000  Uiso   1.00
H631   H     0.91036   0.80413   0.14028   0.00000  Uiso   1.00
H632   H     0.91001   0.86145   0.14000   0.00000  Uiso   1.00
C633   C     0.70850   0.75260   0.27917   0.00000  Uiso   1.00
N634   N     0.72454   0.72053   0.29386   0.00000  Uiso   1.00
C635   C     0.95817   0.91406   0.22083   0.00000  Uiso   1.00
N636   N     0.94212   0.94614   0.20614   0.00000  Uiso   1.00
C637   C     0.96210   0.74747   0.24199   0.00000  Uiso   1.00
N638   N     0.94827   0.71230   0.23532   0.00000  Uiso   1.00
C639   C     0.70457   0.91920   0.25801   0.00000  Uiso   1.00
N640   N     0.71840   0.95436   0.26468   0.00000  Uiso   1.00
C641   C     0.88351   0.71395   0.31147   0.00000  Uiso   1.00
N642   N     0.90431   0.73253   0.33715   0.00000  Uiso   1.00
C643   C     0.78316   0.95272   0.18853   0.00000  Uiso   1.00
N644   N     0.76236   0.93413   0.16285   0.00000  Uiso   1.00
C645   C     0.78149   0.71599   0.19018   0.00000  Uiso   1.00
N646   N     0.75953   0.73546   0.16568   0.00000  Uiso   1.00
C647   C     0.88517   0.95068   0.30982   0.00000  Uiso   1.00
N648   N     0.90714   0.93121   0.33432   0.00000  Uiso   1.00
C649   C     0.08680   0.16705   0.75368   0.00000  Uiso   1.00
C650   C     0.24654   0.16629   0.74632   0.00000  Uiso   1.00
C651   C     0.09108   0.16757   0.52087   0.00000  Uiso   1.00
C652   C     0.24226   0.16577   0.97913   0.00000  Uiso   1.00
C653   C     0.02159   0.12641   0.76098   0.00000  Uiso   1.00
C654   C     0.31174   0.20692   0.73902   0.00000  Uiso   1.00
C655   C     0.31338   0.12480   0.74980   0.00000  Uiso   1.00
C656   C     0.01996   0.20853   0.75020   0.00000  Uiso   1.00
C657   C     0.29104   0.16561   0.74281   0.00000  Uiso   1.00
C658   C     0.04229   0.16772   0.75719   0.00000  Uiso   1.00
C659   C     0.19117   0.02354   0.77964   0.00000  Uiso   1.00
C660   C     0.14216   0.30979   0.72036   0.00000  Uiso   1.00
C661   C     0.14190   0.02453   0.72060   0.00000  Uiso   1.00
C662   C     0.19143   0.30881   0.77939   0.00000  Uiso   1.00
C663   C     0.16643   0.16672   0.66372   0.00000  Uiso   1.00
C664   C     0.16690   0.16661   0.83628   0.00000  Uiso   1.00
C665   C     0.20502   0.16604   0.90738   0.00000  Uiso   1.00
C666   C     0.12831   0.16730   0.59262   0.00000  Uiso   1.00
C667   C     0.16713   0.16649   0.88391   0.00000  Uiso   1.00
C668   C     0.16620   0.16684   0.61609   0.00000  Uiso   1.00
C669   C     0.12916   0.16691   0.90550   0.00000  Uiso   1.00
C670   C     0.20417   0.16643   0.59450   0.00000  Uiso   1.00
C671   C     0.12891   0.16698   0.95207   0.00000  Uiso   1.00
C672   C     0.20442   0.16635   0.54793   0.00000  Uiso   1.00
C673   C     0.16683   0.16661   0.97653   0.00000  Uiso   1.00
C674   C     0.16651   0.16672   0.52347   0.00000  Uiso   1.00
C675   C     0.20503   0.16613   0.95417   0.00000  Uiso   1.00
C676   C     0.12830   0.16721   0.54583   0.00000  Uiso   1.00
C677   C     0.09141   0.16745   0.97462   0.00000  Uiso   1.00
C678   C     0.24192   0.16589   0.52538   0.00000  Uiso   1.00
H679   H     0.06200   0.16773   0.95669   0.00000  Uiso   1.00
H680   H     0.27133   0.16560   0.54331   0.00000  Uiso   1.00
H681   H     0.06135   0.16793   0.53679   0.00000  Uiso   1.00
H682   H     0.27199   0.16541   0.96321   0.00000  Uiso   1.00
N683   N     0.16667   0.28573   0.75000   0.00000  Uiso   1.00
N684   N     0.16667   0.04760   0.75000   0.00000  Uiso   1.00
O685   O     0.10559   0.20487   0.74999   0.00000  Uiso   1.00
O686   O     0.22774   0.12846   0.75000   0.00000  Uiso   1.00
O687   O     0.22774   0.20487   0.75000   0.00000  Uiso   1.00
O688   O     0.10559   0.12846   0.74999   0.00000  Uiso   1.00
O689   O     0.16666   0.20489   0.68392   0.00000  Uiso   1.00
O690   O     0.16667   0.12844   0.81607   0.00000  Uiso   1.00
O691   O     0.16667   0.20489   0.81607   0.00000  Uiso   1.00
O692   O     0.16666   0.12844   0.68392   0.00000  Uiso   1.00
Zn693  Zn    0.16667   0.21771   0.75000   0.00000  Uiso   1.00
Zn694  Zn    0.16667   0.11563   0.75000   0.00000  Uiso   1.00
C695   C     0.24352   0.16542   0.88310   0.00000  Uiso   1.00
N696   N     0.27414   0.16490   0.86377   0.00000  Uiso   1.00
C697   C     0.08981   0.16792   0.61690   0.00000  Uiso   1.00
N698   N     0.05919   0.16843   0.63623   0.00000  Uiso   1.00
N699   N     0.09082   0.16725   0.88027   0.00000  Uiso   1.00
H700   H     0.08999   0.13855   0.86000   0.00000  Uiso   1.00
H701   H     0.08964   0.19587   0.85972   0.00000  Uiso   1.00
N702   N     0.24251   0.16608   0.61973   0.00000  Uiso   1.00
H703   H     0.24370   0.13746   0.64028   0.00000  Uiso   1.00
H704   H     0.24334   0.19478   0.64000   0.00000  Uiso   1.00
C705   C     0.04183   0.08594   0.77917   0.00000  Uiso   1.00
N706   N     0.05788   0.05386   0.79386   0.00000  Uiso   1.00
C707   C     0.29150   0.24740   0.72083   0.00000  Uiso   1.00
N708   N     0.27546   0.27947   0.70614   0.00000  Uiso   1.00
C709   C     0.29543   0.08080   0.74199   0.00000  Uiso   1.00
N710   N     0.28160   0.04564   0.73532   0.00000  Uiso   1.00
C711   C     0.03790   0.25253   0.75801   0.00000  Uiso   1.00
N712   N     0.05173   0.28770   0.76468   0.00000  Uiso   1.00
C713   C     0.21684   0.04728   0.81147   0.00000  Uiso   1.00
N714   N     0.23764   0.06587   0.83715   0.00000  Uiso   1.00
C715   C     0.11649   0.28605   0.68853   0.00000  Uiso   1.00
N716   N     0.09569   0.26747   0.66285   0.00000  Uiso   1.00
C717   C     0.11483   0.04932   0.69018   0.00000  Uiso   1.00
N718   N     0.09286   0.06879   0.66568   0.00000  Uiso   1.00
C719   C     0.21851   0.28401   0.80982   0.00000  Uiso   1.00
N720   N     0.24047   0.26454   0.83432   0.00000  Uiso   1.00
C721   C     0.42013   0.16705   0.75368   0.00000  Uiso   1.00
C722   C     0.57987   0.16629   0.74632   0.00000  Uiso   1.00
C723   C     0.42441   0.16757   0.52087   0.00000  Uiso   1.00
C724   C     0.57559   0.16577   0.97913   0.00000  Uiso   1.00
C725   C     0.35493   0.12641   0.76098   0.00000  Uiso   1.00
C726   C     0.64507   0.20692   0.73902   0.00000  Uiso   1.00
C727   C     0.64671   0.12480   0.74980   0.00000  Uiso   1.00
C728   C     0.35329   0.20853   0.75020   0.00000  Uiso   1.00
C729   C     0.62437   0.16561   0.74281   0.00000  Uiso   1.00
C730   C     0.37563   0.16772   0.75719   0.00000  Uiso   1.00
C731   C     0.52451   0.02354   0.77964   0.00000  Uiso   1.00
C732   C     0.47549   0.30979   0.72036   0.00000  Uiso   1.00
C733   C     0.47524   0.02453   0.72060   0.00000  Uiso   1.00
C734   C     0.52476   0.30881   0.77939   0.00000  Uiso   1.00
C735   C     0.49976   0.16672   0.66372   0.00000  Uiso   1.00
C736   C     0.50024   0.16661   0.83628   0.00000  Uiso   1.00
C737   C     0.53836   0.16604   0.90738   0.00000  Uiso   1.00
C738   C     0.46164   0.16730   0.59262   0.00000  Uiso   1.00
C739   C     0.50046   0.16649   0.88391   0.00000  Uiso   1.00
C740   C     0.49953   0.16684   0.61609   0.00000  Uiso   1.00
C741   C     0.46249   0.16691   0.90550   0.00000  Uiso   1.00
C742   C     0.53751   0.16643   0.59450   0.00000  Uiso   1.00
C743   C     0.46224   0.16698   0.95207   0.00000  Uiso   1.00
C744   C     0.53775   0.16635   0.54793   0.00000  Uiso   1.00
C745   C     0.50016   0.16661   0.97653   0.00000  Uiso   1.00
C746   C     0.49984   0.16672   0.52347   0.00000  Uiso   1.00
C747   C     0.53837   0.16613   0.95417   0.00000  Uiso   1.00
C748   C     0.46163   0.16721   0.54583   0.00000  Uiso   1.00
C749   C     0.42474   0.16745   0.97462   0.00000  Uiso   1.00
C750   C     0.57525   0.16589   0.52538   0.00000  Uiso   1.00
H751   H     0.39534   0.16773   0.95669   0.00000  Uiso   1.00
H752   H     0.60466   0.16560   0.54331   0.00000  Uiso   1.00
H753   H     0.39468   0.16793   0.53679   0.00000  Uiso   1.00
H754   H     0.60532   0.16541   0.96321   0.00000  Uiso   1.00
N755   N     0.50000   0.28573   0.75000   0.00000  Uiso   1.00
N756   N     0.50000   0.04760   0.75000   0.00000  Uiso   1.00
O757   O     0.43892   0.20487   0.74999   0.00000  Uiso   1.00
O758   O     0.56108   0.12846   0.75000   0.00000  Uiso   1.00
O759   O     0.56108   0.20487   0.75000   0.00000  Uiso   1.00
O760   O     0.43892   0.12846   0.74999   0.00000  Uiso   1.00
O761   O     0.49999   0.20489   0.68392   0.00000  Uiso   1.00
O762   O     0.50001   0.12844   0.81607   0.00000  Uiso   1.00
O763   O     0.50001   0.20489   0.81607   0.00000  Uiso   1.00
O764   O     0.49999   0.12844   0.68392   0.00000  Uiso   1.00
Zn765  Zn    0.50000   0.21771   0.75000   0.00000  Uiso   1.00
Zn766  Zn    0.50000   0.11563   0.75000   0.00000  Uiso   1.00
C767   C     0.57686   0.16542   0.88310   0.00000  Uiso   1.00
N768   N     0.60748   0.16490   0.86377   0.00000  Uiso   1.00
C769   C     0.42314   0.16792   0.61690   0.00000  Uiso   1.00
N770   N     0.39252   0.16843   0.63623   0.00000  Uiso   1.00
N771   N     0.42415   0.16725   0.88027   0.00000  Uiso   1.00
H772   H     0.42332   0.13855   0.86000   0.00000  Uiso   1.00
H773   H     0.42297   0.19587   0.85972   0.00000  Uiso   1.00
N774   N     0.57585   0.16608   0.61973   0.00000  Uiso   1.00
H775   H     0.57703   0.13746   0.64028   0.00000  Uiso   1.00
H776   H     0.57667   0.19478   0.64000   0.00000  Uiso   1.00
C777   C     0.37516   0.08594   0.77917   0.00000  Uiso   1.00
N778   N     0.39121   0.05386   0.79386   0.00000  Uiso   1.00
C779   C     0.62484   0.24740   0.72083   0.00000  Uiso   1.00
N780   N     0.60879   0.27947   0.70614   0.00000  Uiso   1.00
C781   C     0.62876   0.08080   0.74199   0.00000  Uiso   1.00
N782   N     0.61494   0.04564   0.73532   0.00000  Uiso   1.00
C783   C     0.37124   0.25253   0.75801   0.00000  Uiso   1.00
N784   N     0.38506   0.28770   0.76468   0.00000  Uiso   1.00
C785   C     0.55018   0.04728   0.81147   0.00000  Uiso   1.00
N786   N     0.57098   0.06587   0.83715   0.00000  Uiso   1.00
C787   C     0.44982   0.28605   0.68853   0.00000  Uiso   1.00
N788   N     0.42902   0.26747   0.66285   0.00000  Uiso   1.00
C789   C     0.44816   0.04932   0.69018   0.00000  Uiso   1.00
N790   N     0.42619   0.06879   0.66568   0.00000  Uiso   1.00
C791   C     0.55184   0.28401   0.80982   0.00000  Uiso   1.00
N792   N     0.57381   0.26454   0.83432   0.00000  Uiso   1.00
C793   C     0.75346   0.16705   0.75368   0.00000  Uiso   1.00
C794   C     0.91320   0.16629   0.74632   0.00000  Uiso   1.00
C795   C     0.75774   0.16757   0.52087   0.00000  Uiso   1.00
C796   C     0.90892   0.16577   0.97913   0.00000  Uiso   1.00
C797   C     0.68826   0.12641   0.76098   0.00000  Uiso   1.00
C798   C     0.97841   0.20692   0.73902   0.00000  Uiso   1.00
C799   C     0.98004   0.12480   0.74980   0.00000  Uiso   1.00
C800   C     0.68662   0.20853   0.75020   0.00000  Uiso   1.00
C801   C     0.95771   0.16561   0.74281   0.00000  Uiso   1.00
C802   C     0.70896   0.16772   0.75719   0.00000  Uiso   1.00
C803   C     0.85784   0.02354   0.77964   0.00000  Uiso   1.00
C804   C     0.80883   0.30979   0.72036   0.00000  Uiso   1.00
C805   C     0.80857   0.02453   0.72060   0.00000  Uiso   1.00
C806   C     0.85810   0.30881   0.77939   0.00000  Uiso   1.00
C807   C     0.83309   0.16672   0.66372   0.00000  Uiso   1.00
C808   C     0.83357   0.16661   0.83628   0.00000  Uiso   1.00
C809   C     0.87169   0.16604   0.90738   0.00000  Uiso   1.00
C810   C     0.79497   0.16730   0.59262   0.00000  Uiso   1.00
C811   C     0.83380   0.16649   0.88391   0.00000  Uiso   1.00
C812   C     0.83287   0.16684   0.61609   0.00000  Uiso   1.00
C813   C     0.79583   0.16691   0.90550   0.00000  Uiso   1.00
C814   C     0.87084   0.16643   0.59450   0.00000  Uiso   1.00
C815   C     0.79558   0.16698   0.95207   0.00000  Uiso   1.00
C816   C     0.87109   0.16635   0.54793   0.00000  Uiso   1.00
C817   C     0.83349   0.16661   0.97653   0.00000  Uiso   1.00
C818   C     0.83317   0.16672   0.52347   0.00000  Uiso   1.00
C819   C     0.87170   0.16613   0.95417   0.00000  Uiso   1.00
C820   C     0.79497   0.16721   0.54583   0.00000  Uiso   1.00
C821   C     0.75808   0.16745   0.97462   0.00000  Uiso   1.00
C822   C     0.90859   0.16589   0.52538   0.00000  Uiso   1.00
H823   H     0.72867   0.16773   0.95669   0.00000  Uiso   1.00
H824   H     0.93800   0.16560   0.54331   0.00000  Uiso   1.00
H825   H     0.72801   0.16793   0.53679   0.00000  Uiso   1.00
H826   H     0.93865   0.16541   0.96321   0.00000  Uiso   1.00
N827   N     0.83333   0.28573   0.75000   0.00000  Uiso   1.00
N828   N     0.83333   0.04760   0.75000   0.00000  Uiso   1.00
O829   O     0.77226   0.20487   0.74999   0.00000  Uiso   1.00
O830   O     0.89441   0.12846   0.75000   0.00000  Uiso   1.00
O831   O     0.89441   0.20487   0.75000   0.00000  Uiso   1.00
O832   O     0.77226   0.12846   0.74999   0.00000  Uiso   1.00
O833   O     0.83333   0.20489   0.68392   0.00000  Uiso   1.00
O834   O     0.83334   0.12844   0.81607   0.00000  Uiso   1.00
O835   O     0.83334   0.20489   0.81607   0.00000  Uiso   1.00
O836   O     0.83333   0.12844   0.68392   0.00000  Uiso   1.00
Zn837  Zn    0.83333   0.21771   0.75000   0.00000  Uiso   1.00
Zn838  Zn    0.83333   0.11563   0.75000   0.00000  Uiso   1.00
C839   C     0.91019   0.16542   0.88310   0.00000  Uiso   1.00
N840   N     0.94081   0.16490   0.86377   0.00000  Uiso   1.00
C841   C     0.75648   0.16792   0.61690   0.00000  Uiso   1.00
N842   N     0.72586   0.16843   0.63623   0.00000  Uiso   1.00
N843   N     0.75749   0.16725   0.88027   0.00000  Uiso   1.00
H844   H     0.75666   0.13855   0.86000   0.00000  Uiso   1.00
H845   H     0.75630   0.19587   0.85972   0.00000  Uiso   1.00
N846   N     0.90918   0.16608   0.61973   0.00000  Uiso   1.00
H847   H     0.91036   0.13746   0.64028   0.00000  Uiso   1.00
H848   H     0.91001   0.19478   0.64000   0.00000  Uiso   1.00
C849   C     0.70850   0.08594   0.77917   0.00000  Uiso   1.00
N850   N     0.72454   0.05386   0.79386   0.00000  Uiso   1.00
C851   C     0.95817   0.24740   0.72083   0.00000  Uiso   1.00
N852   N     0.94212   0.27947   0.70614   0.00000  Uiso   1.00
C853   C     0.96210   0.08080   0.74199   0.00000  Uiso   1.00
N854   N     0.94827   0.04564   0.73532   0.00000  Uiso   1.00
C855   C     0.70457   0.25253   0.75801   0.00000  Uiso   1.00
N856   N     0.71840   0.28770   0.76468   0.00000  Uiso   1.00
C857   C     0.88351   0.04728   0.81147   0.00000  Uiso   1.00
N858   N     0.90431   0.06587   0.83715   0.00000  Uiso   1.00
C859   C     0.78316   0.28605   0.68853   0.00000  Uiso   1.00
N860   N     0.76236   0.26747   0.66285   0.00000  Uiso   1.00
C861   C     0.78149   0.04932   0.69018   0.00000  Uiso   1.00
N862   N     0.75953   0.06879   0.66568   0.00000  Uiso   1.00
C863   C     0.88517   0.28401   0.80982   0.00000  Uiso   1.00
N864   N     0.90714   0.26454   0.83432   0.00000  Uiso   1.00
C865   C     0.08680   0.50038   0.75368   0.00000  Uiso   1.00
C866   C     0.24654   0.49962   0.74632   0.00000  Uiso   1.00
C867   C     0.09108   0.50090   0.52087   0.00000  Uiso   1.00
C868   C     0.24226   0.49910   0.97913   0.00000  Uiso   1.00
C869   C     0.02159   0.45975   0.76098   0.00000  Uiso   1.00
C870   C     0.31174   0.54025   0.73902   0.00000  Uiso   1.00
C871   C     0.31338   0.45814   0.74980   0.00000  Uiso   1.00
C872   C     0.01996   0.54186   0.75020   0.00000  Uiso   1.00
C873   C     0.29104   0.49894   0.74281   0.00000  Uiso   1.00
C874   C     0.04229   0.50106   0.75719   0.00000  Uiso   1.00
C875   C     0.19117   0.35687   0.77964   0.00000  Uiso   1.00
C876   C     0.14216   0.64313   0.72036   0.00000  Uiso   1.00
C877   C     0.14190   0.35786   0.72060   0.00000  Uiso   1.00
C878   C     0.19143   0.64214   0.77939   0.00000  Uiso   1.00
C879   C     0.16643   0.50005   0.66372   0.00000  Uiso   1.00
C880   C     0.16690   0.49995   0.83628   0.00000  Uiso   1.00
C881   C     0.20502   0.49937   0.90738   0.00000  Uiso   1.00
C882   C     0.12831   0.50063   0.59262   0.00000  Uiso   1.00
C883   C     0.16713   0.49983   0.88391   0.00000  Uiso   1.00
C884   C     0.16620   0.50017   0.61609   0.00000  Uiso   1.00
C885   C     0.12916   0.50024   0.90550   0.00000  Uiso   1.00
C886   C     0.20417   0.49976   0.59450   0.00000  Uiso   1.00
C887   C     0.12891   0.50031   0.95207   0.00000  Uiso   1.00
C888   C     0.20442   0.49969   0.54793   0.00000  Uiso   1.00
C889   C     0.16683   0.49995   0.97653   0.00000  Uiso   1.00
C890   C     0.16651   0.50005   0.52347   0.00000  Uiso   1.00
C891   C     0.20503   0.49946   0.95417   0.00000  Uiso   1.00
C892   C     0.12830   0.50054   0.54583   0.00000  Uiso   1.00
C893   C     0.09141   0.50078   0.97462   0.00000  Uiso   1.00
C894   C     0.24192   0.49922   0.52538   0.00000  Uiso   1.00
H895   H     0.06200   0.50106   0.95669   0.00000  Uiso   1.00
H896   H     0.27133   0.49894   0.54331   0.00000  Uiso   1.00
H897   H     0.06135   0.50126   0.53679   0.00000  Uiso   1.00
H898   H     0.27199   0.49874   0.96321   0.00000  Uiso   1.00
N899   N     0.16667   0.61907   0.75000   0.00000  Uiso   1.00
N900   N     0.16667   0.38093   0.75000   0.00000  Uiso   1.00
O901   O     0.10559   0.53821   0.74999   0.00000  Uiso   1.00
O902   O     0.22774   0.46179   0.75000   0.00000  Uiso   1.00
O903   O     0.22774   0.53821   0.75000   0.00000  Uiso   1.00
O904   O     0.10559   0.46179   0.74999   0.00000  Uiso   1.00
O905   O     0.16666   0.53823   0.68392   0.00000  Uiso   1.00
O906   O     0.16667   0.46177   0.81607   0.00000  Uiso   1.00
O907   O     0.16667   0.53823   0.81607   0.00000  Uiso   1.00
O908   O     0.16666   0.46177   0.68392   0.00000  Uiso   1.00
Zn909  Zn    0.16667   0.55104   0.75000   0.00000  Uiso   1.00
Zn910  Zn    0.16667   0.44896   0.75000   0.00000  Uiso   1.00
C911   C     0.24352   0.49875   0.88310   0.00000  Uiso   1.00
N912   N     0.27414   0.49823   0.86377   0.00000  Uiso   1.00
C913   C     0.08981   0.50125   0.61690   0.00000  Uiso   1.00
N914   N     0.05919   0.50177   0.63623   0.00000  Uiso   1.00
N915   N     0.09082   0.50058   0.88027   0.00000  Uiso   1.00
H916   H     0.08999   0.47189   0.86000   0.00000  Uiso   1.00
H917   H     0.08964   0.52920   0.85972   0.00000  Uiso   1.00
N918   N     0.24251   0.49942   0.61973   0.00000  Uiso   1.00
H919   H     0.24370   0.47080   0.64028   0.00000  Uiso   1.00
H920   H     0.24334   0.52811   0.64000   0.00000  Uiso   1.00
C921   C     0.04183   0.41927   0.77917   0.00000  Uiso   1.00
N922   N     0.05788   0.38720   0.79386   0.00000  Uiso   1.00
C923   C     0.29150   0.58073   0.72083   0.00000  Uiso   1.00
N924   N     0.27546   0.61280   0.70614   0.00000  Uiso   1.00
C925   C     0.29543   0.41413   0.74199   0.00000  Uiso   1.00
N926   N     0.28160   0.37897   0.73532   0.00000  Uiso   1.00
C927   C     0.03790   0.58587   0.75801   0.00000  Uiso   1.00
N928   N     0.05173   0.62103   0.76468   0.00000  Uiso   1.00
C929   C     0.21684   0.38061   0.81147   0.00000  Uiso   1.00
N930   N     0.23764   0.39920   0.83715   0.00000  Uiso   1.00
C931   C     0.11649   0.61939   0.68853   0.00000  Uiso   1.00
N932   N     0.09569   0.60080   0.66285   0.00000  Uiso   1.00
C933   C     0.11483   0.38265   0.69018   0.00000  Uiso   1.00
N934   N     0.09286   0.40212   0.66568   0.00000  Uiso   1.00
C935   C     0.21851   0.61735   0.80982   0.00000  Uiso   1.00
N936   N     0.24047   0.59788   0.83432   0.00000  Uiso   1.00
C937   C     0.42013   0.50038   0.75368   0.00000  Uiso   1.00
C938   C     0.57987   0.49962   0.74632   0.00000  Uiso   1.00
C939   C     0.42441   0.50090   0.52087   0.00000  Uiso   1.00
C940   C     0.57559   0.49910   0.97913   0.00000  Uiso   1.00
C941   C     0.35493   0.45975   0.76098   0.00000  Uiso   1.00
C942   C     0.64507   0.54025   0.73902   0.00000  Uiso   1.00
C943   C     0.64671   0.45814   0.74980   0.00000  Uiso   1.00
C944   C     0.35329   0.54186   0.75020   0.00000  Uiso   1.00
C945   C     0.62437   0.49894   0.74281   0.00000  Uiso   1.00
C946   C     0.37563   0.50106   0.75719   0.00000  Uiso   1.00
C947   C     0.52451   0.35687   0.77964   0.00000  Uiso   1.00
C948   C     0.47549   0.64313   0.72036   0.00000  Uiso   1.00
C949   C     0.47524   0.35786   0.72060   0.00000  Uiso   1.00
C950   C     0.52476   0.64214   0.77939   0.00000  Uiso   1.00
C951   C     0.49976   0.50005   0.66372   0.00000  Uiso   1.00
C952   C     0.50024   0.49995   0.83628   0.00000  Uiso   1.00
C953   C     0.53836   0.49937   0.90738   0.00000  Uiso   1.00
C954   C     0.46164   0.50063   0.59262   0.00000  Uiso   1.00
C955   C     0.50046   0.49983   0.88391   0.00000  Uiso   1.00
C956   C     0.49953   0.50017   0.61609   0.00000  Uiso   1.00
C957   C     0.46249   0.50024   0.90550   0.00000  Uiso   1.00
C958   C     0.53751   0.49976   0.59450   0.00000  Uiso   1.00
C959   C     0.46224   0.50031   0.95207   0.00000  Uiso   1.00
C960   C     0.53775   0.49969   0.54793   0.00000  Uiso   1.00
C961   C     0.50016   0.49995   0.97653   0.00000  Uiso   1.00
C962   C     0.49984   0.50005   0.52347   0.00000  Uiso   1.00
C963   C     0.53837   0.49946   0.95417   0.00000  Uiso   1.00
C964   C     0.46163   0.50054   0.54583   0.00000  Uiso   1.00
C965   C     0.42474   0.50078   0.97462   0.00000  Uiso   1.00
C966   C     0.57525   0.49922   0.52538   0.00000  Uiso   1.00
H967   H     0.39534   0.50106   0.95669   0.00000  Uiso   1.00
H968   H     0.60466   0.49894   0.54331   0.00000  Uiso   1.00
H969   H     0.39468   0.50126   0.53679   0.00000  Uiso   1.00
H970   H     0.60532   0.49874   0.96321   0.00000  Uiso   1.00
N971   N     0.50000   0.61907   0.75000   0.00000  Uiso   1.00
N972   N     0.50000   0.38093   0.75000   0.00000  Uiso   1.00
O973   O     0.43892   0.53821   0.74999   0.00000  Uiso   1.00
O974   O     0.56108   0.46179   0.75000   0.00000  Uiso   1.00
O975   O     0.56108   0.53821   0.75000   0.00000  Uiso   1.00
O976   O     0.43892   0.46179   0.74999   0.00000  Uiso   1.00
O977   O     0.49999   0.53823   0.68392   0.00000  Uiso   1.00
O978   O     0.50001   0.46177   0.81607   0.00000  Uiso   1.00
O979   O     0.50001   0.53823   0.81607   0.00000  Uiso   1.00
O980   O     0.49999   0.46177   0.68392   0.00000  Uiso   1.00
Zn981  Zn    0.50000   0.55104   0.75000   0.00000  Uiso   1.00
Zn982  Zn    0.50000   0.44896   0.75000   0.00000  Uiso   1.00
C983   C     0.57686   0.49875   0.88310   0.00000  Uiso   1.00
N984   N     0.60748   0.49823   0.86377   0.00000  Uiso   1.00
C985   C     0.42314   0.50125   0.61690   0.00000  Uiso   1.00
N986   N     0.39252   0.50177   0.63623   0.00000  Uiso   1.00
N987   N     0.42415   0.50058   0.88027   0.00000  Uiso   1.00
H988   H     0.42332   0.47189   0.86000   0.00000  Uiso   1.00
H989   H     0.42297   0.52920   0.85972   0.00000  Uiso   1.00
N990   N     0.57585   0.49942   0.61973   0.00000  Uiso   1.00
H991   H     0.57703   0.47080   0.64028   0.00000  Uiso   1.00
H992   H     0.57667   0.52811   0.64000   0.00000  Uiso   1.00
C993   C     0.37516   0.41927   0.77917   0.00000  Uiso   1.00
N994   N     0.39121   0.38720   0.79386   0.00000  Uiso   1.00
C995   C     0.62484   0.58073   0.72083   0.00000  Uiso   1.00
N996   N     0.60879   0.61280   0.70614   0.00000  Uiso   1.00
C997   C     0.62876   0.41413   0.74199   0.00000  Uiso   1.00
N998   N     0.61494   0.37897   0.73532   0.00000  Uiso   1.00
C999   C     0.37124   0.58587   0.75801   0.00000  Uiso   1.00
N1000  N     0.38506   0.62103   0.76468   0.00000  Uiso   1.00
C1001  C     0.55018   0.38061   0.81147   0.00000  Uiso   1.00
N1002  N     0.57098   0.39920   0.83715   0.00000  Uiso   1.00
C1003  C     0.44982   0.61939   0.68853   0.00000  Uiso   1.00
N1004  N     0.42902   0.60080   0.66285   0.00000  Uiso   1.00
C1005  C     0.44816   0.38265   0.69018   0.00000  Uiso   1.00
N1006  N     0.42619   0.40212   0.66568   0.00000  Uiso   1.00
C1007  C     0.55184   0.61735   0.80982   0.00000  Uiso   1.00
N1008  N     0.57381   0.59788   0.83432   0.00000  Uiso   1.00
C1009  C     0.75346   0.50038   0.75368   0.00000  Uiso   1.00
C1010  C     0.91320   0.49962   0.74632   0.00000  Uiso   1.00
C1011  C     0.75774   0.50090   0.52087   0.00000  Uiso   1.00
C1012  C     0.90892   0.49910   0.97913   0.00000  Uiso   1.00
C1013  C     0.68826   0.45975   0.76098   0.00000  Uiso   1.00
C1014  C     0.97841   0.54025   0.73902   0.00000  Uiso   1.00
C1015  C     0.98004   0.45814   0.74980   0.00000  Uiso   1.00
C1016  C     0.68662   0.54186   0.75020   0.00000  Uiso   1.00
C1017  C     0.95771   0.49894   0.74281   0.00000  Uiso   1.00
C1018  C     0.70896   0.50106   0.75719   0.00000  Uiso   1.00
C1019  C     0.85784   0.35687   0.77964   0.00000  Uiso   1.00
C1020  C     0.80883   0.64313   0.72036   0.00000  Uiso   1.00
C1021  C     0.80857   0.35786   0.72060   0.00000  Uiso   1.00
C1022  C     0.85810   0.64214   0.77939   0.00000  Uiso   1.00
C1023  C     0.83309   0.50005   0.66372   0.00000  Uiso   1.00
C1024  C     0.83357   0.49995   0.83628   0.00000  Uiso   1.00
C1025  C     0.87169   0.49937   0.90738   0.00000  Uiso   1.00
C1026  C     0.79497   0.50063   0.59262   0.00000  Uiso   1.00
C1027  C     0.83380   0.49983   0.88391   0.00000  Uiso   1.00
C1028  C     0.83287   0.50017   0.61609   0.00000  Uiso   1.00
C1029  C     0.79583   0.50024   0.90550   0.00000  Uiso   1.00
C1030  C     0.87084   0.49976   0.59450   0.00000  Uiso   1.00
C1031  C     0.79558   0.50031   0.95207   0.00000  Uiso   1.00
C1032  C     0.87109   0.49969   0.54793   0.00000  Uiso   1.00
C1033  C     0.83349   0.49995   0.97653   0.00000  Uiso   1.00
C1034  C     0.83317   0.50005   0.52347   0.00000  Uiso   1.00
C1035  C     0.87170   0.49946   0.95417   0.00000  Uiso   1.00
C1036  C     0.79497   0.50054   0.54583   0.00000  Uiso   1.00
C1037  C     0.75808   0.50078   0.97462   0.00000  Uiso   1.00
C1038  C     0.90859   0.49922   0.52538   0.00000  Uiso   1.00
H1039  H     0.72867   0.50106   0.95669   0.00000  Uiso   1.00
H1040  H     0.93800   0.49894   0.54331   0.00000  Uiso   1.00
H1041  H     0.72801   0.50126   0.53679   0.00000  Uiso   1.00
H1042  H     0.93865   0.49874   0.96321   0.00000  Uiso   1.00
N1043  N     0.83333   0.61907   0.75000   0.00000  Uiso   1.00
N1044  N     0.83333   0.38093   0.75000   0.00000  Uiso   1.00
O1045  O     0.77226   0.53821   0.74999   0.00000  Uiso   1.00
O1046  O     0.89441   0.46179   0.75000   0.00000  Uiso   1.00
O1047  O     0.89441   0.53821   0.75000   0.00000  Uiso   1.00
O1048  O     0.77226   0.46179   0.74999   0.00000  Uiso   1.00
O1049  O     0.83333   0.53823   0.68392   0.00000  Uiso   1.00
O1050  O     0.83334   0.46177   0.81607   0.00000  Uiso   1.00
O1051  O     0.83334   0.53823   0.81607   0.00000  Uiso   1.00
O1052  O     0.83333   0.46177   0.68392   0.00000  Uiso   1.00
Zn1053 Zn    0.83333   0.55104   0.75000   0.00000  Uiso   1.00
Zn1054 Zn    0.83333   0.44896   0.75000   0.00000  Uiso   1.00
C1055  C     0.91019   0.49875   0.88310   0.00000  Uiso   1.00
N1056  N     0.94081   0.49823   0.86377   0.00000  Uiso   1.00
C1057  C     0.75648   0.50125   0.61690   0.00000  Uiso   1.00
N1058  N     0.72586   0.50177   0.63623   0.00000  Uiso   1.00
N1059  N     0.75749   0.50058   0.88027   0.00000  Uiso   1.00
H1060  H     0.75666   0.47189   0.86000   0.00000  Uiso   1.00
H1061  H     0.75630   0.52920   0.85972   0.00000  Uiso   1.00
N1062  N     0.90918   0.49942   0.61973   0.00000  Uiso   1.00
H1063  H     0.91036   0.47080   0.64028   0.00000  Uiso   1.00
H1064  H     0.91001   0.52811   0.64000   0.00000  Uiso   1.00
C1065  C     0.70850   0.41927   0.77917   0.00000  Uiso   1.00
N1066  N     0.72454   0.38720   0.79386   0.00000  Uiso   1.00
C1067  C     0.95817   0.58073   0.72083   0.00000  Uiso   1.00
N1068  N     0.94212   0.61280   0.70614   0.00000  Uiso   1.00
C1069  C     0.96210   0.41413   0.74199   0.00000  Uiso   1.00
N1070  N     0.94827   0.37897   0.73532   0.00000  Uiso   1.00
C1071  C     0.70457   0.58587   0.75801   0.00000  Uiso   1.00
N1072  N     0.71840   0.62103   0.76468   0.00000  Uiso   1.00
C1073  C     0.88351   0.38061   0.81147   0.00000  Uiso   1.00
N1074  N     0.90431   0.39920   0.83715   0.00000  Uiso   1.00
C1075  C     0.78316   0.61939   0.68853   0.00000  Uiso   1.00
N1076  N     0.76236   0.60080   0.66285   0.00000  Uiso   1.00
C1077  C     0.78149   0.38265   0.69018   0.00000  Uiso   1.00
N1078  N     0.75953   0.40212   0.66568   0.00000  Uiso   1.00
C1079  C     0.88517   0.61735   0.80982   0.00000  Uiso   1.00
N1080  N     0.90714   0.59788   0.83432   0.00000  Uiso   1.00
C1081  C     0.08680   0.83371   0.75368   0.00000  Uiso   1.00
C1082  C     0.24654   0.83295   0.74632   0.00000  Uiso   1.00
C1083  C     0.09108   0.83423   0.52087   0.00000  Uiso   1.00
C1084  C     0.24226   0.83243   0.97913   0.00000  Uiso   1.00
C1085  C     0.02159   0.79308   0.76098   0.00000  Uiso   1.00
C1086  C     0.31174   0.87359   0.73902   0.00000  Uiso   1.00
C1087  C     0.31338   0.79147   0.74980   0.00000  Uiso   1.00
C1088  C     0.01996   0.87520   0.75020   0.00000  Uiso   1.00
C1089  C     0.29104   0.83227   0.74281   0.00000  Uiso   1.00
C1090  C     0.04229   0.83439   0.75719   0.00000  Uiso   1.00
C1091  C     0.19117   0.69021   0.77964   0.00000  Uiso   1.00
C1092  C     0.14216   0.97646   0.72036   0.00000  Uiso   1.00
C1093  C     0.14190   0.69119   0.72060   0.00000  Uiso   1.00
C1094  C     0.19143   0.97547   0.77939   0.00000  Uiso   1.00
C1095  C     0.16643   0.83339   0.66372   0.00000  Uiso   1.00
C1096  C     0.16690   0.83328   0.83628   0.00000  Uiso   1.00
C1097  C     0.20502   0.83270   0.90738   0.00000  Uiso   1.00
C1098  C     0.12831   0.83396   0.59262   0.00000  Uiso   1.00
C1099  C     0.16713   0.83316   0.88391   0.00000  Uiso   1.00
C1100  C     0.16620   0.83351   0.61609   0.00000  Uiso   1.00
C1101  C     0.12916   0.83357   0.90550   0.00000  Uiso   1.00
C1102  C     0.20417   0.83309   0.59450   0.00000  Uiso   1.00
C1103  C     0.12891   0.83365   0.95207   0.00000  Uiso   1.00
C1104  C     0.20442   0.83302   0.54793   0.00000  Uiso   1.00
C1105  C     0.16683   0.83328   0.97653   0.00000  Uiso   1.00
C1106  C     0.16651   0.83339   0.52347   0.00000  Uiso   1.00
C1107  C     0.20503   0.83279   0.95417   0.00000  Uiso   1.00
C1108  C     0.12830   0.83387   0.54583   0.00000  Uiso   1.00
C1109  C     0.09141   0.83411   0.97462   0.00000  Uiso   1.00
C1110  C     0.24192   0.83255   0.52538   0.00000  Uiso   1.00
H1111  H     0.06200   0.83440   0.95669   0.00000  Uiso   1.00
H1112  H     0.27133   0.83227   0.54331   0.00000  Uiso   1.00
H1113  H     0.06135   0.83459   0.53679   0.00000  Uiso   1.00
H1114  H     0.27199   0.83207   0.96321   0.00000  Uiso   1.00
N1115  N     0.16667   0.95240   0.75000   0.00000  Uiso   1.00
N1116  N     0.16667   0.71427   0.75000   0.00000  Uiso   1.00
O1117  O     0.10559   0.87154   0.74999   0.00000  Uiso   1.00
O1118  O     0.22774   0.79513   0.75000   0.00000  Uiso   1.00
O1119  O     0.22774   0.87154   0.75000   0.00000  Uiso   1.00
O1120  O     0.10559   0.79513   0.74999   0.00000  Uiso   1.00
O1121  O     0.16666   0.87156   0.68392   0.00000  Uiso   1.00
O1122  O     0.16667   0.79511   0.81607   0.00000  Uiso   1.00
O1123  O     0.16667   0.87156   0.81607   0.00000  Uiso   1.00
O1124  O     0.16666   0.79511   0.68392   0.00000  Uiso   1.00
Zn1125 Zn    0.16667   0.88437   0.75000   0.00000  Uiso   1.00
Zn1126 Zn    0.16667   0.78229   0.75000   0.00000  Uiso   1.00
C1127  C     0.24352   0.83208   0.88310   0.00000  Uiso   1.00
N1128  N     0.27414   0.83157   0.86377   0.00000  Uiso   1.00
C1129  C     0.08981   0.83458   0.61690   0.00000  Uiso   1.00
N1130  N     0.05919   0.83510   0.63623   0.00000  Uiso   1.00
N1131  N     0.09082   0.83392   0.88027   0.00000  Uiso   1.00
H1132  H     0.08999   0.80522   0.86000   0.00000  Uiso   1.00
H1133  H     0.08964   0.86254   0.85972   0.00000  Uiso   1.00
N1134  N     0.24251   0.83275   0.61973   0.00000  Uiso   1.00
H1135  H     0.24370   0.80413   0.64028   0.00000  Uiso   1.00
H1136  H     0.24334   0.86145   0.64000   0.00000  Uiso   1.00
C1137  C     0.04183   0.75260   0.77917   0.00000  Uiso   1.00
N1138  N     0.05788   0.72053   0.79386   0.00000  Uiso   1.00
C1139  C     0.29150   0.91406   0.72083   0.00000  Uiso   1.00
N1140  N     0.27546   0.94614   0.70614   0.00000  Uiso   1.00
C1141  C     0.29543   0.74747   0.74199   0.00000  Uiso   1.00
N1142  N     0.28160   0.71230   0.73532   0.00000  Uiso   1.00
C1143  C     0.03790   0.91920   0.75801   0.00000  Uiso   1.00
N1144  N     0.05173   0.95436   0.76468   0.00000  Uiso   1.00
C1145  C     0.21684   0.71395   0.81147   0.00000  Uiso   1.00
N1146  N     0.23764   0.73253   0.83715   0.00000  Uiso   1.00
C1147  C     0.11649   0.95272   0.68853   0.00000  Uiso   1.00
N1148  N     0.09569   0.93413   0.66285   0.00000  Uiso   1.00
C1149  C     0.11483   0.71599   0.69018   0.00000  Uiso   1.00
N1150  N     0.09286   0.73546   0.66568   0.00000  Uiso   1.00
C1151  C     0.21851   0.95068   0.80982   0.00000  Uiso   1.00
N1152  N     0.24047   0.93121   0.83432   0.00000  Uiso   1.00
C1153  C     0.42013   0.83371   0.75368   0.00000  Uiso   1.00
C1154  C     0.57987   0.83295   0.74632   0.00000  Uiso   1.00
C1155  C     0.42441   0.83423   0.52087   0.00000  Uiso   1.00
C1156  C     0.57559   0.83243   0.97913   0.00000  Uiso   1.00
C1157  C     0.35493   0.79308   0.76098   0.00000  Uiso   1.00
C1158  C     0.64507   0.87359   0.73902   0.00000  Uiso   1.00
C1159  C     0.64671   0.79147   0.74980   0.00000  Uiso   1.00
C1160  C     0.35329   0.87520   0.75020   0.00000  Uiso   1.00
C1161  C     0.62437   0.83227   0.74281   0.00000  Uiso   1.00
C1162  C     0.37563   0.83439   0.75719   0.00000  Uiso   1.00
C1163  C     0.52451   0.69021   0.77964   0.00000  Uiso   1.00
C1164  C     0.47549   0.97646   0.72036   0.00000  Uiso   1.00
C1165  C     0.47524   0.69119   0.72060   0.00000  Uiso   1.00
C1166  C     0.52476   0.97547   0.77939   0.00000  Uiso   1.00
C1167  C     0.49976   0.83339   0.66372   0.00000  Uiso   1.00
C1168  C     0.50024   0.83328   0.83628   0.00000  Uiso   1.00
C1169  C     0.53836   0.83270   0.90738   0.00000  Uiso   1.00
C1170  C     0.46164   0.83396   0.59262   0.00000  Uiso   1.00
C1171  C     0.50046   0.83316   0.88391   0.00000  Uiso   1.00
C1172  C     0.49953   0.83351   0.61609   0.00000  Uiso   1.00
C1173  C     0.46249   0.83357   0.90550   0.00000  Uiso   1.00
C1174  C     0.53751   0.83309   0.59450   0.00000  Uiso   1.00
C1175  C     0.46224   0.83365   0.95207   0.00000  Uiso   1.00
C1176  C     0.53775   0.83302   0.54793   0.00000  Uiso   1.00
C1177  C     0.50016   0.83328   0.97653   0.00000  Uiso   1.00
C1178  C     0.49984   0.83339   0.52347   0.00000  Uiso   1.00
C1179  C     0.53837   0.83279   0.95417   0.00000  Uiso   1.00
C1180  C     0.46163   0.83387   0.54583   0.00000  Uiso   1.00
C1181  C     0.42474   0.83411   0.97462   0.00000  Uiso   1.00
C1182  C     0.57525   0.83255   0.52538   0.00000  Uiso   1.00
H1183  H     0.39534   0.83440   0.95669   0.00000  Uiso   1.00
H1184  H     0.60466   0.83227   0.54331   0.00000  Uiso   1.00
H1185  H     0.39468   0.83459   0.53679   0.00000  Uiso   1.00
H1186  H     0.60532   0.83207   0.96321   0.00000  Uiso   1.00
N1187  N     0.50000   0.95240   0.75000   0.00000  Uiso   1.00
N1188  N     0.50000   0.71427   0.75000   0.00000  Uiso   1.00
O1189  O     0.43892   0.87154   0.74999   0.00000  Uiso   1.00
O1190  O     0.56108   0.79513   0.75000   0.00000  Uiso   1.00
O1191  O     0.56108   0.87154   0.75000   0.00000  Uiso   1.00
O1192  O     0.43892   0.79513   0.74999   0.00000  Uiso   1.00
O1193  O     0.49999   0.87156   0.68392   0.00000  Uiso   1.00
O1194  O     0.50001   0.79511   0.81607   0.00000  Uiso   1.00
O1195  O     0.50001   0.87156   0.81607   0.00000  Uiso   1.00
O1196  O     0.49999   0.79511   0.68392   0.00000  Uiso   1.00
Zn1197 Zn    0.50000   0.88437   0.75000   0.00000  Uiso   1.00
Zn1198 Zn    0.50000   0.78229   0.75000   0.00000  Uiso   1.00
C1199  C     0.57686   0.83208   0.88310   0.00000  Uiso   1.00
N1200  N     0.60748   0.83157   0.86377   0.00000  Uiso   1.00
C1201  C     0.42314   0.83458   0.61690   0.00000  Uiso   1.00
N1202  N     0.39252   0.83510   0.63623   0.00000  Uiso   1.00
N1203  N     0.42415   0.83392   0.88027   0.00000  Uiso   1.00
H1204  H     0.42332   0.80522   0.86000   0.00000  Uiso   1.00
H1205  H     0.42297   0.86254   0.85972   0.00000  Uiso   1.00
N1206  N     0.57585   0.83275   0.61973   0.00000  Uiso   1.00
H1207  H     0.57703   0.80413   0.64028   0.00000  Uiso   1.00
H1208  H     0.57667   0.86145   0.64000   0.00000  Uiso   1.00
C1209  C     0.37516   0.75260   0.77917   0.00000  Uiso   1.00
N1210  N     0.39121   0.72053   0.79386   0.00000  Uiso   1.00
C1211  C     0.62484   0.91406   0.72083   0.00000  Uiso   1.00
N1212  N     0.60879   0.94614   0.70614   0.00000  Uiso   1.00
C1213  C     0.62876   0.74747   0.74199   0.00000  Uiso   1.00
N1214  N     0.61494   0.71230   0.73532   0.00000  Uiso   1.00
C1215  C     0.37124   0.91920   0.75801   0.00000  Uiso   1.00
N1216  N     0.38506   0.95436   0.76468   0.00000  Uiso   1.00
C1217  C     0.55018   0.71395   0.81147   0.00000  Uiso   1.00
N1218  N     0.57098   0.73253   0.83715   0.00000  Uiso   1.00
C1219  C     0.44982   0.95272   0.68853   0.00000  Uiso   1.00
N1220  N     0.42902   0.93413   0.66285   0.00000  Uiso   1.00
C1221  C     0.44816   0.71599   0.69018   0.00000  Uiso   1.00
N1222  N     0.42619   0.73546   0.66568   0.00000  Uiso   1.00
C1223  C     0.55184   0.95068   0.80982   0.00000  Uiso   1.00
N1224  N     0.57381   0.93121   0.83432   0.00000  Uiso   1.00
C1225  C     0.75346   0.83371   0.75368   0.00000  Uiso   1.00
C1226  C     0.91320   0.83295   0.74632   0.00000  Uiso   1.00
C1227  C     0.75774   0.83423   0.52087   0.00000  Uiso   1.00
C1228  C     0.90892   0.83243   0.97913   0.00000  Uiso   1.00
C1229  C     0.68826   0.79308   0.76098   0.00000  Uiso   1.00
C1230  C     0.97841   0.87359   0.73902   0.00000  Uiso   1.00
C1231  C     0.98004   0.79147   0.74980   0.00000  Uiso   1.00
C1232  C     0.68662   0.87520   0.75020   0.00000  Uiso   1.00
C1233  C     0.95771   0.83227   0.74281   0.00000  Uiso   1.00
C1234  C     0.70896   0.83439   0.75719   0.00000  Uiso   1.00
C1235  C     0.85784   0.69021   0.77964   0.00000  Uiso   1.00
C1236  C     0.80883   0.97646   0.72036   0.00000  Uiso   1.00
C1237  C     0.80857   0.69119   0.72060   0.00000  Uiso   1.00
C1238  C     0.85810   0.97547   0.77939   0.00000  Uiso   1.00
C1239  C     0.83309   0.83339   0.66372   0.00000  Uiso   1.00
C1240  C     0.83357   0.83328   0.83628   0.00000  Uiso   1.00
C1241  C     0.87169   0.83270   0.90738   0.00000  Uiso   1.00
C1242  C     0.79497   0.83396   0.59262   0.00000  Uiso   1.00
C1243  C     0.83380   0.83316   0.88391   0.00000  Uiso   1.00
C1244  C     0.83287   0.83351   0.61609   0.00000  Uiso   1.00
C1245  C     0.79583   0.83357   0.90550   0.00000  Uiso   1.00
C1246  C     0.87084   0.83309   0.59450   0.00000  Uiso   1.00
C1247  C     0.79558   0.83365   0.95207   0.00000  Uiso   1.00
C1248  C     0.87109   0.83302   0.54793   0.00000  Uiso   1.00
C1249  C     0.83349   0.83328   0.97653   0.00000  Uiso   1.00
C1250  C     0.83317   0.83339   0.52347   0.00000  Uiso   1.00
C1251  C     0.87170   0.83279   0.95417   0.00000  Uiso   1.00
C1252  C     0.79497   0.83387   0.54583   0.00000  Uiso   1.00
C1253  C     0.75808   0.83411   0.97462   0.00000  Uiso   1.00
C1254  C     0.90859   0.83255   0.52538   0.00000  Uiso   1.00
H1255  H     0.72867   0.83440   0.95669   0.00000  Uiso   1.00
H1256  H     0.93800   0.83227   0.54331   0.00000  Uiso   1.00
H1257  H     0.72801   0.83459   0.53679   0.00000  Uiso   1.00
H1258  H     0.93865   0.83207   0.96321   0.00000  Uiso   1.00
N1259  N     0.83333   0.95240   0.75000   0.00000  Uiso   1.00
N1260  N     0.83333   0.71427   0.75000   0.00000  Uiso   1.00
O1261  O     0.77226   0.87154   0.74999   0.00000  Uiso   1.00
O1262  O     0.89441   0.79513   0.75000   0.00000  Uiso   1.00
O1263  O     0.89441   0.87154   0.75000   0.00000  Uiso   1.00
O1264  O     0.77226   0.79513   0.74999   0.00000  Uiso   1.00
O1265  O     0.83333   0.87156   0.68392   0.00000  Uiso   1.00
O1266  O     0.83334   0.79511   0.81607   0.00000  Uiso   1.00
O1267  O     0.83334   0.87156   0.81607   0.00000  Uiso   1.00
O1268  O     0.83333   0.79511   0.68392   0.00000  Uiso   1.00
Zn1269 Zn    0.83333   0.88437   0.75000   0.00000  Uiso   1.00
Zn1270 Zn    0.83333   0.78229   0.75000   0.00000  Uiso   1.00
C1271  C     0.91019   0.83208   0.88310   0.00000  Uiso   1.00
N1272  N     0.94081   0.83157   0.86377   0.00000  Uiso   1.00
C1273  C     0.75648   0.83458   0.61690   0.00000  Uiso   1.00
N1274  N     0.72586   0.83510   0.63623   0.00000  Uiso   1.00
N1275  N     0.75749   0.83392   0.88027   0.00000  Uiso   1.00
H1276  H     0.75666   0.80522   0.86000   0.00000  Uiso   1.00
H1277  H     0.75630   0.86254   0.85972   0.00000  Uiso   1.00
N1278  N     0.90918   0.83275   0.61973   0.00000  Uiso   1.00
H1279  H     0.91036   0.80413   0.64028   0.00000  Uiso   1.00
H1280  H     0.91001   0.86145   0.64000   0.00000  Uiso   1.00
C1281  C     0.70850   0.75260   0.77917   0.00000  Uiso   1.00
N1282  N     0.72454   0.72053   0.79386   0.00000  Uiso   1.00
C1283  C     0.95817   0.91406   0.72083   0.00000  Uiso   1.00
N1284  N     0.94212   0.94614   0.70614   0.00000  Uiso   1.00
C1285  C     0.96210   0.74747   0.74199   0.00000  Uiso   1.00
N1286  N     0.94827   0.71230   0.73532   0.00000  Uiso   1.00
C1287  C     0.70457   0.91920   0.75801   0.00000  Uiso   1.00
N1288  N     0.71840   0.95436   0.76468   0.00000  Uiso   1.00
C1289  C     0.88351   0.71395   0.81147   0.00000  Uiso   1.00
N1290  N     0.90431   0.73253   0.83715   0.00000  Uiso   1.00
C1291  C     0.78316   0.95272   0.68853   0.00000  Uiso   1.00
N1292  N     0.76236   0.93413   0.66285   0.00000  Uiso   1.00
C1293  C     0.78149   0.71599   0.69018   0.00000  Uiso   1.00
N1294  N     0.75953   0.73546   0.66568   0.00000  Uiso   1.00
C1295  C     0.88517   0.95068   0.80982   0.00000  Uiso   1.00
N1296  N     0.90714   0.93121   0.83432   0.00000  Uiso   1.00
loop_
_geom_bond_atom_site_label_1
_geom_bond_atom_site_label_2
_geom_bond_distance
_geom_bond_site_symmetry_2
_ccdc_geom_bond_type
C1     O37     1.290   .     A
C1     O40     1.293   .     A
C1     C10     1.447   .     S
C2     O38     1.290   .     A
C2     C9      1.447   .     S
C2     O39     1.293   .     A
C3     C28     1.405   .     A
C3     H33     1.083   .     S
C3     C677    1.382   1_554 S
C4     H34     1.083   .     S
C4     C27     1.405   .     A
C4     C678    1.382   .     S
C5     C57     1.456   .     S
C5     C10     1.411   .     A
C5     C151    1.382   1_455 S
C6     C9      1.411   .     A
C6     C59     1.456   .     S
C6     C80     1.382   .     S
C7     C9      1.412   .     A
C7     C61     1.454   .     S
C7     C77     1.382   .     S
C8     C10     1.412   .     A
C8     C63     1.454   .     S
C8     C150    1.382   1_455 S
C11    C65     1.442   .     S
C11    N36     1.369   .     A
C11    C446    1.424   1_545 S
C12    C67     1.442   .     S
C12    N35     1.369   .     A
C12    C229    1.424   .     S
C13    C69     1.442   .     S
C13    N36     1.369   .     A
C13    C444    1.424   1_545 S
C14    C71     1.442   .     S
C14    N35     1.369   .     A
C14    C227    1.424   .     S
C15    O44     1.284   .     A
C15    O41     1.284   .     A
C15    C20     1.423   .     S
C16    O43     1.284   .     A
C16    C19     1.423   .     S
C16    O42     1.284   .     A
C17    C19     1.401   .     A
C17    C27     1.398   .     A
C17    C47     1.455   .     S
C18    C20     1.401   .     A
C18    C28     1.398   .     A
C18    C49     1.455   .     S
C19    C21     1.400   .     A
C20    C22     1.400   .     A
C21    C23     1.392   .     A
C21    N51     1.440   .     S
C22    N54     1.440   .     S
C22    C24     1.392   .     A
C23    C25     1.416   .     A
C23    C29     1.401   .     A
C24    C26     1.416   .     A
C24    C30     1.401   .     A
C25    C27     1.418   .     A
C25    C674    1.403   .     S
C26    C28     1.418   .     A
C26    C673    1.403   1_554 S
C29    H31     1.083   .     S
C29    C651    1.382   .     S
C30    H32     1.083   .     S
C30    C652    1.382   1_554 S
N35    Zn45    2.016   .     S
N36    Zn46    2.016   .     S
O37    Zn45    2.020   .     S
O38    Zn46    2.020   .     S
O39    Zn45    2.008   .     S
O40    Zn46    2.008   .     S
O41    Zn45    2.012   .     S
O42    Zn46    2.012   .     S
O43    Zn45    2.010   .     S
O44    Zn46    2.010   .     S
C47    N48     1.158   .     T
C49    N50     1.158   .     T
N51    H53     1.046   .     S
N51    H52     1.046   .     S
N54    H56     1.046   .     S
N54    H55     1.046   .     S
C57    N58     1.157   .     T
C59    N60     1.157   .     T
C61    N62     1.157   .     T
C63    N64     1.157   .     T
C65    N66     1.157   .     T
C67    N68     1.157   .     T
C69    N70     1.157   .     T
C71    N72     1.157   .     T
C73    O109    1.290   .     A
C73    O112    1.293   .     A
C73    C82     1.447   .     S
C74    O110    1.290   .     A
C74    C81     1.447   .     S
C74    O111    1.293   .     A
C75    C100    1.405   .     A
C75    H105    1.083   .     S
C75    C749    1.382   1_554 S
C76    H106    1.083   .     S
C76    C99     1.405   .     A
C76    C750    1.382   .     S
C77    C129    1.456   .     S
C77    C82     1.411   .     A
C78    C81     1.411   .     A
C78    C131    1.456   .     S
C78    C152    1.382   .     S
C79    C81     1.412   .     A
C79    C133    1.454   .     S
C79    C149    1.382   .     S
C80    C82     1.412   .     A
C80    C135    1.454   .     S
C83    C137    1.442   .     S
C83    N108    1.369   .     A
C83    C518    1.424   1_545 S
C84    C139    1.442   .     S
C84    N107    1.369   .     A
C84    C301    1.424   .     S
C85    C141    1.442   .     S
C85    N108    1.369   .     A
C85    C516    1.424   1_545 S
C86    C143    1.442   .     S
C86    N107    1.369   .     A
C86    C299    1.424   .     S
C87    O116    1.284   .     A
C87    O113    1.284   .     A
C87    C92     1.423   .     S
C88    O115    1.284   .     A
C88    C91     1.423   .     S
C88    O114    1.284   .     A
C89    C91     1.401   .     A
C89    C99     1.398   .     A
C89    C119    1.455   .     S
C90    C92     1.401   .     A
C90    C100    1.398   .     A
C90    C121    1.455   .     S
C91    C93     1.400   .     A
C92    C94     1.400   .     A
C93    C95     1.392   .     A
C93    N123    1.440   .     S
C94    N126    1.440   .     S
C94    C96     1.392   .     A
C95    C97     1.416   .     A
C95    C101    1.401   .     A
C96    C98     1.416   .     A
C96    C102    1.401   .     A
C97    C99     1.418   .     A
C97    C746    1.403   .     S
C98    C100    1.418   .     A
C98    C745    1.403   1_554 S
C101   H103    1.083   .     S
C101   C723    1.382   .     S
C102   H104    1.083   .     S
C102   C724    1.382   1_554 S
N107   Zn117   2.016   .     S
N108   Zn118   2.016   .     S
O109   Zn117   2.020   .     S
O110   Zn118   2.020   .     S
O111   Zn117   2.008   .     S
O112   Zn118   2.008   .     S
O113   Zn117   2.012   .     S
O114   Zn118   2.012   .     S
O115   Zn117   2.010   .     S
O116   Zn118   2.010   .     S
C119   N120    1.158   .     T
C121   N122    1.158   .     T
N123   H125    1.046   .     S
N123   H124    1.046   .     S
N126   H128    1.046   .     S
N126   H127    1.046   .     S
C129   N130    1.157   .     T
C131   N132    1.157   .     T
C133   N134    1.157   .     T
C135   N136    1.157   .     T
C137   N138    1.157   .     T
C139   N140    1.157   .     T
C141   N142    1.157   .     T
C143   N144    1.157   .     T
C145   O181    1.290   .     A
C145   O184    1.293   .     A
C145   C154    1.447   .     S
C146   O182    1.290   .     A
C146   C153    1.447   .     S
C146   O183    1.293   .     A
C147   C172    1.405   .     A
C147   H177    1.083   .     S
C147   C821    1.382   1_554 S
C148   H178    1.083   .     S
C148   C171    1.405   .     A
C148   C822    1.382   .     S
C149   C201    1.456   .     S
C149   C154    1.411   .     A
C150   C153    1.411   .     A
C150   C203    1.456   .     S
C150   C8      1.382   1_655 S
C151   C153    1.412   .     A
C151   C205    1.454   .     S
C151   C5      1.382   1_655 S
C152   C154    1.412   .     A
C152   C207    1.454   .     S
C155   C209    1.442   .     S
C155   N180    1.369   .     A
C155   C590    1.424   1_545 S
C156   C211    1.442   .     S
C156   N179    1.369   .     A
C156   C373    1.424   .     S
C157   C213    1.442   .     S
C157   N180    1.369   .     A
C157   C588    1.424   1_545 S
C158   C215    1.442   .     S
C158   N179    1.369   .     A
C158   C371    1.424   .     S
C159   O188    1.284   .     A
C159   O185    1.284   .     A
C159   C164    1.423   .     S
C160   O187    1.284   .     A
C160   C163    1.423   .     S
C160   O186    1.284   .     A
C161   C163    1.401   .     A
C161   C171    1.398   .     A
C161   C191    1.455   .     S
C162   C164    1.401   .     A
C162   C172    1.398   .     A
C162   C193    1.455   .     S
C163   C165    1.400   .     A
C164   C166    1.400   .     A
C165   C167    1.392   .     A
C165   N195    1.440   .     S
C166   N198    1.440   .     S
C166   C168    1.392   .     A
C167   C169    1.416   .     A
C167   C173    1.401   .     A
C168   C170    1.416   .     A
C168   C174    1.401   .     A
C169   C171    1.418   .     A
C169   C818    1.403   .     S
C170   C172    1.418   .     A
C170   C817    1.403   1_554 S
C173   H175    1.083   .     S
C173   C795    1.382   .     S
C174   H176    1.083   .     S
C174   C796    1.382   1_554 S
N179   Zn189   2.016   .     S
N180   Zn190   2.016   .     S
O181   Zn189   2.020   .     S
O182   Zn190   2.020   .     S
O183   Zn189   2.008   .     S
O184   Zn190   2.008   .     S
O185   Zn189   2.012   .     S
O186   Zn190   2.012   .     S
O187   Zn189   2.010   .     S
O188   Zn190   2.010   .     S
C191   N192    1.158   .     T
C193   N194    1.158   .     T
N195   H197    1.046   .     S
N195   H196    1.046   .     S
N198   H200    1.046   .     S
N198   H199    1.046   .     S
C201   N202    1.157   .     T
C203   N204    1.157   .     T
C205   N206    1.157   .     T
C207   N208    1.157   .     T
C209   N210    1.157   .     T
C211   N212    1.157   .     T
C213   N214    1.157   .     T
C215   N216    1.157   .     T
C217   O253    1.290   .     A
C217   O256    1.293   .     A
C217   C226    1.447   .     S
C218   O254    1.290   .     A
C218   C225    1.447   .     S
C218   O255    1.293   .     A
C219   C244    1.405   .     A
C219   H249    1.083   .     S
C219   C893    1.382   1_554 S
C220   H250    1.083   .     S
C220   C243    1.405   .     A
C220   C894    1.382   .     S
C221   C273    1.456   .     S
C221   C226    1.411   .     A
C221   C367    1.382   1_455 S
C222   C225    1.411   .     A
C222   C275    1.456   .     S
C222   C296    1.382   .     S
C223   C225    1.412   .     A
C223   C277    1.454   .     S
C223   C293    1.382   .     S
C224   C226    1.412   .     A
C224   C279    1.454   .     S
C224   C366    1.382   1_455 S
C227   C281    1.442   .     S
C227   N252    1.369   .     A
C228   C283    1.442   .     S
C228   N251    1.369   .     A
C228   C445    1.424   .     S
C229   C285    1.442   .     S
C229   N252    1.369   .     A
C230   C287    1.442   .     S
C230   N251    1.369   .     A
C230   C443    1.424   .     S
C231   O260    1.284   .     A
C231   O257    1.284   .     A
C231   C236    1.423   .     S
C232   O259    1.284   .     A
C232   C235    1.423   .     S
C232   O258    1.284   .     A
C233   C235    1.401   .     A
C233   C243    1.398   .     A
C233   C263    1.455   .     S
C234   C236    1.401   .     A
C234   C244    1.398   .     A
C234   C265    1.455   .     S
C235   C237    1.400   .     A
C236   C238    1.400   .     A
C237   C239    1.392   .     A
C237   N267    1.440   .     S
C238   N270    1.440   .     S
C238   C240    1.392   .     A
C239   C241    1.416   .     A
C239   C245    1.401   .     A
C240   C242    1.416   .     A
C240   C246    1.401   .     A
C241   C243    1.418   .     A
C241   C890    1.403   .     S
C242   C244    1.418   .     A
C242   C889    1.403   1_554 S
C245   H247    1.083   .     S
C245   C867    1.382   .     S
C246   H248    1.083   .     S
C246   C868    1.382   1_554 S
N251   Zn261   2.016   .     S
N252   Zn262   2.016   .     S
O253   Zn261   2.020   .     S
O254   Zn262   2.020   .     S
O255   Zn261   2.008   .     S
O256   Zn262   2.008   .     S
O257   Zn261   2.012   .     S
O258   Zn262   2.012   .     S
O259   Zn261   2.010   .     S
O260   Zn262   2.010   .     S
C263   N264    1.158   .     T
C265   N266    1.158   .     T
N267   H269    1.046   .     S
N267   H268    1.046   .     S
N270   H272    1.046   .     S
N270   H271    1.046   .     S
C273   N274    1.157   .     T
C275   N276    1.157   .     T
C277   N278    1.157   .     T
C279   N280    1.157   .     T
C281   N282    1.157   .     T
C283   N284    1.157   .     T
C285   N286    1.157   .     T
C287   N288    1.157   .     T
C289   O325    1.290   .     A
C289   O328    1.293   .     A
C289   C298    1.447   .     S
C290   O326    1.290   .     A
C290   C297    1.447   .     S
C290   O327    1.293   .     A
C291   C316    1.405   .     A
C291   H321    1.083   .     S
C291   C965    1.382   1_554 S
C292   H322    1.083   .     S
C292   C315    1.405   .     A
C292   C966    1.382   .     S
C293   C345    1.456   .     S
C293   C298    1.411   .     A
C294   C297    1.411   .     A
C294   C347    1.456   .     S
C294   C368    1.382   .     S
C295   C297    1.412   .     A
C295   C349    1.454   .     S
C295   C365    1.382   .     S
C296   C298    1.412   .     A
C296   C351    1.454   .     S
C299   C353    1.442   .     S
C299   N324    1.369   .     A
C300   C355    1.442   .     S
C300   N323    1.369   .     A
C300   C517    1.424   .     S
C301   C357    1.442   .     S
C301   N324    1.369   .     A
C302   C359    1.442   .     S
C302   N323    1.369   .     A
C302   C515    1.424   .     S
C303   O332    1.284   .     A
C303   O329    1.284   .     A
C303   C308    1.423   .     S
C304   O331    1.284   .     A
C304   C307    1.423   .     S
C304   O330    1.284   .     A
C305   C307    1.401   .     A
C305   C315    1.398   .     A
C305   C335    1.455   .     S
C306   C308    1.401   .     A
C306   C316    1.398   .     A
C306   C337    1.455   .     S
C307   C309    1.400   .     A
C308   C310    1.400   .     A
C309   C311    1.392   .     A
C309   N339    1.440   .     S
C310   N342    1.440   .     S
C310   C312    1.392   .     A
C311   C313    1.416   .     A
C311   C317    1.401   .     A
C312   C314    1.416   .     A
C312   C318    1.401   .     A
C313   C315    1.418   .     A
C313   C962    1.403   .     S
C314   C316    1.418   .     A
C314   C961    1.403   1_554 S
C317   H319    1.083   .     S
C317   C939    1.382   .     S
C318   H320    1.083   .     S
C318   C940    1.382   1_554 S
N323   Zn333   2.016   .     S
N324   Zn334   2.016   .     S
O325   Zn333   2.020   .     S
O326   Zn334   2.020   .     S
O327   Zn333   2.008   .     S
O328   Zn334   2.008   .     S
O329   Zn333   2.012   .     S
O330   Zn334   2.012   .     S
O331   Zn333   2.010   .     S
O332   Zn334   2.010   .     S
C335   N336    1.158   .     T
C337   N338    1.158   .     T
N339   H341    1.046   .     S
N339   H340    1.046   .     S
N342   H344    1.046   .     S
N342   H343    1.046   .     S
C345   N346    1.157   .     T
C347   N348    1.157   .     T
C349   N350    1.157   .     T
C351   N352    1.157   .     T
C353   N354    1.157   .     T
C355   N356    1.157   .     T
C357   N358    1.157   .     T
C359   N360    1.157   .     T
C361   O397    1.290   .     A
C361   O400    1.293   .     A
C361   C370    1.447   .     S
C362   O398    1.290   .     A
C362   C369    1.447   .     S
C362   O399    1.293   .     A
C363   C388    1.405   .     A
C363   H393    1.083   .     S
C363   C1037   1.382   1_554 S
C364   H394    1.083   .     S
C364   C387    1.405   .     A
C364   C1038   1.382   .     S
C365   C417    1.456   .     S
C365   C370    1.411   .     A
C366   C369    1.411   .     A
C366   C419    1.456   .     S
C366   C224    1.382   1_655 S
C367   C369    1.412   .     A
C367   C421    1.454   .     S
C367   C221    1.382   1_655 S
C368   C370    1.412   .     A
C368   C423    1.454   .     S
C371   C425    1.442   .     S
C371   N396    1.369   .     A
C372   C427    1.442   .     S
C372   N395    1.369   .     A
C372   C589    1.424   .     S
C373   C429    1.442   .     S
C373   N396    1.369   .     A
C374   C431    1.442   .     S
C374   N395    1.369   .     A
C374   C587    1.424   .     S
C375   O404    1.284   .     A
C375   O401    1.284   .     A
C375   C380    1.423   .     S
C376   O403    1.284   .     A
C376   C379    1.423   .     S
C376   O402    1.284   .     A
C377   C379    1.401   .     A
C377   C387    1.398   .     A
C377   C407    1.455   .     S
C378   C380    1.401   .     A
C378   C388    1.398   .     A
C378   C409    1.455   .     S
C379   C381    1.400   .     A
C380   C382    1.400   .     A
C381   C383    1.392   .     A
C381   N411    1.440   .     S
C382   N414    1.440   .     S
C382   C384    1.392   .     A
C383   C385    1.416   .     A
C383   C389    1.401   .     A
C384   C386    1.416   .     A
C384   C390    1.401   .     A
C385   C387    1.418   .     A
C385   C1034   1.403   .     S
C386   C388    1.418   .     A
C386   C1033   1.403   1_554 S
C389   H391    1.083   .     S
C389   C1011   1.382   .     S
C390   H392    1.083   .     S
C390   C1012   1.382   1_554 S
N395   Zn405   2.016   .     S
N396   Zn406   2.016   .     S
O397   Zn405   2.020   .     S
O398   Zn406   2.020   .     S
O399   Zn405   2.008   .     S
O400   Zn406   2.008   .     S
O401   Zn405   2.012   .     S
O402   Zn406   2.012   .     S
O403   Zn405   2.010   .     S
O404   Zn406   2.010   .     S
C407   N408    1.158   .     T
C409   N410    1.158   .     T
N411   H413    1.046   .     S
N411   H412    1.046   .     S
N414   H416    1.046   .     S
N414   H415    1.046   .     S
C417   N418    1.157   .     T
C419   N420    1.157   .     T
C421   N422    1.157   .     T
C423   N424    1.157   .     T
C425   N426    1.157   .     T
C427   N428    1.157   .     T
C429   N430    1.157   .     T
C431   N432    1.157   .     T
C433   O469    1.290   .     A
C433   O472    1.293   .     A
C433   C442    1.447   .     S
C434   O470    1.290   .     A
C434   C441    1.447   .     S
C434   O471    1.293   .     A
C435   C460    1.405   .     A
C435   H465    1.083   .     S
C435   C1109   1.382   1_554 S
C436   H466    1.083   .     S
C436   C459    1.405   .     A
C436   C1110   1.382   .     S
C437   C489    1.456   .     S
C437   C442    1.411   .     A
C437   C583    1.382   1_455 S
C438   C441    1.411   .     A
C438   C491    1.456   .     S
C438   C512    1.382   .     S
C439   C441    1.412   .     A
C439   C493    1.454   .     S
C439   C509    1.382   .     S
C440   C442    1.412   .     A
C440   C495    1.454   .     S
C440   C582    1.382   1_455 S
C443   C497    1.442   .     S
C443   N468    1.369   .     A
C444   C499    1.442   .     S
C444   N467    1.369   .     A
C444   C13     1.424   1_565 S
C445   C501    1.442   .     S
C445   N468    1.369   .     A
C446   C503    1.442   .     S
C446   N467    1.369   .     A
C446   C11     1.424   1_565 S
C447   O476    1.284   .     A
C447   O473    1.284   .     A
C447   C452    1.423   .     S
C448   O475    1.284   .     A
C448   C451    1.423   .     S
C448   O474    1.284   .     A
C449   C451    1.401   .     A
C449   C459    1.398   .     A
C449   C479    1.455   .     S
C450   C452    1.401   .     A
C450   C460    1.398   .     A
C450   C481    1.455   .     S
C451   C453    1.400   .     A
C452   C454    1.400   .     A
C453   C455    1.392   .     A
C453   N483    1.440   .     S
C454   N486    1.440   .     S
C454   C456    1.392   .     A
C455   C457    1.416   .     A
C455   C461    1.401   .     A
C456   C458    1.416   .     A
C456   C462    1.401   .     A
C457   C459    1.418   .     A
C457   C1106   1.403   .     S
C458   C460    1.418   .     A
C458   C1105   1.403   1_554 S
C461   H463    1.083   .     S
C461   C1083   1.382   .     S
C462   H464    1.083   .     S
C462   C1084   1.382   1_554 S
N467   Zn477   2.016   .     S
N468   Zn478   2.016   .     S
O469   Zn477   2.020   .     S
O470   Zn478   2.020   .     S
O471   Zn477   2.008   .     S
O472   Zn478   2.008   .     S
O473   Zn477   2.012   .     S
O474   Zn478   2.012   .     S
O475   Zn477   2.010   .     S
O476   Zn478   2.010   .     S
C479   N480    1.158   .     T
C481   N482    1.158   .     T
N483   H485    1.046   .     S
N483   H484    1.046   .     S
N486   H488    1.046   .     S
N486   H487    1.046   .     S
C489   N490    1.157   .     T
C491   N492    1.157   .     T
C493   N494    1.157   .     T
C495   N496    1.157   .     T
C497   N498    1.157   .     T
C499   N500    1.157   .     T
C501   N502    1.157   .     T
C503   N504    1.157   .     T
C505   O541    1.290   .     A
C505   O544    1.293   .     A
C505   C514    1.447   .     S
C506   O542    1.290   .     A
C506   C513    1.447   .     S
C506   O543    1.293   .     A
C507   C532    1.405   .     A
C507   H537    1.083   .     S
C507   C1181   1.382   1_554 S
C508   H538    1.083   .     S
C508   C531    1.405   .     A
C508   C1182   1.382   .     S
C509   C561    1.456   .     S
C509   C514    1.411   .     A
C510   C513    1.411   .     A
C510   C563    1.456   .     S
C510   C584    1.382   .     S
C511   C513    1.412   .     A
C511   C565    1.454   .     S
C511   C581    1.382   .     S
C512   C514    1.412   .     A
C512   C567    1.454   .     S
C515   C569    1.442   .     S
C515   N540    1.369   .     A
C516   C571    1.442   .     S
C516   N539    1.369   .     A
C516   C85     1.424   1_565 S
C517   C573    1.442   .     S
C517   N540    1.369   .     A
C518   C575    1.442   .     S
C518   N539    1.369   .     A
C518   C83     1.424   1_565 S
C519   O548    1.284   .     A
C519   O545    1.284   .     A
C519   C524    1.423   .     S
C520   O547    1.284   .     A
C520   C523    1.423   .     S
C520   O546    1.284   .     A
C521   C523    1.401   .     A
C521   C531    1.398   .     A
C521   C551    1.455   .     S
C522   C524    1.401   .     A
C522   C532    1.398   .     A
C522   C553    1.455   .     S
C523   C525    1.400   .     A
C524   C526    1.400   .     A
C525   C527    1.392   .     A
C525   N555    1.440   .     S
C526   N558    1.440   .     S
C526   C528    1.392   .     A
C527   C529    1.416   .     A
C527   C533    1.401   .     A
C528   C530    1.416   .     A
C528   C534    1.401   .     A
C529   C531    1.418   .     A
C529   C1178   1.403   .     S
C530   C532    1.418   .     A
C530   C1177   1.403   1_554 S
C533   H535    1.083   .     S
C533   C1155   1.382   .     S
C534   H536    1.083   .     S
C534   C1156   1.382   1_554 S
N539   Zn549   2.016   .     S
N540   Zn550   2.016   .     S
O541   Zn549   2.020   .     S
O542   Zn550   2.020   .     S
O543   Zn549   2.008   .     S
O544   Zn550   2.008   .     S
O545   Zn549   2.012   .     S
O546   Zn550   2.012   .     S
O547   Zn549   2.010   .     S
O548   Zn550   2.010   .     S
C551   N552    1.158   .     T
C553   N554    1.158   .     T
N555   H557    1.046   .     S
N555   H556    1.046   .     S
N558   H560    1.046   .     S
N558   H559    1.046   .     S
C561   N562    1.157   .     T
C563   N564    1.157   .     T
C565   N566    1.157   .     T
C567   N568    1.157   .     T
C569   N570    1.157   .     T
C571   N572    1.157   .     T
C573   N574    1.157   .     T
C575   N576    1.157   .     T
C577   O613    1.290   .     A
C577   O616    1.293   .     A
C577   C586    1.447   .     S
C578   O614    1.290   .     A
C578   C585    1.447   .     S
C578   O615    1.293   .     A
C579   C604    1.405   .     A
C579   H609    1.083   .     S
C579   C1253   1.382   1_554 S
C580   H610    1.083   .     S
C580   C603    1.405   .     A
C580   C1254   1.382   .     S
C581   C633    1.456   .     S
C581   C586    1.411   .     A
C582   C585    1.411   .     A
C582   C635    1.456   .     S
C582   C440    1.382   1_655 S
C583   C585    1.412   .     A
C583   C637    1.454   .     S
C583   C437    1.382   1_655 S
C584   C586    1.412   .     A
C584   C639    1.454   .     S
C587   C641    1.442   .     S
C587   N612    1.369   .     A
C588   C643    1.442   .     S
C588   N611    1.369   .     A
C588   C157    1.424   1_565 S
C589   C645    1.442   .     S
C589   N612    1.369   .     A
C590   C647    1.442   .     S
C590   N611    1.369   .     A
C590   C155    1.424   1_565 S
C591   O620    1.284   .     A
C591   O617    1.284   .     A
C591   C596    1.423   .     S
C592   O619    1.284   .     A
C592   C595    1.423   .     S
C592   O618    1.284   .     A
C593   C595    1.401   .     A
C593   C603    1.398   .     A
C593   C623    1.455   .     S
C594   C596    1.401   .     A
C594   C604    1.398   .     A
C594   C625    1.455   .     S
C595   C597    1.400   .     A
C596   C598    1.400   .     A
C597   C599    1.392   .     A
C597   N627    1.440   .     S
C598   N630    1.440   .     S
C598   C600    1.392   .     A
C599   C601    1.416   .     A
C599   C605    1.401   .     A
C600   C602    1.416   .     A
C600   C606    1.401   .     A
C601   C603    1.418   .     A
C601   C1250   1.403   .     S
C602   C604    1.418   .     A
C602   C1249   1.403   1_554 S
C605   H607    1.083   .     S
C605   C1227   1.382   .     S
C606   H608    1.083   .     S
C606   C1228   1.382   1_554 S
N611   Zn621   2.016   .     S
N612   Zn622   2.016   .     S
O613   Zn621   2.020   .     S
O614   Zn622   2.020   .     S
O615   Zn621   2.008   .     S
O616   Zn622   2.008   .     S
O617   Zn621   2.012   .     S
O618   Zn622   2.012   .     S
O619   Zn621   2.010   .     S
O620   Zn622   2.010   .     S
C623   N624    1.158   .     T
C625   N626    1.158   .     T
N627   H629    1.046   .     S
N627   H628    1.046   .     S
N630   H632    1.046   .     S
N630   H631    1.046   .     S
C633   N634    1.157   .     T
C635   N636    1.157   .     T
C637   N638    1.157   .     T
C639   N640    1.157   .     T
C641   N642    1.157   .     T
C643   N644    1.157   .     T
C645   N646    1.157   .     T
C647   N648    1.157   .     T
C649   O685    1.290   .     A
C649   O688    1.293   .     A
C649   C658    1.447   .     S
C650   O686    1.290   .     A
C650   C657    1.447   .     S
C650   O687    1.293   .     A
C651   C676    1.405   .     A
C651   H681    1.083   .     S
C652   H682    1.083   .     S
C652   C675    1.405   .     A
C652   C30     1.382   1_556 S
C653   C705    1.456   .     S
C653   C658    1.411   .     A
C653   C799    1.382   1_455 S
C654   C657    1.411   .     A
C654   C707    1.456   .     S
C654   C728    1.382   .     S
C655   C657    1.412   .     A
C655   C709    1.454   .     S
C655   C725    1.382   .     S
C656   C658    1.412   .     A
C656   C711    1.454   .     S
C656   C798    1.382   1_455 S
C659   C713    1.442   .     S
C659   N684    1.369   .     A
C659   C1094   1.424   1_545 S
C660   C715    1.442   .     S
C660   N683    1.369   .     A
C660   C877    1.424   .     S
C661   C717    1.442   .     S
C661   N684    1.369   .     A
C661   C1092   1.424   1_545 S
C662   C719    1.442   .     S
C662   N683    1.369   .     A
C662   C875    1.424   .     S
C663   O692    1.284   .     A
C663   O689    1.284   .     A
C663   C668    1.423   .     S
C664   O691    1.284   .     A
C664   C667    1.423   .     S
C664   O690    1.284   .     A
C665   C667    1.401   .     A
C665   C675    1.398   .     A
C665   C695    1.455   .     S
C666   C668    1.401   .     A
C666   C676    1.398   .     A
C666   C697    1.455   .     S
C667   C669    1.400   .     A
C668   C670    1.400   .     A
C669   C671    1.392   .     A
C669   N699    1.440   .     S
C670   N702    1.440   .     S
C670   C672    1.392   .     A
C671   C673    1.416   .     A
C671   C677    1.401   .     A
C672   C674    1.416   .     A
C672   C678    1.401   .     A
C673   C675    1.418   .     A
C673   C26     1.403   1_556 S
C674   C676    1.418   .     A
C677   H679    1.083   .     S
C677   C3      1.382   1_556 S
C678   H680    1.083   .     S
N683   Zn693   2.016   .     S
N684   Zn694   2.016   .     S
O685   Zn693   2.020   .     S
O686   Zn694   2.020   .     S
O687   Zn693   2.008   .     S
O688   Zn694   2.008   .     S
O689   Zn693   2.012   .     S
O690   Zn694   2.012   .     S
O691   Zn693   2.010   .     S
O692   Zn694   2.010   .     S
C695   N696    1.158   .     T
C697   N698    1.158   .     T
N699   H701    1.046   .     S
N699   H700    1.046   .     S
N702   H704    1.046   .     S
N702   H703    1.046   .     S
C705   N706    1.157   .     T
C707   N708    1.157   .     T
C709   N710    1.157   .     T
C711   N712    1.157   .     T
C713   N714    1.157   .     T
C715   N716    1.157   .     T
C717   N718    1.157   .     T
C719   N720    1.157   .     T
C721   O757    1.290   .     A
C721   O760    1.293   .     A
C721   C730    1.447   .     S
C722   O758    1.290   .     A
C722   C729    1.447   .     S
C722   O759    1.293   .     A
C723   C748    1.405   .     A
C723   H753    1.083   .     S
C724   H754    1.083   .     S
C724   C747    1.405   .     A
C724   C102    1.382   1_556 S
C725   C777    1.456   .     S
C725   C730    1.411   .     A
C726   C729    1.411   .     A
C726   C779    1.456   .     S
C726   C800    1.382   .     S
C727   C729    1.412   .     A
C727   C781    1.454   .     S
C727   C797    1.382   .     S
C728   C730    1.412   .     A
C728   C783    1.454   .     S
C731   C785    1.442   .     S
C731   N756    1.369   .     A
C731   C1166   1.424   1_545 S
C732   C787    1.442   .     S
C732   N755    1.369   .     A
C732   C949    1.424   .     S
C733   C789    1.442   .     S
C733   N756    1.369   .     A
C733   C1164   1.424   1_545 S
C734   C791    1.442   .     S
C734   N755    1.369   .     A
C734   C947    1.424   .     S
C735   O764    1.284   .     A
C735   O761    1.284   .     A
C735   C740    1.423   .     S
C736   O763    1.284   .     A
C736   C739    1.423   .     S
C736   O762    1.284   .     A
C737   C739    1.401   .     A
C737   C747    1.398   .     A
C737   C767    1.455   .     S
C738   C740    1.401   .     A
C738   C748    1.398   .     A
C738   C769    1.455   .     S
C739   C741    1.400   .     A
C740   C742    1.400   .     A
C741   C743    1.392   .     A
C741   N771    1.440   .     S
C742   N774    1.440   .     S
C742   C744    1.392   .     A
C743   C745    1.416   .     A
C743   C749    1.401   .     A
C744   C746    1.416   .     A
C744   C750    1.401   .     A
C745   C747    1.418   .     A
C745   C98     1.403   1_556 S
C746   C748    1.418   .     A
C749   H751    1.083   .     S
C749   C75     1.382   1_556 S
C750   H752    1.083   .     S
N755   Zn765   2.016   .     S
N756   Zn766   2.016   .     S
O757   Zn765   2.020   .     S
O758   Zn766   2.020   .     S
O759   Zn765   2.008   .     S
O760   Zn766   2.008   .     S
O761   Zn765   2.012   .     S
O762   Zn766   2.012   .     S
O763   Zn765   2.010   .     S
O764   Zn766   2.010   .     S
C767   N768    1.158   .     T
C769   N770    1.158   .     T
N771   H773    1.046   .     S
N771   H772    1.046   .     S
N774   H776    1.046   .     S
N774   H775    1.046   .     S
C777   N778    1.157   .     T
C779   N780    1.157   .     T
C781   N782    1.157   .     T
C783   N784    1.157   .     T
C785   N786    1.157   .     T
C787   N788    1.157   .     T
C789   N790    1.157   .     T
C791   N792    1.157   .     T
C793   O829    1.290   .     A
C793   O832    1.293   .     A
C793   C802    1.447   .     S
C794   O830    1.290   .     A
C794   C801    1.447   .     S
C794   O831    1.293   .     A
C795   C820    1.405   .     A
C795   H825    1.083   .     S
C796   H826    1.083   .     S
C796   C819    1.405   .     A
C796   C174    1.382   1_556 S
C797   C849    1.456   .     S
C797   C802    1.411   .     A
C798   C801    1.411   .     A
C798   C851    1.456   .     S
C798   C656    1.382   1_655 S
C799   C801    1.412   .     A
C799   C853    1.454   .     S
C799   C653    1.382   1_655 S
C800   C802    1.412   .     A
C800   C855    1.454   .     S
C803   C857    1.442   .     S
C803   N828    1.369   .     A
C803   C1238   1.424   1_545 S
C804   C859    1.442   .     S
C804   N827    1.369   .     A
C804   C1021   1.424   .     S
C805   C861    1.442   .     S
C805   N828    1.369   .     A
C805   C1236   1.424   1_545 S
C806   C863    1.442   .     S
C806   N827    1.369   .     A
C806   C1019   1.424   .     S
C807   O836    1.284   .     A
C807   O833    1.284   .     A
C807   C812    1.423   .     S
C808   O835    1.284   .     A
C808   C811    1.423   .     S
C808   O834    1.284   .     A
C809   C811    1.401   .     A
C809   C819    1.398   .     A
C809   C839    1.455   .     S
C810   C812    1.401   .     A
C810   C820    1.398   .     A
C810   C841    1.455   .     S
C811   C813    1.400   .     A
C812   C814    1.400   .     A
C813   C815    1.392   .     A
C813   N843    1.440   .     S
C814   N846    1.440   .     S
C814   C816    1.392   .     A
C815   C817    1.416   .     A
C815   C821    1.401   .     A
C816   C818    1.416   .     A
C816   C822    1.401   .     A
C817   C819    1.418   .     A
C817   C170    1.403   1_556 S
C818   C820    1.418   .     A
C821   H823    1.083   .     S
C821   C147    1.382   1_556 S
C822   H824    1.083   .     S
N827   Zn837   2.016   .     S
N828   Zn838   2.016   .     S
O829   Zn837   2.020   .     S
O830   Zn838   2.020   .     S
O831   Zn837   2.008   .     S
O832   Zn838   2.008   .     S
O833   Zn837   2.012   .     S
O834   Zn838   2.012   .     S
O835   Zn837   2.010   .     S
O836   Zn838   2.010   .     S
C839   N840    1.158   .     T
C841   N842    1.158   .     T
N843   H845    1.046   .     S
N843   H844    1.046   .     S
N846   H848    1.046   .     S
N846   H847    1.046   .     S
C849   N850    1.157   .     T
C851   N852    1.157   .     T
C853   N854    1.157   .     T
C855   N856    1.157   .     T
C857   N858    1.157   .     T
C859   N860    1.157   .     T
C861   N862    1.157   .     T
C863   N864    1.157   .     T
C865   O901    1.290   .     A
C865   O904    1.293   .     A
C865   C874    1.447   .     S
C866   O902    1.290   .     A
C866   C873    1.447   .     S
C866   O903    1.293   .     A
C867   C892    1.405   .     A
C867   H897    1.083   .     S
C868   H898    1.083   .     S
C868   C891    1.405   .     A
C868   C246    1.382   1_556 S
C869   C921    1.456   .     S
C869   C874    1.411   .     A
C869   C1015   1.382   1_455 S
C870   C873    1.411   .     A
C870   C923    1.456   .     S
C870   C944    1.382   .     S
C871   C873    1.412   .     A
C871   C925    1.454   .     S
C871   C941    1.382   .     S
C872   C874    1.412   .     A
C872   C927    1.454   .     S
C872   C1014   1.382   1_455 S
C875   C929    1.442   .     S
C875   N900    1.369   .     A
C876   C931    1.442   .     S
C876   N899    1.369   .     A
C876   C1093   1.424   .     S
C877   C933    1.442   .     S
C877   N900    1.369   .     A
C878   C935    1.442   .     S
C878   N899    1.369   .     A
C878   C1091   1.424   .     S
C879   O908    1.284   .     A
C879   O905    1.284   .     A
C879   C884    1.423   .     S
C880   O907    1.284   .     A
C880   C883    1.423   .     S
C880   O906    1.284   .     A
C881   C883    1.401   .     A
C881   C891    1.398   .     A
C881   C911    1.455   .     S
C882   C884    1.401   .     A
C882   C892    1.398   .     A
C882   C913    1.455   .     S
C883   C885    1.400   .     A
C884   C886    1.400   .     A
C885   C887    1.392   .     A
C885   N915    1.440   .     S
C886   N918    1.440   .     S
C886   C888    1.392   .     A
C887   C889    1.416   .     A
C887   C893    1.401   .     A
C888   C890    1.416   .     A
C888   C894    1.401   .     A
C889   C891    1.418   .     A
C889   C242    1.403   1_556 S
C890   C892    1.418   .     A
C893   H895    1.083   .     S
C893   C219    1.382   1_556 S
C894   H896    1.083   .     S
N899   Zn909   2.016   .     S
N900   Zn910   2.016   .     S
O901   Zn909   2.020   .     S
O902   Zn910   2.020   .     S
O903   Zn909   2.008   .     S
O904   Zn910   2.008   .     S
O905   Zn909   2.012   .     S
O906   Zn910   2.012   .     S
O907   Zn909   2.010   .     S
O908   Zn910   2.010   .     S
C911   N912    1.158   .     T
C913   N914    1.158   .     T
N915   H917    1.046   .     S
N915   H916    1.046   .     S
N918   H920    1.046   .     S
N918   H919    1.046   .     S
C921   N922    1.157   .     T
C923   N924    1.157   .     T
C925   N926    1.157   .     T
C927   N928    1.157   .     T
C929   N930    1.157   .     T
C931   N932    1.157   .     T
C933   N934    1.157   .     T
C935   N936    1.157   .     T
C937   O973    1.290   .     A
C937   O976    1.293   .     A
C937   C946    1.447   .     S
C938   O974    1.290   .     A
C938   C945    1.447   .     S
C938   O975    1.293   .     A
C939   C964    1.405   .     A
C939   H969    1.083   .     S
C940   H970    1.083   .     S
C940   C963    1.405   .     A
C940   C318    1.382   1_556 S
C941   C993    1.456   .     S
C941   C946    1.411   .     A
C942   C945    1.411   .     A
C942   C995    1.456   .     S
C942   C1016   1.382   .     S
C943   C945    1.412   .     A
C943   C997    1.454   .     S
C943   C1013   1.382   .     S
C944   C946    1.412   .     A
C944   C999    1.454   .     S
C947   C1001   1.442   .     S
C947   N972    1.369   .     A
C948   C1003   1.442   .     S
C948   N971    1.369   .     A
C948   C1165   1.424   .     S
C949   C1005   1.442   .     S
C949   N972    1.369   .     A
C950   C1007   1.442   .     S
C950   N971    1.369   .     A
C950   C1163   1.424   .     S
C951   O980    1.284   .     A
C951   O977    1.284   .     A
C951   C956    1.423   .     S
C952   O979    1.284   .     A
C952   C955    1.423   .     S
C952   O978    1.284   .     A
C953   C955    1.401   .     A
C953   C963    1.398   .     A
C953   C983    1.455   .     S
C954   C956    1.401   .     A
C954   C964    1.398   .     A
C954   C985    1.455   .     S
C955   C957    1.400   .     A
C956   C958    1.400   .     A
C957   C959    1.392   .     A
C957   N987    1.440   .     S
C958   N990    1.440   .     S
C958   C960    1.392   .     A
C959   C961    1.416   .     A
C959   C965    1.401   .     A
C960   C962    1.416   .     A
C960   C966    1.401   .     A
C961   C963    1.418   .     A
C961   C314    1.403   1_556 S
C962   C964    1.418   .     A
C965   H967    1.083   .     S
C965   C291    1.382   1_556 S
C966   H968    1.083   .     S
N971   Zn981   2.016   .     S
N972   Zn982   2.016   .     S
O973   Zn981   2.020   .     S
O974   Zn982   2.020   .     S
O975   Zn981   2.008   .     S
O976   Zn982   2.008   .     S
O977   Zn981   2.012   .     S
O978   Zn982   2.012   .     S
O979   Zn981   2.010   .     S
O980   Zn982   2.010   .     S
C983   N984    1.158   .     T
C985   N986    1.158   .     T
N987   H989    1.046   .     S
N987   H988    1.046   .     S
N990   H992    1.046   .     S
N990   H991    1.046   .     S
C993   N994    1.157   .     T
C995   N996    1.157   .     T
C997   N998    1.157   .     T
C999   N1000   1.157   .     T
C1001  N1002   1.157   .     T
C1003  N1004   1.157   .     T
C1005  N1006   1.157   .     T
C1007  N1008   1.157   .     T
C1009  O1045   1.290   .     A
C1009  O1048   1.293   .     A
C1009  C1018   1.447   .     S
C1010  O1046   1.290   .     A
C1010  C1017   1.447   .     S
C1010  O1047   1.293   .     A
C1011  C1036   1.405   .     A
C1011  H1041   1.083   .     S
C1012  H1042   1.083   .     S
C1012  C1035   1.405   .     A
C1012  C390    1.382   1_556 S
C1013  C1065   1.456   .     S
C1013  C1018   1.411   .     A
C1014  C1017   1.411   .     A
C1014  C1067   1.456   .     S
C1014  C872    1.382   1_655 S
C1015  C1017   1.412   .     A
C1015  C1069   1.454   .     S
C1015  C869    1.382   1_655 S
C1016  C1018   1.412   .     A
C1016  C1071   1.454   .     S
C1019  C1073   1.442   .     S
C1019  N1044   1.369   .     A
C1020  C1075   1.442   .     S
C1020  N1043   1.369   .     A
C1020  C1237   1.424   .     S
C1021  C1077   1.442   .     S
C1021  N1044   1.369   .     A
C1022  C1079   1.442   .     S
C1022  N1043   1.369   .     A
C1022  C1235   1.424   .     S
C1023  O1052   1.284   .     A
C1023  O1049   1.284   .     A
C1023  C1028   1.423   .     S
C1024  O1051   1.284   .     A
C1024  C1027   1.423   .     S
C1024  O1050   1.284   .     A
C1025  C1027   1.401   .     A
C1025  C1035   1.398   .     A
C1025  C1055   1.455   .     S
C1026  C1028   1.401   .     A
C1026  C1036   1.398   .     A
C1026  C1057   1.455   .     S
C1027  C1029   1.400   .     A
C1028  C1030   1.400   .     A
C1029  C1031   1.392   .     A
C1029  N1059   1.440   .     S
C1030  N1062   1.440   .     S
C1030  C1032   1.392   .     A
C1031  C1033   1.416   .     A
C1031  C1037   1.401   .     A
C1032  C1034   1.416   .     A
C1032  C1038   1.401   .     A
C1033  C1035   1.418   .     A
C1033  C386    1.403   1_556 S
C1034  C1036   1.418   .     A
C1037  H1039   1.083   .     S
C1037  C363    1.382   1_556 S
C1038  H1040   1.083   .     S
N1043  Zn1053  2.016   .     S
N1044  Zn1054  2.016   .     S
O1045  Zn1053  2.020   .     S
O1046  Zn1054  2.020   .     S
O1047  Zn1053  2.008   .     S
O1048  Zn1054  2.008   .     S
O1049  Zn1053  2.012   .     S
O1050  Zn1054  2.012   .     S
O1051  Zn1053  2.010   .     S
O1052  Zn1054  2.010   .     S
C1055  N1056   1.158   .     T
C1057  N1058   1.158   .     T
N1059  H1061   1.046   .     S
N1059  H1060   1.046   .     S
N1062  H1064   1.046   .     S
N1062  H1063   1.046   .     S
C1065  N1066   1.157   .     T
C1067  N1068   1.157   .     T
C1069  N1070   1.157   .     T
C1071  N1072   1.157   .     T
C1073  N1074   1.157   .     T
C1075  N1076   1.157   .     T
C1077  N1078   1.157   .     T
C1079  N1080   1.157   .     T
C1081  O1117   1.290   .     A
C1081  O1120   1.293   .     A
C1081  C1090   1.447   .     S
C1082  O1118   1.290   .     A
C1082  C1089   1.447   .     S
C1082  O1119   1.293   .     A
C1083  C1108   1.405   .     A
C1083  H1113   1.083   .     S
C1084  H1114   1.083   .     S
C1084  C1107   1.405   .     A
C1084  C462    1.382   1_556 S
C1085  C1137   1.456   .     S
C1085  C1090   1.411   .     A
C1085  C1231   1.382   1_455 S
C1086  C1089   1.411   .     A
C1086  C1139   1.456   .     S
C1086  C1160   1.382   .     S
C1087  C1089   1.412   .     A
C1087  C1141   1.454   .     S
C1087  C1157   1.382   .     S
C1088  C1090   1.412   .     A
C1088  C1143   1.454   .     S
C1088  C1230   1.382   1_455 S
C1091  C1145   1.442   .     S
C1091  N1116   1.369   .     A
C1092  C1147   1.442   .     S
C1092  N1115   1.369   .     A
C1092  C661    1.424   1_565 S
C1093  C1149   1.442   .     S
C1093  N1116   1.369   .     A
C1094  C1151   1.442   .     S
C1094  N1115   1.369   .     A
C1094  C659    1.424   1_565 S
C1095  O1124   1.284   .     A
C1095  O1121   1.284   .     A
C1095  C1100   1.423   .     S
C1096  O1123   1.284   .     A
C1096  C1099   1.423   .     S
C1096  O1122   1.284   .     A
C1097  C1099   1.401   .     A
C1097  C1107   1.398   .     A
C1097  C1127   1.455   .     S
C1098  C1100   1.401   .     A
C1098  C1108   1.398   .     A
C1098  C1129   1.455   .     S
C1099  C1101   1.400   .     A
C1100  C1102   1.400   .     A
C1101  C1103   1.392   .     A
C1101  N1131   1.440   .     S
C1102  N1134   1.440   .     S
C1102  C1104   1.392   .     A
C1103  C1105   1.416   .     A
C1103  C1109   1.401   .     A
C1104  C1106   1.416   .     A
C1104  C1110   1.401   .     A
C1105  C1107   1.418   .     A
C1105  C458    1.403   1_556 S
C1106  C1108   1.418   .     A
C1109  H1111   1.083   .     S
C1109  C435    1.382   1_556 S
C1110  H1112   1.083   .     S
N1115  Zn1125  2.016   .     S
N1116  Zn1126  2.016   .     S
O1117  Zn1125  2.020   .     S
O1118  Zn1126  2.020   .     S
O1119  Zn1125  2.008   .     S
O1120  Zn1126  2.008   .     S
O1121  Zn1125  2.012   .     S
O1122  Zn1126  2.012   .     S
O1123  Zn1125  2.010   .     S
O1124  Zn1126  2.010   .     S
C1127  N1128   1.158   .     T
C1129  N1130   1.158   .     T
N1131  H1133   1.046   .     S
N1131  H1132   1.046   .     S
N1134  H1136   1.046   .     S
N1134  H1135   1.046   .     S
C1137  N1138   1.157   .     T
C1139  N1140   1.157   .     T
C1141  N1142   1.157   .     T
C1143  N1144   1.157   .     T
C1145  N1146   1.157   .     T
C1147  N1148   1.157   .     T
C1149  N1150   1.157   .     T
C1151  N1152   1.157   .     T
C1153  O1189   1.290   .     A
C1153  O1192   1.293   .     A
C1153  C1162   1.447   .     S
C1154  O1190   1.290   .     A
C1154  C1161   1.447   .     S
C1154  O1191   1.293   .     A
C1155  C1180   1.405   .     A
C1155  H1185   1.083   .     S
C1156  H1186   1.083   .     S
C1156  C1179   1.405   .     A
C1156  C534    1.382   1_556 S
C1157  C1209   1.456   .     S
C1157  C1162   1.411   .     A
C1158  C1161   1.411   .     A
C1158  C1211   1.456   .     S
C1158  C1232   1.382   .     S
C1159  C1161   1.412   .     A
C1159  C1213   1.454   .     S
C1159  C1229   1.382   .     S
C1160  C1162   1.412   .     A
C1160  C1215   1.454   .     S
C1163  C1217   1.442   .     S
C1163  N1188   1.369   .     A
C1164  C1219   1.442   .     S
C1164  N1187   1.369   .     A
C1164  C733    1.424   1_565 S
C1165  C1221   1.442   .     S
C1165  N1188   1.369   .     A
C1166  C1223   1.442   .     S
C1166  N1187   1.369   .     A
C1166  C731    1.424   1_565 S
C1167  O1196   1.284   .     A
C1167  O1193   1.284   .     A
C1167  C1172   1.423   .     S
C1168  O1195   1.284   .     A
C1168  C1171   1.423   .     S
C1168  O1194   1.284   .     A
C1169  C1171   1.401   .     A
C1169  C1179   1.398   .     A
C1169  C1199   1.455   .     S
C1170  C1172   1.401   .     A
C1170  C1180   1.398   .     A
C1170  C1201   1.455   .     S
C1171  C1173   1.400   .     A
C1172  C1174   1.400   .     A
C1173  C1175   1.392   .     A
C1173  N1203   1.440   .     S
C1174  N1206   1.440   .     S
C1174  C1176   1.392   .     A
C1175  C1177   1.416   .     A
C1175  C1181   1.401   .     A
C1176  C1178   1.416   .     A
C1176  C1182   1.401   .     A
C1177  C1179   1.418   .     A
C1177  C530    1.403   1_556 S
C1178  C1180   1.418   .     A
C1181  H1183   1.083   .     S
C1181  C507    1.382   1_556 S
C1182  H1184   1.083   .     S
N1187  Zn1197  2.016   .     S
N1188  Zn1198  2.016   .     S
O1189  Zn1197  2.020   .     S
O1190  Zn1198  2.020   .     S
O1191  Zn1197  2.008   .     S
O1192  Zn1198  2.008   .     S
O1193  Zn1197  2.012   .     S
O1194  Zn1198  2.012   .     S
O1195  Zn1197  2.010   .     S
O1196  Zn1198  2.010   .     S
C1199  N1200   1.158   .     T
C1201  N1202   1.158   .     T
N1203  H1205   1.046   .     S
N1203  H1204   1.046   .     S
N1206  H1208   1.046   .     S
N1206  H1207   1.046   .     S
C1209  N1210   1.157   .     T
C1211  N1212   1.157   .     T
C1213  N1214   1.157   .     T
C1215  N1216   1.157   .     T
C1217  N1218   1.157   .     T
C1219  N1220   1.157   .     T
C1221  N1222   1.157   .     T
C1223  N1224   1.157   .     T
C1225  O1261   1.290   .     A
C1225  O1264   1.293   .     A
C1225  C1234   1.447   .     S
C1226  O1262   1.290   .     A
C1226  C1233   1.447   .     S
C1226  O1263   1.293   .     A
C1227  C1252   1.405   .     A
C1227  H1257   1.083   .     S
C1228  H1258   1.083   .     S
C1228  C1251   1.405   .     A
C1228  C606    1.382   1_556 S
C1229  C1281   1.456   .     S
C1229  C1234   1.411   .     A
C1230  C1233   1.411   .     A
C1230  C1283   1.456   .     S
C1230  C1088   1.382   1_655 S
C1231  C1233   1.412   .     A
C1231  C1285   1.454   .     S
C1231  C1085   1.382   1_655 S
C1232  C1234   1.412   .     A
C1232  C1287   1.454   .     S
C1235  C1289   1.442   .     S
C1235  N1260   1.369   .     A
C1236  C1291   1.442   .     S
C1236  N1259   1.369   .     A
C1236  C805    1.424   1_565 S
C1237  C1293   1.442   .     S
C1237  N1260   1.369   .     A
C1238  C1295   1.442   .     S
C1238  N1259   1.369   .     A
C1238  C803    1.424   1_565 S
C1239  O1268   1.284   .     A
C1239  O1265   1.284   .     A
C1239  C1244   1.423   .     S
C1240  O1267   1.284   .     A
C1240  C1243   1.423   .     S
C1240  O1266   1.284   .     A
C1241  C1243   1.401   .     A
C1241  C1251   1.398   .     A
C1241  C1271   1.455   .     S
C1242  C1244   1.401   .     A
C1242  C1252   1.398   .     A
C1242  C1273   1.455   .     S
C1243  C1245   1.400   .     A
C1244  C1246   1.400   .     A
C1245  C1247   1.392   .     A
C1245  N1275   1.440   .     S
C1246  N1278   1.440   .     S
C1246  C1248   1.392   .     A
C1247  C1249   1.416   .     A
C1247  C1253   1.401   .     A
C1248  C1250   1.416   .     A
C1248  C1254   1.401   .     A
C1249  C1251   1.418   .     A
C1249  C602    1.403   1_556 S
C1250  C1252   1.418   .     A
C1253  H1255   1.083   .     S
C1253  C579    1.382   1_556 S
C1254  H1256   1.083   .     S
N1259  Zn1269  2.016   .     S
N1260  Zn1270  2.016   .     S
O1261  Zn1269  2.020   .     S
O1262  Zn1270  2.020   .     S
O1263  Zn1269  2.008   .     S
O1264  Zn1270  2.008   .     S
O1265  Zn1269  2.012   .     S
O1266  Zn1270  2.012   .     S
O1267  Zn1269  2.010   .     S
O1268  Zn1270  2.010   .     S
C1271  N1272   1.158   .     T
C1273  N1274   1.158   .     T
N1275  H1277   1.046   .     S
N1275  H1276   1.046   .     S
N1278  H1280   1.046   .     S
N1278  H1279   1.046   .     S
C1281  N1282   1.157   .     T
C1283  N1284   1.157   .     T
C1285  N1286   1.157   .     T
C1287  N1288   1.157   .     T
C1289  N1290   1.157   .     T
C1291  N1292   1.157   .     T
C1293  N1294   1.157   .     T
C1295  N1296   1.157   .     T
