data_str_m3_o10_o17_pcu_sym.59
_audit_creation_date              2020-01-03
_audit_creation_method            'Materials Studio'
_symmetry_space_group_name_H-M    'P1'
_symmetry_Int_Tables_number       1
_symmetry_cell_setting            triclinic
loop_
_symmetry_equiv_pos_as_xyz
  x,y,z
_cell_length_a                    23.5940
_cell_length_b                    25.9194
_cell_length_c                    29.6967
_cell_angle_alpha                 93.1003
_cell_angle_beta                  85.2874
_cell_angle_gamma                 93.5950
loop_
_atom_site_label
_atom_site_type_symbol
_atom_site_fract_x
_atom_site_fract_y
_atom_site_fract_z
_atom_site_U_iso_or_equiv
_atom_site_adp_type
_atom_site_occupancy
C1     C     0.18149   0.26469   0.24912   0.00000  Uiso   1.00
C2     C     0.18772   0.21166   0.40862   0.00000  Uiso   1.00
C3     C     0.16428   0.16533   0.11502   0.00000  Uiso   1.00
C4     C     0.16485   0.16818   0.38500   0.00000  Uiso   1.00
C5     C     0.19240   0.20587   0.09182   0.00000  Uiso   1.00
C6     C     0.12884   0.13078   0.40678   0.00000  Uiso   1.00
C7     C     0.17799   0.21424   0.04833   0.00000  Uiso   1.00
C8     C     0.11684   0.13606   0.45374   0.00000  Uiso   1.00
C9     C     0.14620   0.17438   0.02512   0.00000  Uiso   1.00
C10    C     0.14552   0.17618   0.47817   0.00000  Uiso   1.00
C11    C     0.11911   0.13109   0.04779   0.00000  Uiso   1.00
C12    C     0.15181   0.06865   0.25103   0.00000  Uiso   1.00
C13    C     0.17494   0.21758   0.45546   0.00000  Uiso   1.00
C14    C     0.19208   0.26171   0.02745   0.00000  Uiso   1.00
C15    C     0.07723   0.10278   0.47721   0.00000  Uiso   1.00
C16    C     0.18865   0.26366   0.48066   0.00000  Uiso   1.00
C17    C     0.08223   0.09572   0.02323   0.00000  Uiso   1.00
C18    C     0.18776   0.31894   0.25571   0.00000  Uiso   1.00
C19    C     0.14528   0.01440   0.24491   0.00000  Uiso   1.00
C20    C     0.16691   0.16743   0.33653   0.00000  Uiso   1.00
C21    C     0.16628   0.16620   0.16342   0.00000  Uiso   1.00
C22    C     0.12864   0.12765   0.09395   0.00000  Uiso   1.00
Cl23   Cl    0.10380   0.07504   0.12694   0.00000  Uiso   1.00
Cl24   Cl    0.23956   0.25278   0.38004   0.00000  Uiso   1.00
Cl25   Cl    0.25285   0.23850   0.11472   0.00000  Uiso   1.00
Cl26   Cl    0.10921   0.07316   0.37504   0.00000  Uiso   1.00
Cl27   Cl    0.24511   0.00883   0.28812   0.00000  Uiso   1.00
Cl28   Cl    0.08694   0.32439   0.21358   0.00000  Uiso   1.00
Cl29   Cl    0.00945   0.09971   0.20785   0.00000  Uiso   1.00
Cl30   Cl    0.32410   0.23425   0.29132   0.00000  Uiso   1.00
I31    I     0.20454   0.33300   0.06662   0.00000  Uiso   1.00
I32    I     0.33178   0.08007   0.44807   0.00000  Uiso   1.00
I33    I     0.18446   0.00391   0.45174   0.00000  Uiso   1.00
I34    I     0.03408   0.02827   0.04782   0.00000  Uiso   1.00
N35    N     0.31678   0.15265   0.23783   0.00000  Uiso   1.00
N36    N     0.01656   0.18068   0.26217   0.00000  Uiso   1.00
O37    O     0.12975   0.24619   0.25299   0.00000  Uiso   1.00
O38    O     0.20358   0.08714   0.24702   0.00000  Uiso   1.00
O39    O     0.22613   0.23721   0.24519   0.00000  Uiso   1.00
O40    O     0.10720   0.09613   0.25482   0.00000  Uiso   1.00
O41    O     0.11847   0.17117   0.31998   0.00000  Uiso   1.00
O42    O     0.21486   0.16216   0.18003   0.00000  Uiso   1.00
O43    O     0.21485   0.16219   0.31218   0.00000  Uiso   1.00
O44    O     0.11848   0.17115   0.18783   0.00000  Uiso   1.00
Zn45   Zn    0.10231   0.17266   0.25521   0.00000  Uiso   1.00
Zn46   Zn    0.23102   0.16067   0.24479   0.00000  Uiso   1.00
C47    C     0.51482   0.26469   0.24912   0.00000  Uiso   1.00
C48    C     0.52105   0.21166   0.40862   0.00000  Uiso   1.00
C49    C     0.49762   0.16533   0.11502   0.00000  Uiso   1.00
C50    C     0.49819   0.16818   0.38500   0.00000  Uiso   1.00
C51    C     0.52574   0.20587   0.09182   0.00000  Uiso   1.00
C52    C     0.46217   0.13078   0.40678   0.00000  Uiso   1.00
C53    C     0.51132   0.21424   0.04833   0.00000  Uiso   1.00
C54    C     0.45018   0.13606   0.45374   0.00000  Uiso   1.00
C55    C     0.47953   0.17438   0.02512   0.00000  Uiso   1.00
C56    C     0.47886   0.17618   0.47817   0.00000  Uiso   1.00
C57    C     0.45245   0.13109   0.04779   0.00000  Uiso   1.00
C58    C     0.48514   0.06865   0.25103   0.00000  Uiso   1.00
C59    C     0.50828   0.21758   0.45546   0.00000  Uiso   1.00
C60    C     0.52541   0.26171   0.02745   0.00000  Uiso   1.00
C61    C     0.41056   0.10278   0.47721   0.00000  Uiso   1.00
C62    C     0.52198   0.26366   0.48066   0.00000  Uiso   1.00
C63    C     0.41556   0.09572   0.02323   0.00000  Uiso   1.00
C64    C     0.52109   0.31894   0.25571   0.00000  Uiso   1.00
C65    C     0.47861   0.01440   0.24491   0.00000  Uiso   1.00
C66    C     0.50025   0.16743   0.33653   0.00000  Uiso   1.00
C67    C     0.49961   0.16620   0.16342   0.00000  Uiso   1.00
C68    C     0.46197   0.12765   0.09395   0.00000  Uiso   1.00
Cl69   Cl    0.43714   0.07504   0.12694   0.00000  Uiso   1.00
Cl70   Cl    0.57290   0.25278   0.38004   0.00000  Uiso   1.00
Cl71   Cl    0.58618   0.23850   0.11472   0.00000  Uiso   1.00
Cl72   Cl    0.44254   0.07316   0.37504   0.00000  Uiso   1.00
Cl73   Cl    0.57845   0.00883   0.28812   0.00000  Uiso   1.00
Cl74   Cl    0.42027   0.32439   0.21358   0.00000  Uiso   1.00
Cl75   Cl    0.34278   0.09971   0.20785   0.00000  Uiso   1.00
Cl76   Cl    0.65743   0.23425   0.29132   0.00000  Uiso   1.00
I77    I     0.53788   0.33300   0.06662   0.00000  Uiso   1.00
I78    I     0.66512   0.08007   0.44807   0.00000  Uiso   1.00
I79    I     0.51779   0.00391   0.45174   0.00000  Uiso   1.00
I80    I     0.36741   0.02827   0.04782   0.00000  Uiso   1.00
N81    N     0.65011   0.15265   0.23783   0.00000  Uiso   1.00
N82    N     0.34989   0.18068   0.26217   0.00000  Uiso   1.00
O83    O     0.46308   0.24619   0.25299   0.00000  Uiso   1.00
O84    O     0.53692   0.08714   0.24702   0.00000  Uiso   1.00
O85    O     0.55946   0.23721   0.24519   0.00000  Uiso   1.00
O86    O     0.44054   0.09613   0.25482   0.00000  Uiso   1.00
O87    O     0.45181   0.17117   0.31998   0.00000  Uiso   1.00
O88    O     0.54819   0.16216   0.18003   0.00000  Uiso   1.00
O89    O     0.54819   0.16219   0.31218   0.00000  Uiso   1.00
O90    O     0.45181   0.17115   0.18783   0.00000  Uiso   1.00
Zn91   Zn    0.43565   0.17266   0.25521   0.00000  Uiso   1.00
Zn92   Zn    0.56435   0.16067   0.24479   0.00000  Uiso   1.00
C93    C     0.84816   0.26469   0.24912   0.00000  Uiso   1.00
C94    C     0.85439   0.21166   0.40862   0.00000  Uiso   1.00
C95    C     0.83095   0.16533   0.11502   0.00000  Uiso   1.00
C96    C     0.83152   0.16818   0.38500   0.00000  Uiso   1.00
C97    C     0.85907   0.20587   0.09182   0.00000  Uiso   1.00
C98    C     0.79551   0.13078   0.40678   0.00000  Uiso   1.00
C99    C     0.84466   0.21424   0.04833   0.00000  Uiso   1.00
C100   C     0.78351   0.13606   0.45374   0.00000  Uiso   1.00
C101   C     0.81286   0.17438   0.02512   0.00000  Uiso   1.00
C102   C     0.81219   0.17618   0.47817   0.00000  Uiso   1.00
C103   C     0.78578   0.13109   0.04779   0.00000  Uiso   1.00
C104   C     0.81847   0.06865   0.25103   0.00000  Uiso   1.00
C105   C     0.84161   0.21758   0.45546   0.00000  Uiso   1.00
C106   C     0.85875   0.26171   0.02745   0.00000  Uiso   1.00
C107   C     0.74390   0.10278   0.47721   0.00000  Uiso   1.00
C108   C     0.85531   0.26366   0.48066   0.00000  Uiso   1.00
C109   C     0.74889   0.09572   0.02323   0.00000  Uiso   1.00
C110   C     0.85443   0.31894   0.25571   0.00000  Uiso   1.00
C111   C     0.81194   0.01440   0.24491   0.00000  Uiso   1.00
C112   C     0.83358   0.16743   0.33653   0.00000  Uiso   1.00
C113   C     0.83294   0.16620   0.16342   0.00000  Uiso   1.00
C114   C     0.79530   0.12765   0.09395   0.00000  Uiso   1.00
Cl115  Cl    0.77047   0.07504   0.12694   0.00000  Uiso   1.00
Cl116  Cl    0.90623   0.25278   0.38004   0.00000  Uiso   1.00
Cl117  Cl    0.91952   0.23850   0.11472   0.00000  Uiso   1.00
Cl118  Cl    0.77588   0.07316   0.37504   0.00000  Uiso   1.00
Cl119  Cl    0.91178   0.00883   0.28812   0.00000  Uiso   1.00
Cl120  Cl    0.75360   0.32439   0.21358   0.00000  Uiso   1.00
Cl121  Cl    0.67612   0.09971   0.20785   0.00000  Uiso   1.00
Cl122  Cl    0.99077   0.23425   0.29132   0.00000  Uiso   1.00
I123   I     0.87121   0.33300   0.06662   0.00000  Uiso   1.00
I124   I     0.99845   0.08007   0.44807   0.00000  Uiso   1.00
I125   I     0.85113   0.00391   0.45174   0.00000  Uiso   1.00
I126   I     0.70075   0.02827   0.04782   0.00000  Uiso   1.00
N127   N     0.98344   0.15265   0.23783   0.00000  Uiso   1.00
N128   N     0.68322   0.18068   0.26217   0.00000  Uiso   1.00
O129   O     0.79642   0.24619   0.25299   0.00000  Uiso   1.00
O130   O     0.87025   0.08714   0.24702   0.00000  Uiso   1.00
O131   O     0.89280   0.23721   0.24519   0.00000  Uiso   1.00
O132   O     0.77387   0.09613   0.25482   0.00000  Uiso   1.00
O133   O     0.78514   0.17117   0.31998   0.00000  Uiso   1.00
O134   O     0.88153   0.16216   0.18003   0.00000  Uiso   1.00
O135   O     0.88152   0.16219   0.31218   0.00000  Uiso   1.00
O136   O     0.78515   0.17115   0.18783   0.00000  Uiso   1.00
Zn137  Zn    0.76898   0.17266   0.25521   0.00000  Uiso   1.00
Zn138  Zn    0.89769   0.16067   0.24479   0.00000  Uiso   1.00
C139   C     0.18149   0.59803   0.24912   0.00000  Uiso   1.00
C140   C     0.18772   0.54499   0.40862   0.00000  Uiso   1.00
C141   C     0.16428   0.49866   0.11502   0.00000  Uiso   1.00
C142   C     0.16485   0.50152   0.38500   0.00000  Uiso   1.00
C143   C     0.19240   0.53920   0.09182   0.00000  Uiso   1.00
C144   C     0.12884   0.46411   0.40678   0.00000  Uiso   1.00
C145   C     0.17799   0.54758   0.04833   0.00000  Uiso   1.00
C146   C     0.11684   0.46939   0.45374   0.00000  Uiso   1.00
C147   C     0.14620   0.50771   0.02512   0.00000  Uiso   1.00
C148   C     0.14552   0.50952   0.47817   0.00000  Uiso   1.00
C149   C     0.11911   0.46443   0.04779   0.00000  Uiso   1.00
C150   C     0.15181   0.40199   0.25103   0.00000  Uiso   1.00
C151   C     0.17494   0.55092   0.45546   0.00000  Uiso   1.00
C152   C     0.19208   0.59504   0.02745   0.00000  Uiso   1.00
C153   C     0.07723   0.43611   0.47721   0.00000  Uiso   1.00
C154   C     0.18865   0.59699   0.48066   0.00000  Uiso   1.00
C155   C     0.08223   0.42905   0.02323   0.00000  Uiso   1.00
C156   C     0.18776   0.65227   0.25571   0.00000  Uiso   1.00
C157   C     0.14528   0.34773   0.24491   0.00000  Uiso   1.00
C158   C     0.16691   0.50077   0.33653   0.00000  Uiso   1.00
C159   C     0.16628   0.49953   0.16342   0.00000  Uiso   1.00
C160   C     0.12864   0.46099   0.09395   0.00000  Uiso   1.00
Cl161  Cl    0.10380   0.40837   0.12694   0.00000  Uiso   1.00
Cl162  Cl    0.23956   0.58611   0.38004   0.00000  Uiso   1.00
Cl163  Cl    0.25285   0.57183   0.11472   0.00000  Uiso   1.00
Cl164  Cl    0.10921   0.40649   0.37504   0.00000  Uiso   1.00
Cl165  Cl    0.24511   0.34216   0.28812   0.00000  Uiso   1.00
Cl166  Cl    0.08694   0.65773   0.21358   0.00000  Uiso   1.00
Cl167  Cl    0.00945   0.43304   0.20785   0.00000  Uiso   1.00
Cl168  Cl    0.32410   0.56759   0.29132   0.00000  Uiso   1.00
I169   I     0.20454   0.66634   0.06662   0.00000  Uiso   1.00
I170   I     0.33178   0.41341   0.44807   0.00000  Uiso   1.00
I171   I     0.18446   0.33724   0.45174   0.00000  Uiso   1.00
I172   I     0.03408   0.36160   0.04782   0.00000  Uiso   1.00
N173   N     0.31678   0.48598   0.23783   0.00000  Uiso   1.00
N174   N     0.01656   0.51402   0.26217   0.00000  Uiso   1.00
O175   O     0.12975   0.57952   0.25299   0.00000  Uiso   1.00
O176   O     0.20358   0.42048   0.24702   0.00000  Uiso   1.00
O177   O     0.22613   0.57054   0.24519   0.00000  Uiso   1.00
O178   O     0.10720   0.42946   0.25482   0.00000  Uiso   1.00
O179   O     0.11847   0.50450   0.31998   0.00000  Uiso   1.00
O180   O     0.21486   0.49550   0.18003   0.00000  Uiso   1.00
O181   O     0.21485   0.49552   0.31218   0.00000  Uiso   1.00
O182   O     0.11848   0.50448   0.18783   0.00000  Uiso   1.00
Zn183  Zn    0.10231   0.50600   0.25521   0.00000  Uiso   1.00
Zn184  Zn    0.23102   0.49400   0.24479   0.00000  Uiso   1.00
C185   C     0.51482   0.59803   0.24912   0.00000  Uiso   1.00
C186   C     0.52105   0.54499   0.40862   0.00000  Uiso   1.00
C187   C     0.49762   0.49866   0.11502   0.00000  Uiso   1.00
C188   C     0.49819   0.50152   0.38500   0.00000  Uiso   1.00
C189   C     0.52574   0.53920   0.09182   0.00000  Uiso   1.00
C190   C     0.46217   0.46411   0.40678   0.00000  Uiso   1.00
C191   C     0.51132   0.54758   0.04833   0.00000  Uiso   1.00
C192   C     0.45018   0.46939   0.45374   0.00000  Uiso   1.00
C193   C     0.47953   0.50771   0.02512   0.00000  Uiso   1.00
C194   C     0.47886   0.50952   0.47817   0.00000  Uiso   1.00
C195   C     0.45245   0.46443   0.04779   0.00000  Uiso   1.00
C196   C     0.48514   0.40199   0.25103   0.00000  Uiso   1.00
C197   C     0.50828   0.55092   0.45546   0.00000  Uiso   1.00
C198   C     0.52541   0.59504   0.02745   0.00000  Uiso   1.00
C199   C     0.41056   0.43611   0.47721   0.00000  Uiso   1.00
C200   C     0.52198   0.59699   0.48066   0.00000  Uiso   1.00
C201   C     0.41556   0.42905   0.02323   0.00000  Uiso   1.00
C202   C     0.52109   0.65227   0.25571   0.00000  Uiso   1.00
C203   C     0.47861   0.34773   0.24491   0.00000  Uiso   1.00
C204   C     0.50025   0.50077   0.33653   0.00000  Uiso   1.00
C205   C     0.49961   0.49953   0.16342   0.00000  Uiso   1.00
C206   C     0.46197   0.46099   0.09395   0.00000  Uiso   1.00
Cl207  Cl    0.43714   0.40837   0.12694   0.00000  Uiso   1.00
Cl208  Cl    0.57290   0.58611   0.38004   0.00000  Uiso   1.00
Cl209  Cl    0.58618   0.57183   0.11472   0.00000  Uiso   1.00
Cl210  Cl    0.44254   0.40649   0.37504   0.00000  Uiso   1.00
Cl211  Cl    0.57845   0.34216   0.28812   0.00000  Uiso   1.00
Cl212  Cl    0.42027   0.65773   0.21358   0.00000  Uiso   1.00
Cl213  Cl    0.34278   0.43304   0.20785   0.00000  Uiso   1.00
Cl214  Cl    0.65743   0.56759   0.29132   0.00000  Uiso   1.00
I215   I     0.53788   0.66634   0.06662   0.00000  Uiso   1.00
I216   I     0.66512   0.41341   0.44807   0.00000  Uiso   1.00
I217   I     0.51779   0.33724   0.45174   0.00000  Uiso   1.00
I218   I     0.36741   0.36160   0.04782   0.00000  Uiso   1.00
N219   N     0.65011   0.48598   0.23783   0.00000  Uiso   1.00
N220   N     0.34989   0.51402   0.26217   0.00000  Uiso   1.00
O221   O     0.46308   0.57952   0.25299   0.00000  Uiso   1.00
O222   O     0.53692   0.42048   0.24702   0.00000  Uiso   1.00
O223   O     0.55946   0.57054   0.24519   0.00000  Uiso   1.00
O224   O     0.44054   0.42946   0.25482   0.00000  Uiso   1.00
O225   O     0.45181   0.50450   0.31998   0.00000  Uiso   1.00
O226   O     0.54819   0.49550   0.18003   0.00000  Uiso   1.00
O227   O     0.54819   0.49552   0.31218   0.00000  Uiso   1.00
O228   O     0.45181   0.50448   0.18783   0.00000  Uiso   1.00
Zn229  Zn    0.43565   0.50600   0.25521   0.00000  Uiso   1.00
Zn230  Zn    0.56435   0.49400   0.24479   0.00000  Uiso   1.00
C231   C     0.84816   0.59803   0.24912   0.00000  Uiso   1.00
C232   C     0.85439   0.54499   0.40862   0.00000  Uiso   1.00
C233   C     0.83095   0.49866   0.11502   0.00000  Uiso   1.00
C234   C     0.83152   0.50152   0.38500   0.00000  Uiso   1.00
C235   C     0.85907   0.53920   0.09182   0.00000  Uiso   1.00
C236   C     0.79551   0.46411   0.40678   0.00000  Uiso   1.00
C237   C     0.84466   0.54758   0.04833   0.00000  Uiso   1.00
C238   C     0.78351   0.46939   0.45374   0.00000  Uiso   1.00
C239   C     0.81286   0.50771   0.02512   0.00000  Uiso   1.00
C240   C     0.81219   0.50952   0.47817   0.00000  Uiso   1.00
C241   C     0.78578   0.46443   0.04779   0.00000  Uiso   1.00
C242   C     0.81847   0.40199   0.25103   0.00000  Uiso   1.00
C243   C     0.84161   0.55092   0.45546   0.00000  Uiso   1.00
C244   C     0.85875   0.59504   0.02745   0.00000  Uiso   1.00
C245   C     0.74390   0.43611   0.47721   0.00000  Uiso   1.00
C246   C     0.85531   0.59699   0.48066   0.00000  Uiso   1.00
C247   C     0.74889   0.42905   0.02323   0.00000  Uiso   1.00
C248   C     0.85443   0.65227   0.25571   0.00000  Uiso   1.00
C249   C     0.81194   0.34773   0.24491   0.00000  Uiso   1.00
C250   C     0.83358   0.50077   0.33653   0.00000  Uiso   1.00
C251   C     0.83294   0.49953   0.16342   0.00000  Uiso   1.00
C252   C     0.79530   0.46099   0.09395   0.00000  Uiso   1.00
Cl253  Cl    0.77047   0.40837   0.12694   0.00000  Uiso   1.00
Cl254  Cl    0.90623   0.58611   0.38004   0.00000  Uiso   1.00
Cl255  Cl    0.91952   0.57183   0.11472   0.00000  Uiso   1.00
Cl256  Cl    0.77588   0.40649   0.37504   0.00000  Uiso   1.00
Cl257  Cl    0.91178   0.34216   0.28812   0.00000  Uiso   1.00
Cl258  Cl    0.75360   0.65773   0.21358   0.00000  Uiso   1.00
Cl259  Cl    0.67612   0.43304   0.20785   0.00000  Uiso   1.00
Cl260  Cl    0.99077   0.56759   0.29132   0.00000  Uiso   1.00
I261   I     0.87121   0.66634   0.06662   0.00000  Uiso   1.00
I262   I     0.99845   0.41341   0.44807   0.00000  Uiso   1.00
I263   I     0.85113   0.33724   0.45174   0.00000  Uiso   1.00
I264   I     0.70075   0.36160   0.04782   0.00000  Uiso   1.00
N265   N     0.98344   0.48598   0.23783   0.00000  Uiso   1.00
N266   N     0.68322   0.51402   0.26217   0.00000  Uiso   1.00
O267   O     0.79642   0.57952   0.25299   0.00000  Uiso   1.00
O268   O     0.87025   0.42048   0.24702   0.00000  Uiso   1.00
O269   O     0.89280   0.57054   0.24519   0.00000  Uiso   1.00
O270   O     0.77387   0.42946   0.25482   0.00000  Uiso   1.00
O271   O     0.78514   0.50450   0.31998   0.00000  Uiso   1.00
O272   O     0.88153   0.49550   0.18003   0.00000  Uiso   1.00
O273   O     0.88152   0.49552   0.31218   0.00000  Uiso   1.00
O274   O     0.78515   0.50448   0.18783   0.00000  Uiso   1.00
Zn275  Zn    0.76898   0.50600   0.25521   0.00000  Uiso   1.00
Zn276  Zn    0.89769   0.49400   0.24479   0.00000  Uiso   1.00
C277   C     0.18149   0.93136   0.24912   0.00000  Uiso   1.00
C278   C     0.18772   0.87833   0.40862   0.00000  Uiso   1.00
C279   C     0.16428   0.83200   0.11502   0.00000  Uiso   1.00
C280   C     0.16485   0.83485   0.38500   0.00000  Uiso   1.00
C281   C     0.19240   0.87254   0.09182   0.00000  Uiso   1.00
C282   C     0.12884   0.79744   0.40678   0.00000  Uiso   1.00
C283   C     0.17799   0.88091   0.04833   0.00000  Uiso   1.00
C284   C     0.11684   0.80273   0.45374   0.00000  Uiso   1.00
C285   C     0.14620   0.84105   0.02512   0.00000  Uiso   1.00
C286   C     0.14552   0.84285   0.47817   0.00000  Uiso   1.00
C287   C     0.11911   0.79776   0.04779   0.00000  Uiso   1.00
C288   C     0.15181   0.73532   0.25103   0.00000  Uiso   1.00
C289   C     0.17494   0.88425   0.45546   0.00000  Uiso   1.00
C290   C     0.19208   0.92838   0.02745   0.00000  Uiso   1.00
C291   C     0.07723   0.76945   0.47721   0.00000  Uiso   1.00
C292   C     0.18865   0.93033   0.48066   0.00000  Uiso   1.00
C293   C     0.08223   0.76238   0.02323   0.00000  Uiso   1.00
C294   C     0.18776   0.98560   0.25571   0.00000  Uiso   1.00
C295   C     0.14528   0.68106   0.24491   0.00000  Uiso   1.00
C296   C     0.16691   0.83410   0.33653   0.00000  Uiso   1.00
C297   C     0.16628   0.83287   0.16342   0.00000  Uiso   1.00
C298   C     0.12864   0.79432   0.09395   0.00000  Uiso   1.00
Cl299  Cl    0.10380   0.74170   0.12694   0.00000  Uiso   1.00
Cl300  Cl    0.23956   0.91944   0.38004   0.00000  Uiso   1.00
Cl301  Cl    0.25285   0.90516   0.11472   0.00000  Uiso   1.00
Cl302  Cl    0.10921   0.73982   0.37504   0.00000  Uiso   1.00
Cl303  Cl    0.24511   0.67549   0.28812   0.00000  Uiso   1.00
Cl304  Cl    0.08694   0.99106   0.21358   0.00000  Uiso   1.00
Cl305  Cl    0.00945   0.76638   0.20785   0.00000  Uiso   1.00
Cl306  Cl    0.32410   0.90092   0.29132   0.00000  Uiso   1.00
I307   I     0.20454   0.99967   0.06662   0.00000  Uiso   1.00
I308   I     0.33178   0.74674   0.44807   0.00000  Uiso   1.00
I309   I     0.18446   0.67057   0.45174   0.00000  Uiso   1.00
I310   I     0.03408   0.69494   0.04782   0.00000  Uiso   1.00
N311   N     0.31678   0.81932   0.23783   0.00000  Uiso   1.00
N312   N     0.01656   0.84735   0.26217   0.00000  Uiso   1.00
O313   O     0.12975   0.91286   0.25299   0.00000  Uiso   1.00
O314   O     0.20358   0.75381   0.24702   0.00000  Uiso   1.00
O315   O     0.22613   0.90387   0.24519   0.00000  Uiso   1.00
O316   O     0.10720   0.76279   0.25482   0.00000  Uiso   1.00
O317   O     0.11847   0.83784   0.31998   0.00000  Uiso   1.00
O318   O     0.21486   0.82883   0.18003   0.00000  Uiso   1.00
O319   O     0.21485   0.82885   0.31218   0.00000  Uiso   1.00
O320   O     0.11848   0.83781   0.18783   0.00000  Uiso   1.00
Zn321  Zn    0.10231   0.83933   0.25521   0.00000  Uiso   1.00
Zn322  Zn    0.23102   0.82734   0.24479   0.00000  Uiso   1.00
C323   C     0.51482   0.93136   0.24912   0.00000  Uiso   1.00
C324   C     0.52105   0.87833   0.40862   0.00000  Uiso   1.00
C325   C     0.49762   0.83200   0.11502   0.00000  Uiso   1.00
C326   C     0.49819   0.83485   0.38500   0.00000  Uiso   1.00
C327   C     0.52574   0.87254   0.09182   0.00000  Uiso   1.00
C328   C     0.46217   0.79744   0.40678   0.00000  Uiso   1.00
C329   C     0.51132   0.88091   0.04833   0.00000  Uiso   1.00
C330   C     0.45018   0.80273   0.45374   0.00000  Uiso   1.00
C331   C     0.47953   0.84105   0.02512   0.00000  Uiso   1.00
C332   C     0.47886   0.84285   0.47817   0.00000  Uiso   1.00
C333   C     0.45245   0.79776   0.04779   0.00000  Uiso   1.00
C334   C     0.48514   0.73532   0.25103   0.00000  Uiso   1.00
C335   C     0.50828   0.88425   0.45546   0.00000  Uiso   1.00
C336   C     0.52541   0.92838   0.02745   0.00000  Uiso   1.00
C337   C     0.41056   0.76945   0.47721   0.00000  Uiso   1.00
C338   C     0.52198   0.93033   0.48066   0.00000  Uiso   1.00
C339   C     0.41556   0.76238   0.02323   0.00000  Uiso   1.00
C340   C     0.52109   0.98560   0.25571   0.00000  Uiso   1.00
C341   C     0.47861   0.68106   0.24491   0.00000  Uiso   1.00
C342   C     0.50025   0.83410   0.33653   0.00000  Uiso   1.00
C343   C     0.49961   0.83287   0.16342   0.00000  Uiso   1.00
C344   C     0.46197   0.79432   0.09395   0.00000  Uiso   1.00
Cl345  Cl    0.43714   0.74170   0.12694   0.00000  Uiso   1.00
Cl346  Cl    0.57290   0.91944   0.38004   0.00000  Uiso   1.00
Cl347  Cl    0.58618   0.90516   0.11472   0.00000  Uiso   1.00
Cl348  Cl    0.44254   0.73982   0.37504   0.00000  Uiso   1.00
Cl349  Cl    0.57845   0.67549   0.28812   0.00000  Uiso   1.00
Cl350  Cl    0.42027   0.99106   0.21358   0.00000  Uiso   1.00
Cl351  Cl    0.34278   0.76638   0.20785   0.00000  Uiso   1.00
Cl352  Cl    0.65743   0.90092   0.29132   0.00000  Uiso   1.00
I353   I     0.53788   0.99967   0.06662   0.00000  Uiso   1.00
I354   I     0.66512   0.74674   0.44807   0.00000  Uiso   1.00
I355   I     0.51779   0.67057   0.45174   0.00000  Uiso   1.00
I356   I     0.36741   0.69494   0.04782   0.00000  Uiso   1.00
N357   N     0.65011   0.81932   0.23783   0.00000  Uiso   1.00
N358   N     0.34989   0.84735   0.26217   0.00000  Uiso   1.00
O359   O     0.46308   0.91286   0.25299   0.00000  Uiso   1.00
O360   O     0.53692   0.75381   0.24702   0.00000  Uiso   1.00
O361   O     0.55946   0.90387   0.24519   0.00000  Uiso   1.00
O362   O     0.44054   0.76279   0.25482   0.00000  Uiso   1.00
O363   O     0.45181   0.83784   0.31998   0.00000  Uiso   1.00
O364   O     0.54819   0.82883   0.18003   0.00000  Uiso   1.00
O365   O     0.54819   0.82885   0.31218   0.00000  Uiso   1.00
O366   O     0.45181   0.83781   0.18783   0.00000  Uiso   1.00
Zn367  Zn    0.43565   0.83933   0.25521   0.00000  Uiso   1.00
Zn368  Zn    0.56435   0.82734   0.24479   0.00000  Uiso   1.00
C369   C     0.84816   0.93136   0.24912   0.00000  Uiso   1.00
C370   C     0.85439   0.87833   0.40862   0.00000  Uiso   1.00
C371   C     0.83095   0.83200   0.11502   0.00000  Uiso   1.00
C372   C     0.83152   0.83485   0.38500   0.00000  Uiso   1.00
C373   C     0.85907   0.87254   0.09182   0.00000  Uiso   1.00
C374   C     0.79551   0.79744   0.40678   0.00000  Uiso   1.00
C375   C     0.84466   0.88091   0.04833   0.00000  Uiso   1.00
C376   C     0.78351   0.80273   0.45374   0.00000  Uiso   1.00
C377   C     0.81286   0.84105   0.02512   0.00000  Uiso   1.00
C378   C     0.81219   0.84285   0.47817   0.00000  Uiso   1.00
C379   C     0.78578   0.79776   0.04779   0.00000  Uiso   1.00
C380   C     0.81847   0.73532   0.25103   0.00000  Uiso   1.00
C381   C     0.84161   0.88425   0.45546   0.00000  Uiso   1.00
C382   C     0.85875   0.92838   0.02745   0.00000  Uiso   1.00
C383   C     0.74390   0.76945   0.47721   0.00000  Uiso   1.00
C384   C     0.85531   0.93033   0.48066   0.00000  Uiso   1.00
C385   C     0.74889   0.76238   0.02323   0.00000  Uiso   1.00
C386   C     0.85443   0.98560   0.25571   0.00000  Uiso   1.00
C387   C     0.81194   0.68106   0.24491   0.00000  Uiso   1.00
C388   C     0.83358   0.83410   0.33653   0.00000  Uiso   1.00
C389   C     0.83294   0.83287   0.16342   0.00000  Uiso   1.00
C390   C     0.79530   0.79432   0.09395   0.00000  Uiso   1.00
Cl391  Cl    0.77047   0.74170   0.12694   0.00000  Uiso   1.00
Cl392  Cl    0.90623   0.91944   0.38004   0.00000  Uiso   1.00
Cl393  Cl    0.91952   0.90516   0.11472   0.00000  Uiso   1.00
Cl394  Cl    0.77588   0.73982   0.37504   0.00000  Uiso   1.00
Cl395  Cl    0.91178   0.67549   0.28812   0.00000  Uiso   1.00
Cl396  Cl    0.75360   0.99106   0.21358   0.00000  Uiso   1.00
Cl397  Cl    0.67612   0.76638   0.20785   0.00000  Uiso   1.00
Cl398  Cl    0.99077   0.90092   0.29132   0.00000  Uiso   1.00
I399   I     0.87121   0.99967   0.06662   0.00000  Uiso   1.00
I400   I     0.99845   0.74674   0.44807   0.00000  Uiso   1.00
I401   I     0.85113   0.67057   0.45174   0.00000  Uiso   1.00
I402   I     0.70075   0.69494   0.04782   0.00000  Uiso   1.00
N403   N     0.98344   0.81932   0.23783   0.00000  Uiso   1.00
N404   N     0.68322   0.84735   0.26217   0.00000  Uiso   1.00
O405   O     0.79642   0.91286   0.25299   0.00000  Uiso   1.00
O406   O     0.87025   0.75381   0.24702   0.00000  Uiso   1.00
O407   O     0.89280   0.90387   0.24519   0.00000  Uiso   1.00
O408   O     0.77387   0.76279   0.25482   0.00000  Uiso   1.00
O409   O     0.78514   0.83784   0.31998   0.00000  Uiso   1.00
O410   O     0.88153   0.82883   0.18003   0.00000  Uiso   1.00
O411   O     0.88152   0.82885   0.31218   0.00000  Uiso   1.00
O412   O     0.78515   0.83781   0.18783   0.00000  Uiso   1.00
Zn413  Zn    0.76898   0.83933   0.25521   0.00000  Uiso   1.00
Zn414  Zn    0.89769   0.82734   0.24479   0.00000  Uiso   1.00
C415   C     0.18149   0.26469   0.74912   0.00000  Uiso   1.00
C416   C     0.18772   0.21166   0.90862   0.00000  Uiso   1.00
C417   C     0.16428   0.16533   0.61502   0.00000  Uiso   1.00
C418   C     0.16485   0.16818   0.88500   0.00000  Uiso   1.00
C419   C     0.19240   0.20587   0.59182   0.00000  Uiso   1.00
C420   C     0.12884   0.13078   0.90678   0.00000  Uiso   1.00
C421   C     0.17799   0.21424   0.54833   0.00000  Uiso   1.00
C422   C     0.11684   0.13606   0.95374   0.00000  Uiso   1.00
C423   C     0.14620   0.17438   0.52512   0.00000  Uiso   1.00
C424   C     0.14552   0.17618   0.97817   0.00000  Uiso   1.00
C425   C     0.11911   0.13109   0.54779   0.00000  Uiso   1.00
C426   C     0.15181   0.06865   0.75103   0.00000  Uiso   1.00
C427   C     0.17494   0.21758   0.95546   0.00000  Uiso   1.00
C428   C     0.19208   0.26171   0.52745   0.00000  Uiso   1.00
C429   C     0.07723   0.10278   0.97721   0.00000  Uiso   1.00
C430   C     0.18865   0.26366   0.98066   0.00000  Uiso   1.00
C431   C     0.08223   0.09572   0.52323   0.00000  Uiso   1.00
C432   C     0.18776   0.31894   0.75571   0.00000  Uiso   1.00
C433   C     0.14528   0.01440   0.74491   0.00000  Uiso   1.00
C434   C     0.16691   0.16743   0.83653   0.00000  Uiso   1.00
C435   C     0.16628   0.16620   0.66342   0.00000  Uiso   1.00
C436   C     0.12864   0.12765   0.59395   0.00000  Uiso   1.00
Cl437  Cl    0.10380   0.07504   0.62694   0.00000  Uiso   1.00
Cl438  Cl    0.23956   0.25278   0.88004   0.00000  Uiso   1.00
Cl439  Cl    0.25285   0.23850   0.61472   0.00000  Uiso   1.00
Cl440  Cl    0.10921   0.07316   0.87504   0.00000  Uiso   1.00
Cl441  Cl    0.24511   0.00883   0.78812   0.00000  Uiso   1.00
Cl442  Cl    0.08694   0.32439   0.71358   0.00000  Uiso   1.00
Cl443  Cl    0.00945   0.09971   0.70785   0.00000  Uiso   1.00
Cl444  Cl    0.32410   0.23425   0.79132   0.00000  Uiso   1.00
I445   I     0.20454   0.33300   0.56662   0.00000  Uiso   1.00
I446   I     0.33178   0.08007   0.94807   0.00000  Uiso   1.00
I447   I     0.18446   0.00391   0.95174   0.00000  Uiso   1.00
I448   I     0.03408   0.02827   0.54782   0.00000  Uiso   1.00
N449   N     0.31678   0.15265   0.73783   0.00000  Uiso   1.00
N450   N     0.01656   0.18068   0.76217   0.00000  Uiso   1.00
O451   O     0.12975   0.24619   0.75299   0.00000  Uiso   1.00
O452   O     0.20358   0.08714   0.74702   0.00000  Uiso   1.00
O453   O     0.22613   0.23721   0.74519   0.00000  Uiso   1.00
O454   O     0.10720   0.09613   0.75482   0.00000  Uiso   1.00
O455   O     0.11847   0.17117   0.81998   0.00000  Uiso   1.00
O456   O     0.21486   0.16216   0.68003   0.00000  Uiso   1.00
O457   O     0.21485   0.16219   0.81218   0.00000  Uiso   1.00
O458   O     0.11848   0.17115   0.68783   0.00000  Uiso   1.00
Zn459  Zn    0.10231   0.17266   0.75521   0.00000  Uiso   1.00
Zn460  Zn    0.23102   0.16067   0.74479   0.00000  Uiso   1.00
C461   C     0.51482   0.26469   0.74912   0.00000  Uiso   1.00
C462   C     0.52105   0.21166   0.90862   0.00000  Uiso   1.00
C463   C     0.49762   0.16533   0.61502   0.00000  Uiso   1.00
C464   C     0.49819   0.16818   0.88500   0.00000  Uiso   1.00
C465   C     0.52574   0.20587   0.59182   0.00000  Uiso   1.00
C466   C     0.46217   0.13078   0.90678   0.00000  Uiso   1.00
C467   C     0.51132   0.21424   0.54833   0.00000  Uiso   1.00
C468   C     0.45018   0.13606   0.95374   0.00000  Uiso   1.00
C469   C     0.47953   0.17438   0.52512   0.00000  Uiso   1.00
C470   C     0.47886   0.17618   0.97817   0.00000  Uiso   1.00
C471   C     0.45245   0.13109   0.54779   0.00000  Uiso   1.00
C472   C     0.48514   0.06865   0.75103   0.00000  Uiso   1.00
C473   C     0.50828   0.21758   0.95546   0.00000  Uiso   1.00
C474   C     0.52541   0.26171   0.52745   0.00000  Uiso   1.00
C475   C     0.41056   0.10278   0.97721   0.00000  Uiso   1.00
C476   C     0.52198   0.26366   0.98066   0.00000  Uiso   1.00
C477   C     0.41556   0.09572   0.52323   0.00000  Uiso   1.00
C478   C     0.52109   0.31894   0.75571   0.00000  Uiso   1.00
C479   C     0.47861   0.01440   0.74491   0.00000  Uiso   1.00
C480   C     0.50025   0.16743   0.83653   0.00000  Uiso   1.00
C481   C     0.49961   0.16620   0.66342   0.00000  Uiso   1.00
C482   C     0.46197   0.12765   0.59395   0.00000  Uiso   1.00
Cl483  Cl    0.43714   0.07504   0.62694   0.00000  Uiso   1.00
Cl484  Cl    0.57290   0.25278   0.88004   0.00000  Uiso   1.00
Cl485  Cl    0.58618   0.23850   0.61472   0.00000  Uiso   1.00
Cl486  Cl    0.44254   0.07316   0.87504   0.00000  Uiso   1.00
Cl487  Cl    0.57845   0.00883   0.78812   0.00000  Uiso   1.00
Cl488  Cl    0.42027   0.32439   0.71358   0.00000  Uiso   1.00
Cl489  Cl    0.34278   0.09971   0.70785   0.00000  Uiso   1.00
Cl490  Cl    0.65743   0.23425   0.79132   0.00000  Uiso   1.00
I491   I     0.53788   0.33300   0.56662   0.00000  Uiso   1.00
I492   I     0.66512   0.08007   0.94807   0.00000  Uiso   1.00
I493   I     0.51779   0.00391   0.95174   0.00000  Uiso   1.00
I494   I     0.36741   0.02827   0.54782   0.00000  Uiso   1.00
N495   N     0.65011   0.15265   0.73783   0.00000  Uiso   1.00
N496   N     0.34989   0.18068   0.76217   0.00000  Uiso   1.00
O497   O     0.46308   0.24619   0.75299   0.00000  Uiso   1.00
O498   O     0.53692   0.08714   0.74702   0.00000  Uiso   1.00
O499   O     0.55946   0.23721   0.74519   0.00000  Uiso   1.00
O500   O     0.44054   0.09613   0.75482   0.00000  Uiso   1.00
O501   O     0.45181   0.17117   0.81998   0.00000  Uiso   1.00
O502   O     0.54819   0.16216   0.68003   0.00000  Uiso   1.00
O503   O     0.54819   0.16219   0.81218   0.00000  Uiso   1.00
O504   O     0.45181   0.17115   0.68783   0.00000  Uiso   1.00
Zn505  Zn    0.43565   0.17266   0.75521   0.00000  Uiso   1.00
Zn506  Zn    0.56435   0.16067   0.74479   0.00000  Uiso   1.00
C507   C     0.84816   0.26469   0.74912   0.00000  Uiso   1.00
C508   C     0.85439   0.21166   0.90862   0.00000  Uiso   1.00
C509   C     0.83095   0.16533   0.61502   0.00000  Uiso   1.00
C510   C     0.83152   0.16818   0.88500   0.00000  Uiso   1.00
C511   C     0.85907   0.20587   0.59182   0.00000  Uiso   1.00
C512   C     0.79551   0.13078   0.90678   0.00000  Uiso   1.00
C513   C     0.84466   0.21424   0.54833   0.00000  Uiso   1.00
C514   C     0.78351   0.13606   0.95374   0.00000  Uiso   1.00
C515   C     0.81286   0.17438   0.52512   0.00000  Uiso   1.00
C516   C     0.81219   0.17618   0.97817   0.00000  Uiso   1.00
C517   C     0.78578   0.13109   0.54779   0.00000  Uiso   1.00
C518   C     0.81847   0.06865   0.75103   0.00000  Uiso   1.00
C519   C     0.84161   0.21758   0.95546   0.00000  Uiso   1.00
C520   C     0.85875   0.26171   0.52745   0.00000  Uiso   1.00
C521   C     0.74390   0.10278   0.97721   0.00000  Uiso   1.00
C522   C     0.85531   0.26366   0.98066   0.00000  Uiso   1.00
C523   C     0.74889   0.09572   0.52323   0.00000  Uiso   1.00
C524   C     0.85443   0.31894   0.75571   0.00000  Uiso   1.00
C525   C     0.81194   0.01440   0.74491   0.00000  Uiso   1.00
C526   C     0.83358   0.16743   0.83653   0.00000  Uiso   1.00
C527   C     0.83294   0.16620   0.66342   0.00000  Uiso   1.00
C528   C     0.79530   0.12765   0.59395   0.00000  Uiso   1.00
Cl529  Cl    0.77047   0.07504   0.62694   0.00000  Uiso   1.00
Cl530  Cl    0.90623   0.25278   0.88004   0.00000  Uiso   1.00
Cl531  Cl    0.91952   0.23850   0.61472   0.00000  Uiso   1.00
Cl532  Cl    0.77588   0.07316   0.87504   0.00000  Uiso   1.00
Cl533  Cl    0.91178   0.00883   0.78812   0.00000  Uiso   1.00
Cl534  Cl    0.75360   0.32439   0.71358   0.00000  Uiso   1.00
Cl535  Cl    0.67612   0.09971   0.70785   0.00000  Uiso   1.00
Cl536  Cl    0.99077   0.23425   0.79132   0.00000  Uiso   1.00
I537   I     0.87121   0.33300   0.56662   0.00000  Uiso   1.00
I538   I     0.99845   0.08007   0.94807   0.00000  Uiso   1.00
I539   I     0.85113   0.00391   0.95174   0.00000  Uiso   1.00
I540   I     0.70075   0.02827   0.54782   0.00000  Uiso   1.00
N541   N     0.98344   0.15265   0.73783   0.00000  Uiso   1.00
N542   N     0.68322   0.18068   0.76217   0.00000  Uiso   1.00
O543   O     0.79642   0.24619   0.75299   0.00000  Uiso   1.00
O544   O     0.87025   0.08714   0.74702   0.00000  Uiso   1.00
O545   O     0.89280   0.23721   0.74519   0.00000  Uiso   1.00
O546   O     0.77387   0.09613   0.75482   0.00000  Uiso   1.00
O547   O     0.78514   0.17117   0.81998   0.00000  Uiso   1.00
O548   O     0.88153   0.16216   0.68003   0.00000  Uiso   1.00
O549   O     0.88152   0.16219   0.81218   0.00000  Uiso   1.00
O550   O     0.78515   0.17115   0.68783   0.00000  Uiso   1.00
Zn551  Zn    0.76898   0.17266   0.75521   0.00000  Uiso   1.00
Zn552  Zn    0.89769   0.16067   0.74479   0.00000  Uiso   1.00
C553   C     0.18149   0.59803   0.74912   0.00000  Uiso   1.00
C554   C     0.18772   0.54499   0.90862   0.00000  Uiso   1.00
C555   C     0.16428   0.49866   0.61502   0.00000  Uiso   1.00
C556   C     0.16485   0.50152   0.88500   0.00000  Uiso   1.00
C557   C     0.19240   0.53920   0.59182   0.00000  Uiso   1.00
C558   C     0.12884   0.46411   0.90678   0.00000  Uiso   1.00
C559   C     0.17799   0.54758   0.54833   0.00000  Uiso   1.00
C560   C     0.11684   0.46939   0.95374   0.00000  Uiso   1.00
C561   C     0.14620   0.50771   0.52512   0.00000  Uiso   1.00
C562   C     0.14552   0.50952   0.97817   0.00000  Uiso   1.00
C563   C     0.11911   0.46443   0.54779   0.00000  Uiso   1.00
C564   C     0.15181   0.40199   0.75103   0.00000  Uiso   1.00
C565   C     0.17494   0.55092   0.95546   0.00000  Uiso   1.00
C566   C     0.19208   0.59504   0.52745   0.00000  Uiso   1.00
C567   C     0.07723   0.43611   0.97721   0.00000  Uiso   1.00
C568   C     0.18865   0.59699   0.98066   0.00000  Uiso   1.00
C569   C     0.08223   0.42905   0.52323   0.00000  Uiso   1.00
C570   C     0.18776   0.65227   0.75571   0.00000  Uiso   1.00
C571   C     0.14528   0.34773   0.74491   0.00000  Uiso   1.00
C572   C     0.16691   0.50077   0.83653   0.00000  Uiso   1.00
C573   C     0.16628   0.49953   0.66342   0.00000  Uiso   1.00
C574   C     0.12864   0.46099   0.59395   0.00000  Uiso   1.00
Cl575  Cl    0.10380   0.40837   0.62694   0.00000  Uiso   1.00
Cl576  Cl    0.23956   0.58611   0.88004   0.00000  Uiso   1.00
Cl577  Cl    0.25285   0.57183   0.61472   0.00000  Uiso   1.00
Cl578  Cl    0.10921   0.40649   0.87504   0.00000  Uiso   1.00
Cl579  Cl    0.24511   0.34216   0.78812   0.00000  Uiso   1.00
Cl580  Cl    0.08694   0.65773   0.71358   0.00000  Uiso   1.00
Cl581  Cl    0.00945   0.43304   0.70785   0.00000  Uiso   1.00
Cl582  Cl    0.32410   0.56759   0.79132   0.00000  Uiso   1.00
I583   I     0.20454   0.66634   0.56662   0.00000  Uiso   1.00
I584   I     0.33178   0.41341   0.94807   0.00000  Uiso   1.00
I585   I     0.18446   0.33724   0.95174   0.00000  Uiso   1.00
I586   I     0.03408   0.36160   0.54782   0.00000  Uiso   1.00
N587   N     0.31678   0.48598   0.73783   0.00000  Uiso   1.00
N588   N     0.01656   0.51402   0.76217   0.00000  Uiso   1.00
O589   O     0.12975   0.57952   0.75299   0.00000  Uiso   1.00
O590   O     0.20358   0.42048   0.74702   0.00000  Uiso   1.00
O591   O     0.22613   0.57054   0.74519   0.00000  Uiso   1.00
O592   O     0.10720   0.42946   0.75482   0.00000  Uiso   1.00
O593   O     0.11847   0.50450   0.81998   0.00000  Uiso   1.00
O594   O     0.21486   0.49550   0.68003   0.00000  Uiso   1.00
O595   O     0.21485   0.49552   0.81218   0.00000  Uiso   1.00
O596   O     0.11848   0.50448   0.68783   0.00000  Uiso   1.00
Zn597  Zn    0.10231   0.50600   0.75521   0.00000  Uiso   1.00
Zn598  Zn    0.23102   0.49400   0.74479   0.00000  Uiso   1.00
C599   C     0.51482   0.59803   0.74912   0.00000  Uiso   1.00
C600   C     0.52105   0.54499   0.90862   0.00000  Uiso   1.00
C601   C     0.49762   0.49866   0.61502   0.00000  Uiso   1.00
C602   C     0.49819   0.50152   0.88500   0.00000  Uiso   1.00
C603   C     0.52574   0.53920   0.59182   0.00000  Uiso   1.00
C604   C     0.46217   0.46411   0.90678   0.00000  Uiso   1.00
C605   C     0.51132   0.54758   0.54833   0.00000  Uiso   1.00
C606   C     0.45018   0.46939   0.95374   0.00000  Uiso   1.00
C607   C     0.47953   0.50771   0.52512   0.00000  Uiso   1.00
C608   C     0.47886   0.50952   0.97817   0.00000  Uiso   1.00
C609   C     0.45245   0.46443   0.54779   0.00000  Uiso   1.00
C610   C     0.48514   0.40199   0.75103   0.00000  Uiso   1.00
C611   C     0.50828   0.55092   0.95546   0.00000  Uiso   1.00
C612   C     0.52541   0.59504   0.52745   0.00000  Uiso   1.00
C613   C     0.41056   0.43611   0.97721   0.00000  Uiso   1.00
C614   C     0.52198   0.59699   0.98066   0.00000  Uiso   1.00
C615   C     0.41556   0.42905   0.52323   0.00000  Uiso   1.00
C616   C     0.52109   0.65227   0.75571   0.00000  Uiso   1.00
C617   C     0.47861   0.34773   0.74491   0.00000  Uiso   1.00
C618   C     0.50025   0.50077   0.83653   0.00000  Uiso   1.00
C619   C     0.49961   0.49953   0.66342   0.00000  Uiso   1.00
C620   C     0.46197   0.46099   0.59395   0.00000  Uiso   1.00
Cl621  Cl    0.43714   0.40837   0.62694   0.00000  Uiso   1.00
Cl622  Cl    0.57290   0.58611   0.88004   0.00000  Uiso   1.00
Cl623  Cl    0.58618   0.57183   0.61472   0.00000  Uiso   1.00
Cl624  Cl    0.44254   0.40649   0.87504   0.00000  Uiso   1.00
Cl625  Cl    0.57845   0.34216   0.78812   0.00000  Uiso   1.00
Cl626  Cl    0.42027   0.65773   0.71358   0.00000  Uiso   1.00
Cl627  Cl    0.34278   0.43304   0.70785   0.00000  Uiso   1.00
Cl628  Cl    0.65743   0.56759   0.79132   0.00000  Uiso   1.00
I629   I     0.53788   0.66634   0.56662   0.00000  Uiso   1.00
I630   I     0.66512   0.41341   0.94807   0.00000  Uiso   1.00
I631   I     0.51779   0.33724   0.95174   0.00000  Uiso   1.00
I632   I     0.36741   0.36160   0.54782   0.00000  Uiso   1.00
N633   N     0.65011   0.48598   0.73783   0.00000  Uiso   1.00
N634   N     0.34989   0.51402   0.76217   0.00000  Uiso   1.00
O635   O     0.46308   0.57952   0.75299   0.00000  Uiso   1.00
O636   O     0.53692   0.42048   0.74702   0.00000  Uiso   1.00
O637   O     0.55946   0.57054   0.74519   0.00000  Uiso   1.00
O638   O     0.44054   0.42946   0.75482   0.00000  Uiso   1.00
O639   O     0.45181   0.50450   0.81998   0.00000  Uiso   1.00
O640   O     0.54819   0.49550   0.68003   0.00000  Uiso   1.00
O641   O     0.54819   0.49552   0.81218   0.00000  Uiso   1.00
O642   O     0.45181   0.50448   0.68783   0.00000  Uiso   1.00
Zn643  Zn    0.43565   0.50600   0.75521   0.00000  Uiso   1.00
Zn644  Zn    0.56435   0.49400   0.74479   0.00000  Uiso   1.00
C645   C     0.84816   0.59803   0.74912   0.00000  Uiso   1.00
C646   C     0.85439   0.54499   0.90862   0.00000  Uiso   1.00
C647   C     0.83095   0.49866   0.61502   0.00000  Uiso   1.00
C648   C     0.83152   0.50152   0.88500   0.00000  Uiso   1.00
C649   C     0.85907   0.53920   0.59182   0.00000  Uiso   1.00
C650   C     0.79551   0.46411   0.90678   0.00000  Uiso   1.00
C651   C     0.84466   0.54758   0.54833   0.00000  Uiso   1.00
C652   C     0.78351   0.46939   0.95374   0.00000  Uiso   1.00
C653   C     0.81286   0.50771   0.52512   0.00000  Uiso   1.00
C654   C     0.81219   0.50952   0.97817   0.00000  Uiso   1.00
C655   C     0.78578   0.46443   0.54779   0.00000  Uiso   1.00
C656   C     0.81847   0.40199   0.75103   0.00000  Uiso   1.00
C657   C     0.84161   0.55092   0.95546   0.00000  Uiso   1.00
C658   C     0.85875   0.59504   0.52745   0.00000  Uiso   1.00
C659   C     0.74390   0.43611   0.97721   0.00000  Uiso   1.00
C660   C     0.85531   0.59699   0.98066   0.00000  Uiso   1.00
C661   C     0.74889   0.42905   0.52323   0.00000  Uiso   1.00
C662   C     0.85443   0.65227   0.75571   0.00000  Uiso   1.00
C663   C     0.81194   0.34773   0.74491   0.00000  Uiso   1.00
C664   C     0.83358   0.50077   0.83653   0.00000  Uiso   1.00
C665   C     0.83294   0.49953   0.66342   0.00000  Uiso   1.00
C666   C     0.79530   0.46099   0.59395   0.00000  Uiso   1.00
Cl667  Cl    0.77047   0.40837   0.62694   0.00000  Uiso   1.00
Cl668  Cl    0.90623   0.58611   0.88004   0.00000  Uiso   1.00
Cl669  Cl    0.91952   0.57183   0.61472   0.00000  Uiso   1.00
Cl670  Cl    0.77588   0.40649   0.87504   0.00000  Uiso   1.00
Cl671  Cl    0.91178   0.34216   0.78812   0.00000  Uiso   1.00
Cl672  Cl    0.75360   0.65773   0.71358   0.00000  Uiso   1.00
Cl673  Cl    0.67612   0.43304   0.70785   0.00000  Uiso   1.00
Cl674  Cl    0.99077   0.56759   0.79132   0.00000  Uiso   1.00
I675   I     0.87121   0.66634   0.56662   0.00000  Uiso   1.00
I676   I     0.99845   0.41341   0.94807   0.00000  Uiso   1.00
I677   I     0.85113   0.33724   0.95174   0.00000  Uiso   1.00
I678   I     0.70075   0.36160   0.54782   0.00000  Uiso   1.00
N679   N     0.98344   0.48598   0.73783   0.00000  Uiso   1.00
N680   N     0.68322   0.51402   0.76217   0.00000  Uiso   1.00
O681   O     0.79642   0.57952   0.75299   0.00000  Uiso   1.00
O682   O     0.87025   0.42048   0.74702   0.00000  Uiso   1.00
O683   O     0.89280   0.57054   0.74519   0.00000  Uiso   1.00
O684   O     0.77387   0.42946   0.75482   0.00000  Uiso   1.00
O685   O     0.78514   0.50450   0.81998   0.00000  Uiso   1.00
O686   O     0.88153   0.49550   0.68003   0.00000  Uiso   1.00
O687   O     0.88152   0.49552   0.81218   0.00000  Uiso   1.00
O688   O     0.78515   0.50448   0.68783   0.00000  Uiso   1.00
Zn689  Zn    0.76898   0.50600   0.75521   0.00000  Uiso   1.00
Zn690  Zn    0.89769   0.49400   0.74479   0.00000  Uiso   1.00
C691   C     0.18149   0.93136   0.74912   0.00000  Uiso   1.00
C692   C     0.18772   0.87833   0.90862   0.00000  Uiso   1.00
C693   C     0.16428   0.83200   0.61502   0.00000  Uiso   1.00
C694   C     0.16485   0.83485   0.88500   0.00000  Uiso   1.00
C695   C     0.19240   0.87254   0.59182   0.00000  Uiso   1.00
C696   C     0.12884   0.79744   0.90678   0.00000  Uiso   1.00
C697   C     0.17799   0.88091   0.54833   0.00000  Uiso   1.00
C698   C     0.11684   0.80273   0.95374   0.00000  Uiso   1.00
C699   C     0.14620   0.84105   0.52512   0.00000  Uiso   1.00
C700   C     0.14552   0.84285   0.97817   0.00000  Uiso   1.00
C701   C     0.11911   0.79776   0.54779   0.00000  Uiso   1.00
C702   C     0.15181   0.73532   0.75103   0.00000  Uiso   1.00
C703   C     0.17494   0.88425   0.95546   0.00000  Uiso   1.00
C704   C     0.19208   0.92838   0.52745   0.00000  Uiso   1.00
C705   C     0.07723   0.76945   0.97721   0.00000  Uiso   1.00
C706   C     0.18865   0.93033   0.98066   0.00000  Uiso   1.00
C707   C     0.08223   0.76238   0.52323   0.00000  Uiso   1.00
C708   C     0.18776   0.98560   0.75571   0.00000  Uiso   1.00
C709   C     0.14528   0.68106   0.74491   0.00000  Uiso   1.00
C710   C     0.16691   0.83410   0.83653   0.00000  Uiso   1.00
C711   C     0.16628   0.83287   0.66342   0.00000  Uiso   1.00
C712   C     0.12864   0.79432   0.59395   0.00000  Uiso   1.00
Cl713  Cl    0.10380   0.74170   0.62694   0.00000  Uiso   1.00
Cl714  Cl    0.23956   0.91944   0.88004   0.00000  Uiso   1.00
Cl715  Cl    0.25285   0.90516   0.61472   0.00000  Uiso   1.00
Cl716  Cl    0.10921   0.73982   0.87504   0.00000  Uiso   1.00
Cl717  Cl    0.24511   0.67549   0.78812   0.00000  Uiso   1.00
Cl718  Cl    0.08694   0.99106   0.71358   0.00000  Uiso   1.00
Cl719  Cl    0.00945   0.76638   0.70785   0.00000  Uiso   1.00
Cl720  Cl    0.32410   0.90092   0.79132   0.00000  Uiso   1.00
I721   I     0.20454   0.99967   0.56662   0.00000  Uiso   1.00
I722   I     0.33178   0.74674   0.94807   0.00000  Uiso   1.00
I723   I     0.18446   0.67057   0.95174   0.00000  Uiso   1.00
I724   I     0.03408   0.69494   0.54782   0.00000  Uiso   1.00
N725   N     0.31678   0.81932   0.73783   0.00000  Uiso   1.00
N726   N     0.01656   0.84735   0.76217   0.00000  Uiso   1.00
O727   O     0.12975   0.91286   0.75299   0.00000  Uiso   1.00
O728   O     0.20358   0.75381   0.74702   0.00000  Uiso   1.00
O729   O     0.22613   0.90387   0.74519   0.00000  Uiso   1.00
O730   O     0.10720   0.76279   0.75482   0.00000  Uiso   1.00
O731   O     0.11847   0.83784   0.81998   0.00000  Uiso   1.00
O732   O     0.21486   0.82883   0.68003   0.00000  Uiso   1.00
O733   O     0.21485   0.82885   0.81218   0.00000  Uiso   1.00
O734   O     0.11848   0.83781   0.68783   0.00000  Uiso   1.00
Zn735  Zn    0.10231   0.83933   0.75521   0.00000  Uiso   1.00
Zn736  Zn    0.23102   0.82734   0.74479   0.00000  Uiso   1.00
C737   C     0.51482   0.93136   0.74912   0.00000  Uiso   1.00
C738   C     0.52105   0.87833   0.90862   0.00000  Uiso   1.00
C739   C     0.49762   0.83200   0.61502   0.00000  Uiso   1.00
C740   C     0.49819   0.83485   0.88500   0.00000  Uiso   1.00
C741   C     0.52574   0.87254   0.59182   0.00000  Uiso   1.00
C742   C     0.46217   0.79744   0.90678   0.00000  Uiso   1.00
C743   C     0.51132   0.88091   0.54833   0.00000  Uiso   1.00
C744   C     0.45018   0.80273   0.95374   0.00000  Uiso   1.00
C745   C     0.47953   0.84105   0.52512   0.00000  Uiso   1.00
C746   C     0.47886   0.84285   0.97817   0.00000  Uiso   1.00
C747   C     0.45245   0.79776   0.54779   0.00000  Uiso   1.00
C748   C     0.48514   0.73532   0.75103   0.00000  Uiso   1.00
C749   C     0.50828   0.88425   0.95546   0.00000  Uiso   1.00
C750   C     0.52541   0.92838   0.52745   0.00000  Uiso   1.00
C751   C     0.41056   0.76945   0.97721   0.00000  Uiso   1.00
C752   C     0.52198   0.93033   0.98066   0.00000  Uiso   1.00
C753   C     0.41556   0.76238   0.52323   0.00000  Uiso   1.00
C754   C     0.52109   0.98560   0.75571   0.00000  Uiso   1.00
C755   C     0.47861   0.68106   0.74491   0.00000  Uiso   1.00
C756   C     0.50025   0.83410   0.83653   0.00000  Uiso   1.00
C757   C     0.49961   0.83287   0.66342   0.00000  Uiso   1.00
C758   C     0.46197   0.79432   0.59395   0.00000  Uiso   1.00
Cl759  Cl    0.43714   0.74170   0.62694   0.00000  Uiso   1.00
Cl760  Cl    0.57290   0.91944   0.88004   0.00000  Uiso   1.00
Cl761  Cl    0.58618   0.90516   0.61472   0.00000  Uiso   1.00
Cl762  Cl    0.44254   0.73982   0.87504   0.00000  Uiso   1.00
Cl763  Cl    0.57845   0.67549   0.78812   0.00000  Uiso   1.00
Cl764  Cl    0.42027   0.99106   0.71358   0.00000  Uiso   1.00
Cl765  Cl    0.34278   0.76638   0.70785   0.00000  Uiso   1.00
Cl766  Cl    0.65743   0.90092   0.79132   0.00000  Uiso   1.00
I767   I     0.53788   0.99967   0.56662   0.00000  Uiso   1.00
I768   I     0.66512   0.74674   0.94807   0.00000  Uiso   1.00
I769   I     0.51779   0.67057   0.95174   0.00000  Uiso   1.00
I770   I     0.36741   0.69494   0.54782   0.00000  Uiso   1.00
N771   N     0.65011   0.81932   0.73783   0.00000  Uiso   1.00
N772   N     0.34989   0.84735   0.76217   0.00000  Uiso   1.00
O773   O     0.46308   0.91286   0.75299   0.00000  Uiso   1.00
O774   O     0.53692   0.75381   0.74702   0.00000  Uiso   1.00
O775   O     0.55946   0.90387   0.74519   0.00000  Uiso   1.00
O776   O     0.44054   0.76279   0.75482   0.00000  Uiso   1.00
O777   O     0.45181   0.83784   0.81998   0.00000  Uiso   1.00
O778   O     0.54819   0.82883   0.68003   0.00000  Uiso   1.00
O779   O     0.54819   0.82885   0.81218   0.00000  Uiso   1.00
O780   O     0.45181   0.83781   0.68783   0.00000  Uiso   1.00
Zn781  Zn    0.43565   0.83933   0.75521   0.00000  Uiso   1.00
Zn782  Zn    0.56435   0.82734   0.74479   0.00000  Uiso   1.00
C783   C     0.84816   0.93136   0.74912   0.00000  Uiso   1.00
C784   C     0.85439   0.87833   0.90862   0.00000  Uiso   1.00
C785   C     0.83095   0.83200   0.61502   0.00000  Uiso   1.00
C786   C     0.83152   0.83485   0.88500   0.00000  Uiso   1.00
C787   C     0.85907   0.87254   0.59182   0.00000  Uiso   1.00
C788   C     0.79551   0.79744   0.90678   0.00000  Uiso   1.00
C789   C     0.84466   0.88091   0.54833   0.00000  Uiso   1.00
C790   C     0.78351   0.80273   0.95374   0.00000  Uiso   1.00
C791   C     0.81286   0.84105   0.52512   0.00000  Uiso   1.00
C792   C     0.81219   0.84285   0.97817   0.00000  Uiso   1.00
C793   C     0.78578   0.79776   0.54779   0.00000  Uiso   1.00
C794   C     0.81847   0.73532   0.75103   0.00000  Uiso   1.00
C795   C     0.84161   0.88425   0.95546   0.00000  Uiso   1.00
C796   C     0.85875   0.92838   0.52745   0.00000  Uiso   1.00
C797   C     0.74390   0.76945   0.97721   0.00000  Uiso   1.00
C798   C     0.85531   0.93033   0.98066   0.00000  Uiso   1.00
C799   C     0.74889   0.76238   0.52323   0.00000  Uiso   1.00
C800   C     0.85443   0.98560   0.75571   0.00000  Uiso   1.00
C801   C     0.81194   0.68106   0.74491   0.00000  Uiso   1.00
C802   C     0.83358   0.83410   0.83653   0.00000  Uiso   1.00
C803   C     0.83294   0.83287   0.66342   0.00000  Uiso   1.00
C804   C     0.79530   0.79432   0.59395   0.00000  Uiso   1.00
Cl805  Cl    0.77047   0.74170   0.62694   0.00000  Uiso   1.00
Cl806  Cl    0.90623   0.91944   0.88004   0.00000  Uiso   1.00
Cl807  Cl    0.91952   0.90516   0.61472   0.00000  Uiso   1.00
Cl808  Cl    0.77588   0.73982   0.87504   0.00000  Uiso   1.00
Cl809  Cl    0.91178   0.67549   0.78812   0.00000  Uiso   1.00
Cl810  Cl    0.75360   0.99106   0.71358   0.00000  Uiso   1.00
Cl811  Cl    0.67612   0.76638   0.70785   0.00000  Uiso   1.00
Cl812  Cl    0.99077   0.90092   0.79132   0.00000  Uiso   1.00
I813   I     0.87121   0.99967   0.56662   0.00000  Uiso   1.00
I814   I     0.99845   0.74674   0.94807   0.00000  Uiso   1.00
I815   I     0.85113   0.67057   0.95174   0.00000  Uiso   1.00
I816   I     0.70075   0.69494   0.54782   0.00000  Uiso   1.00
N817   N     0.98344   0.81932   0.73783   0.00000  Uiso   1.00
N818   N     0.68322   0.84735   0.76217   0.00000  Uiso   1.00
O819   O     0.79642   0.91286   0.75299   0.00000  Uiso   1.00
O820   O     0.87025   0.75381   0.74702   0.00000  Uiso   1.00
O821   O     0.89280   0.90387   0.74519   0.00000  Uiso   1.00
O822   O     0.77387   0.76279   0.75482   0.00000  Uiso   1.00
O823   O     0.78514   0.83784   0.81998   0.00000  Uiso   1.00
O824   O     0.88153   0.82883   0.68003   0.00000  Uiso   1.00
O825   O     0.88152   0.82885   0.81218   0.00000  Uiso   1.00
O826   O     0.78515   0.83781   0.68783   0.00000  Uiso   1.00
Zn827  Zn    0.76898   0.83933   0.75521   0.00000  Uiso   1.00
Zn828  Zn    0.89769   0.82734   0.74479   0.00000  Uiso   1.00
loop_
_geom_bond_atom_site_label_1
_geom_bond_atom_site_label_2
_geom_bond_distance
_geom_bond_site_symmetry_2
_ccdc_geom_bond_type
C1     O37     1.282   .     A
C1     C18     1.409   .     S
C1     O39     1.302   .     A
C2     C4      1.398   .     A
C2     Cl24    1.765   .     S
C2     C13     1.401   .     A
C3     C21     1.441   .     S
C3     C22     1.404   .     A
C3     C5      1.391   .     A
C4     C6      1.398   .     A
C4     C20     1.435   .     S
C5     Cl25    1.777   .     S
C5     C7      1.394   .     A
C6     Cl26    1.779   .     S
C6     C8      1.401   .     A
C7     C9      1.420   .     A
C7     C14     1.416   .     A
C8     C15     1.400   .     A
C8     C10     1.406   .     A
C9     C11     1.429   .     A
C9     C424    1.399   1_554 S
C10    C13     1.413   .     A
C10    C423    1.399   .     S
C11    C22     1.415   .     A
C11    C17     1.436   .     A
C12    O40     1.301   .     A
C12    C19     1.409   .     S
C12    O38     1.283   .     A
C13    C16     1.409   .     A
C14    I31     2.147   .     S
C14    C430    1.402   1_554 S
C15    C431    1.404   .     S
C15    I124    2.150   1_455 S
C16    C428    1.402   .     S
C16    I171    2.144   .     S
C17    I34     2.152   .     S
C17    C429    1.404   1_554 S
C18    C157    1.355   .     S
C18    Cl165   1.780   .     S
C19    C294    1.355   1_545 S
C19    Cl304   1.781   1_545 S
C20    O41     1.292   .     A
C20    O43     1.302   .     A
C21    O44     1.299   .     A
C21    O42     1.297   .     A
C22    Cl23    1.764   .     S
Cl27   C294    1.780   1_545 S
Cl28   C157    1.781   .     S
Cl29   N127    1.713   1_455 S
Cl30   N82     1.714   .     S
I32    C61     2.150   .     S
I33    C292    2.144   1_545 S
N35    Zn46    2.039   .     S
N35    Cl75    1.713   .     S
N35    N82     1.275   .     S
N36    Zn45    2.039   .     S
N36    Cl122   1.714   1_455 S
N36    N127    1.275   1_455 S
O37    Zn45    1.977   .     S
O38    Zn46    1.977   .     S
O39    Zn46    1.994   .     S
O40    Zn45    1.994   .     S
O41    Zn45    1.994   .     S
O42    Zn46    1.994   .     S
O43    Zn46    2.005   .     S
O44    Zn45    2.005   .     S
C47    O83     1.282   .     A
C47    C64     1.409   .     S
C47    O85     1.302   .     A
C48    C50     1.398   .     A
C48    Cl70    1.765   .     S
C48    C59     1.401   .     A
C49    C67     1.441   .     S
C49    C68     1.404   .     A
C49    C51     1.391   .     A
C50    C52     1.398   .     A
C50    C66     1.435   .     S
C51    Cl71    1.777   .     S
C51    C53     1.394   .     A
C52    Cl72    1.779   .     S
C52    C54     1.401   .     A
C53    C55     1.420   .     A
C53    C60     1.416   .     A
C54    C61     1.400   .     A
C54    C56     1.406   .     A
C55    C57     1.429   .     A
C55    C470    1.399   1_554 S
C56    C59     1.413   .     A
C56    C469    1.399   .     S
C57    C68     1.415   .     A
C57    C63     1.436   .     A
C58    O86     1.301   .     A
C58    C65     1.409   .     S
C58    O84     1.283   .     A
C59    C62     1.409   .     A
C60    I77     2.147   .     S
C60    C476    1.402   1_554 S
C61    C477    1.404   .     S
C62    C474    1.402   .     S
C62    I217    2.144   .     S
C63    I80     2.152   .     S
C63    C475    1.404   1_554 S
C64    C203    1.355   .     S
C64    Cl211   1.780   .     S
C65    C340    1.355   1_545 S
C65    Cl350   1.781   1_545 S
C66    O87     1.292   .     A
C66    O89     1.302   .     A
C67    O90     1.299   .     A
C67    O88     1.297   .     A
C68    Cl69    1.764   .     S
Cl73   C340    1.780   1_545 S
Cl74   C203    1.781   .     S
Cl76   N128    1.714   .     S
I78    C107    2.150   .     S
I79    C338    2.144   1_545 S
N81    Zn92    2.039   .     S
N81    Cl121   1.713   .     S
N81    N128    1.275   .     S
N82    Zn91    2.039   .     S
O83    Zn91    1.977   .     S
O84    Zn92    1.977   .     S
O85    Zn92    1.994   .     S
O86    Zn91    1.994   .     S
O87    Zn91    1.994   .     S
O88    Zn92    1.994   .     S
O89    Zn92    2.005   .     S
O90    Zn91    2.005   .     S
C93    O129    1.282   .     A
C93    C110    1.409   .     S
C93    O131    1.302   .     A
C94    C96     1.398   .     A
C94    Cl116   1.765   .     S
C94    C105    1.401   .     A
C95    C113    1.441   .     S
C95    C114    1.404   .     A
C95    C97     1.391   .     A
C96    C98     1.398   .     A
C96    C112    1.435   .     S
C97    Cl117   1.777   .     S
C97    C99     1.394   .     A
C98    Cl118   1.779   .     S
C98    C100    1.401   .     A
C99    C101    1.420   .     A
C99    C106    1.416   .     A
C100   C107    1.400   .     A
C100   C102    1.406   .     A
C101   C103    1.429   .     A
C101   C516    1.399   1_554 S
C102   C105    1.413   .     A
C102   C515    1.399   .     S
C103   C114    1.415   .     A
C103   C109    1.436   .     A
C104   O132    1.301   .     A
C104   C111    1.409   .     S
C104   O130    1.283   .     A
C105   C108    1.409   .     A
C106   I123    2.147   .     S
C106   C522    1.402   1_554 S
C107   C523    1.404   .     S
C108   C520    1.402   .     S
C108   I263    2.144   .     S
C109   I126    2.152   .     S
C109   C521    1.404   1_554 S
C110   C249    1.355   .     S
C110   Cl257   1.780   .     S
C111   C386    1.355   1_545 S
C111   Cl396   1.781   1_545 S
C112   O133    1.292   .     A
C112   O135    1.302   .     A
C113   O136    1.299   .     A
C113   O134    1.297   .     A
C114   Cl115   1.764   .     S
Cl119  C386    1.780   1_545 S
Cl120  C249    1.781   .     S
Cl122  N36     1.714   1_655 S
I124   C15     2.150   1_655 S
I125   C384    2.144   1_545 S
N127   Zn138   2.039   .     S
N127   Cl29    1.713   1_655 S
N127   N36     1.275   1_655 S
N128   Zn137   2.039   .     S
O129   Zn137   1.977   .     S
O130   Zn138   1.977   .     S
O131   Zn138   1.994   .     S
O132   Zn137   1.994   .     S
O133   Zn137   1.994   .     S
O134   Zn138   1.994   .     S
O135   Zn138   2.005   .     S
O136   Zn137   2.005   .     S
C139   O175    1.282   .     A
C139   C156    1.409   .     S
C139   O177    1.302   .     A
C140   C142    1.398   .     A
C140   Cl162   1.765   .     S
C140   C151    1.401   .     A
C141   C159    1.441   .     S
C141   C160    1.404   .     A
C141   C143    1.391   .     A
C142   C144    1.398   .     A
C142   C158    1.435   .     S
C143   Cl163   1.777   .     S
C143   C145    1.394   .     A
C144   Cl164   1.779   .     S
C144   C146    1.401   .     A
C145   C147    1.420   .     A
C145   C152    1.416   .     A
C146   C153    1.400   .     A
C146   C148    1.406   .     A
C147   C149    1.429   .     A
C147   C562    1.399   1_554 S
C148   C151    1.413   .     A
C148   C561    1.399   .     S
C149   C160    1.415   .     A
C149   C155    1.436   .     A
C150   O178    1.301   .     A
C150   C157    1.409   .     S
C150   O176    1.283   .     A
C151   C154    1.409   .     A
C152   I169    2.147   .     S
C152   C568    1.402   1_554 S
C153   C569    1.404   .     S
C153   I262    2.150   1_455 S
C154   C566    1.402   .     S
C154   I309    2.144   .     S
C155   I172    2.152   .     S
C155   C567    1.404   1_554 S
C156   C295    1.355   .     S
C156   Cl303   1.780   .     S
C158   O179    1.292   .     A
C158   O181    1.302   .     A
C159   O182    1.299   .     A
C159   O180    1.297   .     A
C160   Cl161   1.764   .     S
Cl166  C295    1.781   .     S
Cl167  N265    1.713   1_455 S
Cl168  N220    1.714   .     S
I170   C199    2.150   .     S
N173   Zn184   2.039   .     S
N173   Cl213   1.713   .     S
N173   N220    1.275   .     S
N174   Zn183   2.039   .     S
N174   Cl260   1.714   1_455 S
N174   N265    1.275   1_455 S
O175   Zn183   1.977   .     S
O176   Zn184   1.977   .     S
O177   Zn184   1.994   .     S
O178   Zn183   1.994   .     S
O179   Zn183   1.994   .     S
O180   Zn184   1.994   .     S
O181   Zn184   2.005   .     S
O182   Zn183   2.005   .     S
C185   O221    1.282   .     A
C185   C202    1.409   .     S
C185   O223    1.302   .     A
C186   C188    1.398   .     A
C186   Cl208   1.765   .     S
C186   C197    1.401   .     A
C187   C205    1.441   .     S
C187   C206    1.404   .     A
C187   C189    1.391   .     A
C188   C190    1.398   .     A
C188   C204    1.435   .     S
C189   Cl209   1.777   .     S
C189   C191    1.394   .     A
C190   Cl210   1.779   .     S
C190   C192    1.401   .     A
C191   C193    1.420   .     A
C191   C198    1.416   .     A
C192   C199    1.400   .     A
C192   C194    1.406   .     A
C193   C195    1.429   .     A
C193   C608    1.399   1_554 S
C194   C197    1.413   .     A
C194   C607    1.399   .     S
C195   C206    1.415   .     A
C195   C201    1.436   .     A
C196   O224    1.301   .     A
C196   C203    1.409   .     S
C196   O222    1.283   .     A
C197   C200    1.409   .     A
C198   I215    2.147   .     S
C198   C614    1.402   1_554 S
C199   C615    1.404   .     S
C200   C612    1.402   .     S
C200   I355    2.144   .     S
C201   I218    2.152   .     S
C201   C613    1.404   1_554 S
C202   C341    1.355   .     S
C202   Cl349   1.780   .     S
C204   O225    1.292   .     A
C204   O227    1.302   .     A
C205   O228    1.299   .     A
C205   O226    1.297   .     A
C206   Cl207   1.764   .     S
Cl212  C341    1.781   .     S
Cl214  N266    1.714   .     S
I216   C245    2.150   .     S
N219   Zn230   2.039   .     S
N219   Cl259   1.713   .     S
N219   N266    1.275   .     S
N220   Zn229   2.039   .     S
O221   Zn229   1.977   .     S
O222   Zn230   1.977   .     S
O223   Zn230   1.994   .     S
O224   Zn229   1.994   .     S
O225   Zn229   1.994   .     S
O226   Zn230   1.994   .     S
O227   Zn230   2.005   .     S
O228   Zn229   2.005   .     S
C231   O267    1.282   .     A
C231   C248    1.409   .     S
C231   O269    1.302   .     A
C232   C234    1.398   .     A
C232   Cl254   1.765   .     S
C232   C243    1.401   .     A
C233   C251    1.441   .     S
C233   C252    1.404   .     A
C233   C235    1.391   .     A
C234   C236    1.398   .     A
C234   C250    1.435   .     S
C235   Cl255   1.777   .     S
C235   C237    1.394   .     A
C236   Cl256   1.779   .     S
C236   C238    1.401   .     A
C237   C239    1.420   .     A
C237   C244    1.416   .     A
C238   C245    1.400   .     A
C238   C240    1.406   .     A
C239   C241    1.429   .     A
C239   C654    1.399   1_554 S
C240   C243    1.413   .     A
C240   C653    1.399   .     S
C241   C252    1.415   .     A
C241   C247    1.436   .     A
C242   O270    1.301   .     A
C242   C249    1.409   .     S
C242   O268    1.283   .     A
C243   C246    1.409   .     A
C244   I261    2.147   .     S
C244   C660    1.402   1_554 S
C245   C661    1.404   .     S
C246   C658    1.402   .     S
C246   I401    2.144   .     S
C247   I264    2.152   .     S
C247   C659    1.404   1_554 S
C248   C387    1.355   .     S
C248   Cl395   1.780   .     S
C250   O271    1.292   .     A
C250   O273    1.302   .     A
C251   O274    1.299   .     A
C251   O272    1.297   .     A
C252   Cl253   1.764   .     S
Cl258  C387    1.781   .     S
Cl260  N174    1.714   1_655 S
I262   C153    2.150   1_655 S
N265   Zn276   2.039   .     S
N265   Cl167   1.713   1_655 S
N265   N174    1.275   1_655 S
N266   Zn275   2.039   .     S
O267   Zn275   1.977   .     S
O268   Zn276   1.977   .     S
O269   Zn276   1.994   .     S
O270   Zn275   1.994   .     S
O271   Zn275   1.994   .     S
O272   Zn276   1.994   .     S
O273   Zn276   2.005   .     S
O274   Zn275   2.005   .     S
C277   O313    1.282   .     A
C277   C294    1.409   .     S
C277   O315    1.302   .     A
C278   C280    1.398   .     A
C278   Cl300   1.765   .     S
C278   C289    1.401   .     A
C279   C297    1.441   .     S
C279   C298    1.404   .     A
C279   C281    1.391   .     A
C280   C282    1.398   .     A
C280   C296    1.435   .     S
C281   Cl301   1.777   .     S
C281   C283    1.394   .     A
C282   Cl302   1.779   .     S
C282   C284    1.401   .     A
C283   C285    1.420   .     A
C283   C290    1.416   .     A
C284   C291    1.400   .     A
C284   C286    1.406   .     A
C285   C287    1.429   .     A
C285   C700    1.399   1_554 S
C286   C289    1.413   .     A
C286   C699    1.399   .     S
C287   C298    1.415   .     A
C287   C293    1.436   .     A
C288   O316    1.301   .     A
C288   C295    1.409   .     S
C288   O314    1.283   .     A
C289   C292    1.409   .     A
C290   I307    2.147   .     S
C290   C706    1.402   1_554 S
C291   C707    1.404   .     S
C291   I400    2.150   1_455 S
C292   C704    1.402   .     S
C292   I33     2.144   1_565 S
C293   I310    2.152   .     S
C293   C705    1.404   1_554 S
C294   C19     1.355   1_565 S
C294   Cl27    1.780   1_565 S
C296   O317    1.292   .     A
C296   O319    1.302   .     A
C297   O320    1.299   .     A
C297   O318    1.297   .     A
C298   Cl299   1.764   .     S
Cl304  C19     1.781   1_565 S
Cl305  N403    1.713   1_455 S
Cl306  N358    1.714   .     S
I308   C337    2.150   .     S
N311   Zn322   2.039   .     S
N311   Cl351   1.713   .     S
N311   N358    1.275   .     S
N312   Zn321   2.039   .     S
N312   Cl398   1.714   1_455 S
N312   N403    1.275   1_455 S
O313   Zn321   1.977   .     S
O314   Zn322   1.977   .     S
O315   Zn322   1.994   .     S
O316   Zn321   1.994   .     S
O317   Zn321   1.994   .     S
O318   Zn322   1.994   .     S
O319   Zn322   2.005   .     S
O320   Zn321   2.005   .     S
C323   O359    1.282   .     A
C323   C340    1.409   .     S
C323   O361    1.302   .     A
C324   C326    1.398   .     A
C324   Cl346   1.765   .     S
C324   C335    1.401   .     A
C325   C343    1.441   .     S
C325   C344    1.404   .     A
C325   C327    1.391   .     A
C326   C328    1.398   .     A
C326   C342    1.435   .     S
C327   Cl347   1.777   .     S
C327   C329    1.394   .     A
C328   Cl348   1.779   .     S
C328   C330    1.401   .     A
C329   C331    1.420   .     A
C329   C336    1.416   .     A
C330   C337    1.400   .     A
C330   C332    1.406   .     A
C331   C333    1.429   .     A
C331   C746    1.399   1_554 S
C332   C335    1.413   .     A
C332   C745    1.399   .     S
C333   C344    1.415   .     A
C333   C339    1.436   .     A
C334   O362    1.301   .     A
C334   C341    1.409   .     S
C334   O360    1.283   .     A
C335   C338    1.409   .     A
C336   I353    2.147   .     S
C336   C752    1.402   1_554 S
C337   C753    1.404   .     S
C338   C750    1.402   .     S
C338   I79     2.144   1_565 S
C339   I356    2.152   .     S
C339   C751    1.404   1_554 S
C340   C65     1.355   1_565 S
C340   Cl73    1.780   1_565 S
C342   O363    1.292   .     A
C342   O365    1.302   .     A
C343   O366    1.299   .     A
C343   O364    1.297   .     A
C344   Cl345   1.764   .     S
Cl350  C65     1.781   1_565 S
Cl352  N404    1.714   .     S
I354   C383    2.150   .     S
N357   Zn368   2.039   .     S
N357   Cl397   1.713   .     S
N357   N404    1.275   .     S
N358   Zn367   2.039   .     S
O359   Zn367   1.977   .     S
O360   Zn368   1.977   .     S
O361   Zn368   1.994   .     S
O362   Zn367   1.994   .     S
O363   Zn367   1.994   .     S
O364   Zn368   1.994   .     S
O365   Zn368   2.005   .     S
O366   Zn367   2.005   .     S
C369   O405    1.282   .     A
C369   C386    1.409   .     S
C369   O407    1.302   .     A
C370   C372    1.398   .     A
C370   Cl392   1.765   .     S
C370   C381    1.401   .     A
C371   C389    1.441   .     S
C371   C390    1.404   .     A
C371   C373    1.391   .     A
C372   C374    1.398   .     A
C372   C388    1.435   .     S
C373   Cl393   1.777   .     S
C373   C375    1.394   .     A
C374   Cl394   1.779   .     S
C374   C376    1.401   .     A
C375   C377    1.420   .     A
C375   C382    1.416   .     A
C376   C383    1.400   .     A
C376   C378    1.406   .     A
C377   C379    1.429   .     A
C377   C792    1.399   1_554 S
C378   C381    1.413   .     A
C378   C791    1.399   .     S
C379   C390    1.415   .     A
C379   C385    1.436   .     A
C380   O408    1.301   .     A
C380   C387    1.409   .     S
C380   O406    1.283   .     A
C381   C384    1.409   .     A
C382   I399    2.147   .     S
C382   C798    1.402   1_554 S
C383   C799    1.404   .     S
C384   C796    1.402   .     S
C384   I125    2.144   1_565 S
C385   I402    2.152   .     S
C385   C797    1.404   1_554 S
C386   C111    1.355   1_565 S
C386   Cl119   1.780   1_565 S
C388   O409    1.292   .     A
C388   O411    1.302   .     A
C389   O412    1.299   .     A
C389   O410    1.297   .     A
C390   Cl391   1.764   .     S
Cl396  C111    1.781   1_565 S
Cl398  N312    1.714   1_655 S
I400   C291    2.150   1_655 S
N403   Zn414   2.039   .     S
N403   Cl305   1.713   1_655 S
N403   N312    1.275   1_655 S
N404   Zn413   2.039   .     S
O405   Zn413   1.977   .     S
O406   Zn414   1.977   .     S
O407   Zn414   1.994   .     S
O408   Zn413   1.994   .     S
O409   Zn413   1.994   .     S
O410   Zn414   1.994   .     S
O411   Zn414   2.005   .     S
O412   Zn413   2.005   .     S
C415   O451    1.282   .     A
C415   C432    1.409   .     S
C415   O453    1.302   .     A
C416   C418    1.398   .     A
C416   Cl438   1.765   .     S
C416   C427    1.401   .     A
C417   C435    1.441   .     S
C417   C436    1.404   .     A
C417   C419    1.391   .     A
C418   C420    1.398   .     A
C418   C434    1.435   .     S
C419   Cl439   1.777   .     S
C419   C421    1.394   .     A
C420   Cl440   1.779   .     S
C420   C422    1.401   .     A
C421   C423    1.420   .     A
C421   C428    1.416   .     A
C422   C429    1.400   .     A
C422   C424    1.406   .     A
C423   C425    1.429   .     A
C424   C427    1.413   .     A
C424   C9      1.399   1_556 S
C425   C436    1.415   .     A
C425   C431    1.436   .     A
C426   O454    1.301   .     A
C426   C433    1.409   .     S
C426   O452    1.283   .     A
C427   C430    1.409   .     A
C428   I445    2.147   .     S
C429   C17     1.404   1_556 S
C429   I538    2.150   1_455 S
C430   C14     1.402   1_556 S
C430   I585    2.144   .     S
C431   I448    2.152   .     S
C432   C571    1.355   .     S
C432   Cl579   1.780   .     S
C433   C708    1.355   1_545 S
C433   Cl718   1.781   1_545 S
C434   O455    1.292   .     A
C434   O457    1.302   .     A
C435   O458    1.299   .     A
C435   O456    1.297   .     A
C436   Cl437   1.764   .     S
Cl441  C708    1.780   1_545 S
Cl442  C571    1.781   .     S
Cl443  N541    1.713   1_455 S
Cl444  N496    1.714   .     S
I446   C475    2.150   .     S
I447   C706    2.144   1_545 S
N449   Zn460   2.039   .     S
N449   Cl489   1.713   .     S
N449   N496    1.275   .     S
N450   Zn459   2.039   .     S
N450   Cl536   1.714   1_455 S
N450   N541    1.275   1_455 S
O451   Zn459   1.977   .     S
O452   Zn460   1.977   .     S
O453   Zn460   1.994   .     S
O454   Zn459   1.994   .     S
O455   Zn459   1.994   .     S
O456   Zn460   1.994   .     S
O457   Zn460   2.005   .     S
O458   Zn459   2.005   .     S
C461   O497    1.282   .     A
C461   C478    1.409   .     S
C461   O499    1.302   .     A
C462   C464    1.398   .     A
C462   Cl484   1.765   .     S
C462   C473    1.401   .     A
C463   C481    1.441   .     S
C463   C482    1.404   .     A
C463   C465    1.391   .     A
C464   C466    1.398   .     A
C464   C480    1.435   .     S
C465   Cl485   1.777   .     S
C465   C467    1.394   .     A
C466   Cl486   1.779   .     S
C466   C468    1.401   .     A
C467   C469    1.420   .     A
C467   C474    1.416   .     A
C468   C475    1.400   .     A
C468   C470    1.406   .     A
C469   C471    1.429   .     A
C470   C473    1.413   .     A
C470   C55     1.399   1_556 S
C471   C482    1.415   .     A
C471   C477    1.436   .     A
C472   O500    1.301   .     A
C472   C479    1.409   .     S
C472   O498    1.283   .     A
C473   C476    1.409   .     A
C474   I491    2.147   .     S
C475   C63     1.404   1_556 S
C476   C60     1.402   1_556 S
C476   I631    2.144   .     S
C477   I494    2.152   .     S
C478   C617    1.355   .     S
C478   Cl625   1.780   .     S
C479   C754    1.355   1_545 S
C479   Cl764   1.781   1_545 S
C480   O501    1.292   .     A
C480   O503    1.302   .     A
C481   O504    1.299   .     A
C481   O502    1.297   .     A
C482   Cl483   1.764   .     S
Cl487  C754    1.780   1_545 S
Cl488  C617    1.781   .     S
Cl490  N542    1.714   .     S
I492   C521    2.150   .     S
I493   C752    2.144   1_545 S
N495   Zn506   2.039   .     S
N495   Cl535   1.713   .     S
N495   N542    1.275   .     S
N496   Zn505   2.039   .     S
O497   Zn505   1.977   .     S
O498   Zn506   1.977   .     S
O499   Zn506   1.994   .     S
O500   Zn505   1.994   .     S
O501   Zn505   1.994   .     S
O502   Zn506   1.994   .     S
O503   Zn506   2.005   .     S
O504   Zn505   2.005   .     S
C507   O543    1.282   .     A
C507   C524    1.409   .     S
C507   O545    1.302   .     A
C508   C510    1.398   .     A
C508   Cl530   1.765   .     S
C508   C519    1.401   .     A
C509   C527    1.441   .     S
C509   C528    1.404   .     A
C509   C511    1.391   .     A
C510   C512    1.398   .     A
C510   C526    1.435   .     S
C511   Cl531   1.777   .     S
C511   C513    1.394   .     A
C512   Cl532   1.779   .     S
C512   C514    1.401   .     A
C513   C515    1.420   .     A
C513   C520    1.416   .     A
C514   C521    1.400   .     A
C514   C516    1.406   .     A
C515   C517    1.429   .     A
C516   C519    1.413   .     A
C516   C101    1.399   1_556 S
C517   C528    1.415   .     A
C517   C523    1.436   .     A
C518   O546    1.301   .     A
C518   C525    1.409   .     S
C518   O544    1.283   .     A
C519   C522    1.409   .     A
C520   I537    2.147   .     S
C521   C109    1.404   1_556 S
C522   C106    1.402   1_556 S
C522   I677    2.144   .     S
C523   I540    2.152   .     S
C524   C663    1.355   .     S
C524   Cl671   1.780   .     S
C525   C800    1.355   1_545 S
C525   Cl810   1.781   1_545 S
C526   O547    1.292   .     A
C526   O549    1.302   .     A
C527   O550    1.299   .     A
C527   O548    1.297   .     A
C528   Cl529   1.764   .     S
Cl533  C800    1.780   1_545 S
Cl534  C663    1.781   .     S
Cl536  N450    1.714   1_655 S
I538   C429    2.150   1_655 S
I539   C798    2.144   1_545 S
N541   Zn552   2.039   .     S
N541   Cl443   1.713   1_655 S
N541   N450    1.275   1_655 S
N542   Zn551   2.039   .     S
O543   Zn551   1.977   .     S
O544   Zn552   1.977   .     S
O545   Zn552   1.994   .     S
O546   Zn551   1.994   .     S
O547   Zn551   1.994   .     S
O548   Zn552   1.994   .     S
O549   Zn552   2.005   .     S
O550   Zn551   2.005   .     S
C553   O589    1.282   .     A
C553   C570    1.409   .     S
C553   O591    1.302   .     A
C554   C556    1.398   .     A
C554   Cl576   1.765   .     S
C554   C565    1.401   .     A
C555   C573    1.441   .     S
C555   C574    1.404   .     A
C555   C557    1.391   .     A
C556   C558    1.398   .     A
C556   C572    1.435   .     S
C557   Cl577   1.777   .     S
C557   C559    1.394   .     A
C558   Cl578   1.779   .     S
C558   C560    1.401   .     A
C559   C561    1.420   .     A
C559   C566    1.416   .     A
C560   C567    1.400   .     A
C560   C562    1.406   .     A
C561   C563    1.429   .     A
C562   C565    1.413   .     A
C562   C147    1.399   1_556 S
C563   C574    1.415   .     A
C563   C569    1.436   .     A
C564   O592    1.301   .     A
C564   C571    1.409   .     S
C564   O590    1.283   .     A
C565   C568    1.409   .     A
C566   I583    2.147   .     S
C567   C155    1.404   1_556 S
C567   I676    2.150   1_455 S
C568   C152    1.402   1_556 S
C568   I723    2.144   .     S
C569   I586    2.152   .     S
C570   C709    1.355   .     S
C570   Cl717   1.780   .     S
C572   O593    1.292   .     A
C572   O595    1.302   .     A
C573   O596    1.299   .     A
C573   O594    1.297   .     A
C574   Cl575   1.764   .     S
Cl580  C709    1.781   .     S
Cl581  N679    1.713   1_455 S
Cl582  N634    1.714   .     S
I584   C613    2.150   .     S
N587   Zn598   2.039   .     S
N587   Cl627   1.713   .     S
N587   N634    1.275   .     S
N588   Zn597   2.039   .     S
N588   Cl674   1.714   1_455 S
N588   N679    1.275   1_455 S
O589   Zn597   1.977   .     S
O590   Zn598   1.977   .     S
O591   Zn598   1.994   .     S
O592   Zn597   1.994   .     S
O593   Zn597   1.994   .     S
O594   Zn598   1.994   .     S
O595   Zn598   2.005   .     S
O596   Zn597   2.005   .     S
C599   O635    1.282   .     A
C599   C616    1.409   .     S
C599   O637    1.302   .     A
C600   C602    1.398   .     A
C600   Cl622   1.765   .     S
C600   C611    1.401   .     A
C601   C619    1.441   .     S
C601   C620    1.404   .     A
C601   C603    1.391   .     A
C602   C604    1.398   .     A
C602   C618    1.435   .     S
C603   Cl623   1.777   .     S
C603   C605    1.394   .     A
C604   Cl624   1.779   .     S
C604   C606    1.401   .     A
C605   C607    1.420   .     A
C605   C612    1.416   .     A
C606   C613    1.400   .     A
C606   C608    1.406   .     A
C607   C609    1.429   .     A
C608   C611    1.413   .     A
C608   C193    1.399   1_556 S
C609   C620    1.415   .     A
C609   C615    1.436   .     A
C610   O638    1.301   .     A
C610   C617    1.409   .     S
C610   O636    1.283   .     A
C611   C614    1.409   .     A
C612   I629    2.147   .     S
C613   C201    1.404   1_556 S
C614   C198    1.402   1_556 S
C614   I769    2.144   .     S
C615   I632    2.152   .     S
C616   C755    1.355   .     S
C616   Cl763   1.780   .     S
C618   O639    1.292   .     A
C618   O641    1.302   .     A
C619   O642    1.299   .     A
C619   O640    1.297   .     A
C620   Cl621   1.764   .     S
Cl626  C755    1.781   .     S
Cl628  N680    1.714   .     S
I630   C659    2.150   .     S
N633   Zn644   2.039   .     S
N633   Cl673   1.713   .     S
N633   N680    1.275   .     S
N634   Zn643   2.039   .     S
O635   Zn643   1.977   .     S
O636   Zn644   1.977   .     S
O637   Zn644   1.994   .     S
O638   Zn643   1.994   .     S
O639   Zn643   1.994   .     S
O640   Zn644   1.994   .     S
O641   Zn644   2.005   .     S
O642   Zn643   2.005   .     S
C645   O681    1.282   .     A
C645   C662    1.409   .     S
C645   O683    1.302   .     A
C646   C648    1.398   .     A
C646   Cl668   1.765   .     S
C646   C657    1.401   .     A
C647   C665    1.441   .     S
C647   C666    1.404   .     A
C647   C649    1.391   .     A
C648   C650    1.398   .     A
C648   C664    1.435   .     S
C649   Cl669   1.777   .     S
C649   C651    1.394   .     A
C650   Cl670   1.779   .     S
C650   C652    1.401   .     A
C651   C653    1.420   .     A
C651   C658    1.416   .     A
C652   C659    1.400   .     A
C652   C654    1.406   .     A
C653   C655    1.429   .     A
C654   C657    1.413   .     A
C654   C239    1.399   1_556 S
C655   C666    1.415   .     A
C655   C661    1.436   .     A
C656   O684    1.301   .     A
C656   C663    1.409   .     S
C656   O682    1.283   .     A
C657   C660    1.409   .     A
C658   I675    2.147   .     S
C659   C247    1.404   1_556 S
C660   C244    1.402   1_556 S
C660   I815    2.144   .     S
C661   I678    2.152   .     S
C662   C801    1.355   .     S
C662   Cl809   1.780   .     S
C664   O685    1.292   .     A
C664   O687    1.302   .     A
C665   O688    1.299   .     A
C665   O686    1.297   .     A
C666   Cl667   1.764   .     S
Cl672  C801    1.781   .     S
Cl674  N588    1.714   1_655 S
I676   C567    2.150   1_655 S
N679   Zn690   2.039   .     S
N679   Cl581   1.713   1_655 S
N679   N588    1.275   1_655 S
N680   Zn689   2.039   .     S
O681   Zn689   1.977   .     S
O682   Zn690   1.977   .     S
O683   Zn690   1.994   .     S
O684   Zn689   1.994   .     S
O685   Zn689   1.994   .     S
O686   Zn690   1.994   .     S
O687   Zn690   2.005   .     S
O688   Zn689   2.005   .     S
C691   O727    1.282   .     A
C691   C708    1.409   .     S
C691   O729    1.302   .     A
C692   C694    1.398   .     A
C692   Cl714   1.765   .     S
C692   C703    1.401   .     A
C693   C711    1.441   .     S
C693   C712    1.404   .     A
C693   C695    1.391   .     A
C694   C696    1.398   .     A
C694   C710    1.435   .     S
C695   Cl715   1.777   .     S
C695   C697    1.394   .     A
C696   Cl716   1.779   .     S
C696   C698    1.401   .     A
C697   C699    1.420   .     A
C697   C704    1.416   .     A
C698   C705    1.400   .     A
C698   C700    1.406   .     A
C699   C701    1.429   .     A
C700   C703    1.413   .     A
C700   C285    1.399   1_556 S
C701   C712    1.415   .     A
C701   C707    1.436   .     A
C702   O730    1.301   .     A
C702   C709    1.409   .     S
C702   O728    1.283   .     A
C703   C706    1.409   .     A
C704   I721    2.147   .     S
C705   C293    1.404   1_556 S
C705   I814    2.150   1_455 S
C706   C290    1.402   1_556 S
C706   I447    2.144   1_565 S
C707   I724    2.152   .     S
C708   C433    1.355   1_565 S
C708   Cl441   1.780   1_565 S
C710   O731    1.292   .     A
C710   O733    1.302   .     A
C711   O734    1.299   .     A
C711   O732    1.297   .     A
C712   Cl713   1.764   .     S
Cl718  C433    1.781   1_565 S
Cl719  N817    1.713   1_455 S
Cl720  N772    1.714   .     S
I722   C751    2.150   .     S
N725   Zn736   2.039   .     S
N725   Cl765   1.713   .     S
N725   N772    1.275   .     S
N726   Zn735   2.039   .     S
N726   Cl812   1.714   1_455 S
N726   N817    1.275   1_455 S
O727   Zn735   1.977   .     S
O728   Zn736   1.977   .     S
O729   Zn736   1.994   .     S
O730   Zn735   1.994   .     S
O731   Zn735   1.994   .     S
O732   Zn736   1.994   .     S
O733   Zn736   2.005   .     S
O734   Zn735   2.005   .     S
C737   O773    1.282   .     A
C737   C754    1.409   .     S
C737   O775    1.302   .     A
C738   C740    1.398   .     A
C738   Cl760   1.765   .     S
C738   C749    1.401   .     A
C739   C757    1.441   .     S
C739   C758    1.404   .     A
C739   C741    1.391   .     A
C740   C742    1.398   .     A
C740   C756    1.435   .     S
C741   Cl761   1.777   .     S
C741   C743    1.394   .     A
C742   Cl762   1.779   .     S
C742   C744    1.401   .     A
C743   C745    1.420   .     A
C743   C750    1.416   .     A
C744   C751    1.400   .     A
C744   C746    1.406   .     A
C745   C747    1.429   .     A
C746   C749    1.413   .     A
C746   C331    1.399   1_556 S
C747   C758    1.415   .     A
C747   C753    1.436   .     A
C748   O776    1.301   .     A
C748   C755    1.409   .     S
C748   O774    1.283   .     A
C749   C752    1.409   .     A
C750   I767    2.147   .     S
C751   C339    1.404   1_556 S
C752   C336    1.402   1_556 S
C752   I493    2.144   1_565 S
C753   I770    2.152   .     S
C754   C479    1.355   1_565 S
C754   Cl487   1.780   1_565 S
C756   O777    1.292   .     A
C756   O779    1.302   .     A
C757   O780    1.299   .     A
C757   O778    1.297   .     A
C758   Cl759   1.764   .     S
Cl764  C479    1.781   1_565 S
Cl766  N818    1.714   .     S
I768   C797    2.150   .     S
N771   Zn782   2.039   .     S
N771   Cl811   1.713   .     S
N771   N818    1.275   .     S
N772   Zn781   2.039   .     S
O773   Zn781   1.977   .     S
O774   Zn782   1.977   .     S
O775   Zn782   1.994   .     S
O776   Zn781   1.994   .     S
O777   Zn781   1.994   .     S
O778   Zn782   1.994   .     S
O779   Zn782   2.005   .     S
O780   Zn781   2.005   .     S
C783   O819    1.282   .     A
C783   C800    1.409   .     S
C783   O821    1.302   .     A
C784   C786    1.398   .     A
C784   Cl806   1.765   .     S
C784   C795    1.401   .     A
C785   C803    1.441   .     S
C785   C804    1.404   .     A
C785   C787    1.391   .     A
C786   C788    1.398   .     A
C786   C802    1.435   .     S
C787   Cl807   1.777   .     S
C787   C789    1.394   .     A
C788   Cl808   1.779   .     S
C788   C790    1.401   .     A
C789   C791    1.420   .     A
C789   C796    1.416   .     A
C790   C797    1.400   .     A
C790   C792    1.406   .     A
C791   C793    1.429   .     A
C792   C795    1.413   .     A
C792   C377    1.399   1_556 S
C793   C804    1.415   .     A
C793   C799    1.436   .     A
C794   O822    1.301   .     A
C794   C801    1.409   .     S
C794   O820    1.283   .     A
C795   C798    1.409   .     A
C796   I813    2.147   .     S
C797   C385    1.404   1_556 S
C798   C382    1.402   1_556 S
C798   I539    2.144   1_565 S
C799   I816    2.152   .     S
C800   C525    1.355   1_565 S
C800   Cl533   1.780   1_565 S
C802   O823    1.292   .     A
C802   O825    1.302   .     A
C803   O826    1.299   .     A
C803   O824    1.297   .     A
C804   Cl805   1.764   .     S
Cl810  C525    1.781   1_565 S
Cl812  N726    1.714   1_655 S
I814   C705    2.150   1_655 S
N817   Zn828   2.039   .     S
N817   Cl719   1.713   1_655 S
N817   N726    1.275   1_655 S
N818   Zn827   2.039   .     S
O819   Zn827   1.977   .     S
O820   Zn828   1.977   .     S
O821   Zn828   1.994   .     S
O822   Zn827   1.994   .     S
O823   Zn827   1.994   .     S
O824   Zn828   1.994   .     S
O825   Zn828   2.005   .     S
O826   Zn827   2.005   .     S
