data_str_m3_o1_o17_pcu_sym.187
_audit_creation_date              2020-01-03
_audit_creation_method            'Materials Studio'
_symmetry_space_group_name_H-M    'P1'
_symmetry_Int_Tables_number       1
_symmetry_cell_setting            triclinic
loop_
_symmetry_equiv_pos_as_xyz
  x,y,z
_cell_length_a                    32.1564
_cell_length_b                    29.4686
_cell_length_c                    30.0289
_cell_angle_alpha                 89.9375
_cell_angle_beta                  90.1183
_cell_angle_gamma                 90.0063
loop_
_atom_site_label
_atom_site_type_symbol
_atom_site_fract_x
_atom_site_fract_y
_atom_site_fract_z
_atom_site_U_iso_or_equiv
_atom_site_adp_type
_atom_site_occupancy
C1     C     0.08661   0.16666   0.24997   0.00000  Uiso   1.00
C2     C     0.24673   0.16667   0.25003   0.00000  Uiso   1.00
C3     C     0.14985   0.08592   0.02374   0.00000  Uiso   1.00
C4     C     0.18076   0.24788   0.47627   0.00000  Uiso   1.00
C5     C     0.02131   0.12614   0.25834   0.00000  Uiso   1.00
C6     C     0.31202   0.20719   0.24166   0.00000  Uiso   1.00
C7     C     0.31205   0.12615   0.25839   0.00000  Uiso   1.00
C8     C     0.02129   0.20719   0.24161   0.00000  Uiso   1.00
C9     C     0.29087   0.16667   0.25004   0.00000  Uiso   1.00
C10    C     0.04247   0.16666   0.24996   0.00000  Uiso   1.00
C11    C     0.19165   0.02398   0.27863   0.00000  Uiso   1.00
C12    C     0.14168   0.30936   0.22137   0.00000  Uiso   1.00
C13    C     0.14168   0.02403   0.22137   0.00000  Uiso   1.00
C14    C     0.19165   0.30930   0.27863   0.00000  Uiso   1.00
C15    C     0.16658   0.16670   0.16327   0.00000  Uiso   1.00
C16    C     0.16663   0.16664   0.33673   0.00000  Uiso   1.00
C17    C     0.17347   0.20702   0.40748   0.00000  Uiso   1.00
C18    C     0.15828   0.12654   0.09254   0.00000  Uiso   1.00
C19    C     0.16622   0.16659   0.38464   0.00000  Uiso   1.00
C20    C     0.16616   0.16684   0.11536   0.00000  Uiso   1.00
C21    C     0.15837   0.12617   0.40745   0.00000  Uiso   1.00
C22    C     0.17348   0.20736   0.09253   0.00000  Uiso   1.00
C23    C     0.15758   0.12566   0.45371   0.00000  Uiso   1.00
C24    C     0.17312   0.20811   0.04627   0.00000  Uiso   1.00
C25    C     0.16529   0.16670   0.47682   0.00000  Uiso   1.00
C26    C     0.16533   0.16709   0.02318   0.00000  Uiso   1.00
C27    C     0.17317   0.20737   0.45350   0.00000  Uiso   1.00
C28    C     0.15779   0.12635   0.04651   0.00000  Uiso   1.00
C29    C     0.14945   0.08514   0.47725   0.00000  Uiso   1.00
C30    C     0.18070   0.24875   0.02275   0.00000  Uiso   1.00
H31    H     0.17969   0.23822   0.38947   0.00000  Uiso   1.00
H32    H     0.15234   0.09529   0.11059   0.00000  Uiso   1.00
H33    H     0.15275   0.09523   0.38895   0.00000  Uiso   1.00
H34    H     0.17982   0.23816   0.11099   0.00000  Uiso   1.00
H35    H     0.14382   0.05498   0.04220   0.00000  Uiso   1.00
H36    H     0.18667   0.27886   0.45782   0.00000  Uiso   1.00
H37    H     0.03755   0.09465   0.26511   0.00000  Uiso   1.00
H38    H     0.29579   0.23869   0.23489   0.00000  Uiso   1.00
H39    H     0.29583   0.09466   0.26520   0.00000  Uiso   1.00
H40    H     0.03750   0.23867   0.23480   0.00000  Uiso   1.00
H41    H     0.21162   0.04219   0.30149   0.00000  Uiso   1.00
H42    H     0.12172   0.29114   0.19850   0.00000  Uiso   1.00
H43    H     0.12172   0.04229   0.19850   0.00000  Uiso   1.00
H44    H     0.21161   0.29104   0.30150   0.00000  Uiso   1.00
N45    N     0.16667   0.28573   0.25000   0.00000  Uiso   1.00
N46    N     0.16667   0.04760   0.25000   0.00000  Uiso   1.00
O47    O     0.10559   0.20487   0.25000   0.00000  Uiso   1.00
O48    O     0.22774   0.12846   0.25000   0.00000  Uiso   1.00
O49    O     0.22774   0.20487   0.25001   0.00000  Uiso   1.00
O50    O     0.10559   0.12846   0.25000   0.00000  Uiso   1.00
O51    O     0.16666   0.20489   0.18393   0.00000  Uiso   1.00
O52    O     0.16667   0.12844   0.31607   0.00000  Uiso   1.00
O53    O     0.16667   0.20489   0.31608   0.00000  Uiso   1.00
O54    O     0.16666   0.12844   0.18393   0.00000  Uiso   1.00
Zn55   Zn    0.16667   0.21771   0.25000   0.00000  Uiso   1.00
Zn56   Zn    0.16667   0.11563   0.25000   0.00000  Uiso   1.00
N57    N     0.14093   0.04350   0.45397   0.00000  Uiso   1.00
H58    H     0.11168   0.04683   0.43904   0.00000  Uiso   1.00
H59    H     0.13857   0.01641   0.47633   0.00000  Uiso   1.00
N60    N     0.18848   0.29053   0.04605   0.00000  Uiso   1.00
H61    H     0.16021   0.30129   0.05957   0.00000  Uiso   1.00
H62    H     0.19802   0.31589   0.02393   0.00000  Uiso   1.00
C63    C     0.41994   0.16666   0.24997   0.00000  Uiso   1.00
C64    C     0.58006   0.16667   0.25003   0.00000  Uiso   1.00
C65    C     0.48319   0.08592   0.02374   0.00000  Uiso   1.00
C66    C     0.51410   0.24788   0.47627   0.00000  Uiso   1.00
C67    C     0.35465   0.12614   0.25834   0.00000  Uiso   1.00
C68    C     0.64535   0.20719   0.24166   0.00000  Uiso   1.00
C69    C     0.64538   0.12615   0.25839   0.00000  Uiso   1.00
C70    C     0.35462   0.20719   0.24161   0.00000  Uiso   1.00
C71    C     0.62420   0.16667   0.25004   0.00000  Uiso   1.00
C72    C     0.37580   0.16666   0.24996   0.00000  Uiso   1.00
C73    C     0.52499   0.02398   0.27863   0.00000  Uiso   1.00
C74    C     0.47501   0.30936   0.22137   0.00000  Uiso   1.00
C75    C     0.47501   0.02403   0.22137   0.00000  Uiso   1.00
C76    C     0.52499   0.30930   0.27863   0.00000  Uiso   1.00
C77    C     0.49991   0.16670   0.16327   0.00000  Uiso   1.00
C78    C     0.49996   0.16664   0.33673   0.00000  Uiso   1.00
C79    C     0.50681   0.20702   0.40748   0.00000  Uiso   1.00
C80    C     0.49162   0.12654   0.09254   0.00000  Uiso   1.00
C81    C     0.49955   0.16659   0.38464   0.00000  Uiso   1.00
C82    C     0.49950   0.16684   0.11536   0.00000  Uiso   1.00
C83    C     0.49171   0.12617   0.40745   0.00000  Uiso   1.00
C84    C     0.50682   0.20736   0.09253   0.00000  Uiso   1.00
C85    C     0.49091   0.12566   0.45371   0.00000  Uiso   1.00
C86    C     0.50645   0.20811   0.04627   0.00000  Uiso   1.00
C87    C     0.49862   0.16670   0.47682   0.00000  Uiso   1.00
C88    C     0.49866   0.16709   0.02318   0.00000  Uiso   1.00
C89    C     0.50650   0.20737   0.45350   0.00000  Uiso   1.00
C90    C     0.49113   0.12635   0.04651   0.00000  Uiso   1.00
C91    C     0.48278   0.08514   0.47725   0.00000  Uiso   1.00
C92    C     0.51403   0.24875   0.02275   0.00000  Uiso   1.00
H93    H     0.51303   0.23822   0.38947   0.00000  Uiso   1.00
H94    H     0.48568   0.09529   0.11059   0.00000  Uiso   1.00
H95    H     0.48608   0.09523   0.38895   0.00000  Uiso   1.00
H96    H     0.51316   0.23816   0.11099   0.00000  Uiso   1.00
H97    H     0.47716   0.05498   0.04220   0.00000  Uiso   1.00
H98    H     0.52001   0.27886   0.45782   0.00000  Uiso   1.00
H99    H     0.37088   0.09465   0.26511   0.00000  Uiso   1.00
H100   H     0.62912   0.23869   0.23489   0.00000  Uiso   1.00
H101   H     0.62917   0.09466   0.26520   0.00000  Uiso   1.00
H102   H     0.37083   0.23867   0.23480   0.00000  Uiso   1.00
H103   H     0.54495   0.04219   0.30149   0.00000  Uiso   1.00
H104   H     0.45505   0.29114   0.19850   0.00000  Uiso   1.00
H105   H     0.45506   0.04229   0.19850   0.00000  Uiso   1.00
H106   H     0.54495   0.29104   0.30150   0.00000  Uiso   1.00
N107   N     0.50000   0.28573   0.25000   0.00000  Uiso   1.00
N108   N     0.50000   0.04760   0.25000   0.00000  Uiso   1.00
O109   O     0.43892   0.20487   0.25000   0.00000  Uiso   1.00
O110   O     0.56108   0.12846   0.25000   0.00000  Uiso   1.00
O111   O     0.56108   0.20487   0.25001   0.00000  Uiso   1.00
O112   O     0.43892   0.12846   0.25000   0.00000  Uiso   1.00
O113   O     0.49999   0.20489   0.18393   0.00000  Uiso   1.00
O114   O     0.50001   0.12844   0.31607   0.00000  Uiso   1.00
O115   O     0.50001   0.20489   0.31608   0.00000  Uiso   1.00
O116   O     0.49999   0.12844   0.18393   0.00000  Uiso   1.00
Zn117  Zn    0.50000   0.21771   0.25000   0.00000  Uiso   1.00
Zn118  Zn    0.50000   0.11563   0.25000   0.00000  Uiso   1.00
N119   N     0.47426   0.04350   0.45397   0.00000  Uiso   1.00
H120   H     0.44501   0.04683   0.43904   0.00000  Uiso   1.00
H121   H     0.47190   0.01641   0.47633   0.00000  Uiso   1.00
N122   N     0.52181   0.29053   0.04605   0.00000  Uiso   1.00
H123   H     0.49355   0.30129   0.05957   0.00000  Uiso   1.00
H124   H     0.53136   0.31589   0.02393   0.00000  Uiso   1.00
C125   C     0.75327   0.16666   0.24997   0.00000  Uiso   1.00
C126   C     0.91339   0.16667   0.25003   0.00000  Uiso   1.00
C127   C     0.81652   0.08592   0.02374   0.00000  Uiso   1.00
C128   C     0.84743   0.24788   0.47627   0.00000  Uiso   1.00
C129   C     0.68798   0.12614   0.25834   0.00000  Uiso   1.00
C130   C     0.97869   0.20719   0.24166   0.00000  Uiso   1.00
C131   C     0.97871   0.12615   0.25839   0.00000  Uiso   1.00
C132   C     0.68795   0.20719   0.24161   0.00000  Uiso   1.00
C133   C     0.95753   0.16667   0.25004   0.00000  Uiso   1.00
C134   C     0.70914   0.16666   0.24996   0.00000  Uiso   1.00
C135   C     0.85832   0.02398   0.27863   0.00000  Uiso   1.00
C136   C     0.80835   0.30936   0.22137   0.00000  Uiso   1.00
C137   C     0.80835   0.02403   0.22137   0.00000  Uiso   1.00
C138   C     0.85832   0.30930   0.27863   0.00000  Uiso   1.00
C139   C     0.83325   0.16670   0.16327   0.00000  Uiso   1.00
C140   C     0.83330   0.16664   0.33673   0.00000  Uiso   1.00
C141   C     0.84014   0.20702   0.40748   0.00000  Uiso   1.00
C142   C     0.82495   0.12654   0.09254   0.00000  Uiso   1.00
C143   C     0.83289   0.16659   0.38464   0.00000  Uiso   1.00
C144   C     0.83283   0.16684   0.11536   0.00000  Uiso   1.00
C145   C     0.82504   0.12617   0.40745   0.00000  Uiso   1.00
C146   C     0.84015   0.20736   0.09253   0.00000  Uiso   1.00
C147   C     0.82424   0.12566   0.45371   0.00000  Uiso   1.00
C148   C     0.83979   0.20811   0.04627   0.00000  Uiso   1.00
C149   C     0.83195   0.16670   0.47682   0.00000  Uiso   1.00
C150   C     0.83200   0.16709   0.02318   0.00000  Uiso   1.00
C151   C     0.83984   0.20737   0.45350   0.00000  Uiso   1.00
C152   C     0.82446   0.12635   0.04651   0.00000  Uiso   1.00
C153   C     0.81612   0.08514   0.47725   0.00000  Uiso   1.00
C154   C     0.84736   0.24875   0.02275   0.00000  Uiso   1.00
H155   H     0.84636   0.23822   0.38947   0.00000  Uiso   1.00
H156   H     0.81901   0.09529   0.11059   0.00000  Uiso   1.00
H157   H     0.81942   0.09523   0.38895   0.00000  Uiso   1.00
H158   H     0.84649   0.23816   0.11099   0.00000  Uiso   1.00
H159   H     0.81049   0.05498   0.04220   0.00000  Uiso   1.00
H160   H     0.85334   0.27886   0.45782   0.00000  Uiso   1.00
H161   H     0.70421   0.09465   0.26511   0.00000  Uiso   1.00
H162   H     0.96245   0.23869   0.23489   0.00000  Uiso   1.00
H163   H     0.96250   0.09466   0.26520   0.00000  Uiso   1.00
H164   H     0.70417   0.23867   0.23480   0.00000  Uiso   1.00
H165   H     0.87829   0.04219   0.30149   0.00000  Uiso   1.00
H166   H     0.78839   0.29114   0.19850   0.00000  Uiso   1.00
H167   H     0.78839   0.04229   0.19850   0.00000  Uiso   1.00
H168   H     0.87828   0.29104   0.30150   0.00000  Uiso   1.00
N169   N     0.83333   0.28573   0.25000   0.00000  Uiso   1.00
N170   N     0.83333   0.04760   0.25000   0.00000  Uiso   1.00
O171   O     0.77226   0.20487   0.25000   0.00000  Uiso   1.00
O172   O     0.89441   0.12846   0.25000   0.00000  Uiso   1.00
O173   O     0.89441   0.20487   0.25001   0.00000  Uiso   1.00
O174   O     0.77226   0.12846   0.25000   0.00000  Uiso   1.00
O175   O     0.83333   0.20489   0.18393   0.00000  Uiso   1.00
O176   O     0.83334   0.12844   0.31607   0.00000  Uiso   1.00
O177   O     0.83334   0.20489   0.31608   0.00000  Uiso   1.00
O178   O     0.83333   0.12844   0.18393   0.00000  Uiso   1.00
Zn179  Zn    0.83333   0.21771   0.25000   0.00000  Uiso   1.00
Zn180  Zn    0.83333   0.11563   0.25000   0.00000  Uiso   1.00
N181   N     0.80759   0.04350   0.45397   0.00000  Uiso   1.00
H182   H     0.77835   0.04683   0.43904   0.00000  Uiso   1.00
H183   H     0.80523   0.01641   0.47633   0.00000  Uiso   1.00
N184   N     0.85514   0.29053   0.04605   0.00000  Uiso   1.00
H185   H     0.82688   0.30129   0.05957   0.00000  Uiso   1.00
H186   H     0.86469   0.31589   0.02393   0.00000  Uiso   1.00
C187   C     0.08661   0.50000   0.24997   0.00000  Uiso   1.00
C188   C     0.24673   0.50000   0.25003   0.00000  Uiso   1.00
C189   C     0.14985   0.41925   0.02374   0.00000  Uiso   1.00
C190   C     0.18076   0.58121   0.47627   0.00000  Uiso   1.00
C191   C     0.02131   0.45947   0.25834   0.00000  Uiso   1.00
C192   C     0.31202   0.54053   0.24166   0.00000  Uiso   1.00
C193   C     0.31205   0.45948   0.25839   0.00000  Uiso   1.00
C194   C     0.02129   0.54052   0.24161   0.00000  Uiso   1.00
C195   C     0.29087   0.50001   0.25004   0.00000  Uiso   1.00
C196   C     0.04247   0.49999   0.24996   0.00000  Uiso   1.00
C197   C     0.19165   0.35731   0.27863   0.00000  Uiso   1.00
C198   C     0.14168   0.64269   0.22137   0.00000  Uiso   1.00
C199   C     0.14168   0.35737   0.22137   0.00000  Uiso   1.00
C200   C     0.19165   0.64263   0.27863   0.00000  Uiso   1.00
C201   C     0.16658   0.50003   0.16327   0.00000  Uiso   1.00
C202   C     0.16663   0.49997   0.33673   0.00000  Uiso   1.00
C203   C     0.17347   0.54035   0.40748   0.00000  Uiso   1.00
C204   C     0.15828   0.45987   0.09254   0.00000  Uiso   1.00
C205   C     0.16622   0.49993   0.38464   0.00000  Uiso   1.00
C206   C     0.16616   0.50017   0.11536   0.00000  Uiso   1.00
C207   C     0.15837   0.45951   0.40745   0.00000  Uiso   1.00
C208   C     0.17348   0.54070   0.09253   0.00000  Uiso   1.00
C209   C     0.15758   0.45899   0.45371   0.00000  Uiso   1.00
C210   C     0.17312   0.54145   0.04627   0.00000  Uiso   1.00
C211   C     0.16529   0.50003   0.47682   0.00000  Uiso   1.00
C212   C     0.16533   0.50042   0.02318   0.00000  Uiso   1.00
C213   C     0.17317   0.54071   0.45350   0.00000  Uiso   1.00
C214   C     0.15779   0.45968   0.04651   0.00000  Uiso   1.00
C215   C     0.14945   0.41848   0.47725   0.00000  Uiso   1.00
C216   C     0.18070   0.58208   0.02275   0.00000  Uiso   1.00
H217   H     0.17969   0.57156   0.38947   0.00000  Uiso   1.00
H218   H     0.15234   0.42862   0.11059   0.00000  Uiso   1.00
H219   H     0.15275   0.42857   0.38895   0.00000  Uiso   1.00
H220   H     0.17982   0.57150   0.11099   0.00000  Uiso   1.00
H221   H     0.14382   0.38832   0.04220   0.00000  Uiso   1.00
H222   H     0.18667   0.61220   0.45782   0.00000  Uiso   1.00
H223   H     0.03755   0.42798   0.26511   0.00000  Uiso   1.00
H224   H     0.29579   0.57202   0.23489   0.00000  Uiso   1.00
H225   H     0.29583   0.42800   0.26520   0.00000  Uiso   1.00
H226   H     0.03750   0.57200   0.23480   0.00000  Uiso   1.00
H227   H     0.21162   0.37553   0.30149   0.00000  Uiso   1.00
H228   H     0.12172   0.62447   0.19850   0.00000  Uiso   1.00
H229   H     0.12172   0.37563   0.19850   0.00000  Uiso   1.00
H230   H     0.21161   0.62437   0.30150   0.00000  Uiso   1.00
N231   N     0.16667   0.61907   0.25000   0.00000  Uiso   1.00
N232   N     0.16667   0.38093   0.25000   0.00000  Uiso   1.00
O233   O     0.10559   0.53821   0.25000   0.00000  Uiso   1.00
O234   O     0.22774   0.46179   0.25000   0.00000  Uiso   1.00
O235   O     0.22774   0.53821   0.25001   0.00000  Uiso   1.00
O236   O     0.10559   0.46179   0.25000   0.00000  Uiso   1.00
O237   O     0.16666   0.53823   0.18393   0.00000  Uiso   1.00
O238   O     0.16667   0.46177   0.31607   0.00000  Uiso   1.00
O239   O     0.16667   0.53823   0.31608   0.00000  Uiso   1.00
O240   O     0.16666   0.46177   0.18393   0.00000  Uiso   1.00
Zn241  Zn    0.16667   0.55104   0.25000   0.00000  Uiso   1.00
Zn242  Zn    0.16667   0.44896   0.25000   0.00000  Uiso   1.00
N243   N     0.14093   0.37684   0.45397   0.00000  Uiso   1.00
H244   H     0.11168   0.38016   0.43904   0.00000  Uiso   1.00
H245   H     0.13857   0.34975   0.47633   0.00000  Uiso   1.00
N246   N     0.18848   0.62386   0.04605   0.00000  Uiso   1.00
H247   H     0.16021   0.63462   0.05957   0.00000  Uiso   1.00
H248   H     0.19802   0.64922   0.02393   0.00000  Uiso   1.00
C249   C     0.41994   0.50000   0.24997   0.00000  Uiso   1.00
C250   C     0.58006   0.50000   0.25003   0.00000  Uiso   1.00
C251   C     0.48319   0.41925   0.02374   0.00000  Uiso   1.00
C252   C     0.51410   0.58121   0.47627   0.00000  Uiso   1.00
C253   C     0.35465   0.45947   0.25834   0.00000  Uiso   1.00
C254   C     0.64535   0.54053   0.24166   0.00000  Uiso   1.00
C255   C     0.64538   0.45948   0.25839   0.00000  Uiso   1.00
C256   C     0.35462   0.54052   0.24161   0.00000  Uiso   1.00
C257   C     0.62420   0.50001   0.25004   0.00000  Uiso   1.00
C258   C     0.37580   0.49999   0.24996   0.00000  Uiso   1.00
C259   C     0.52499   0.35731   0.27863   0.00000  Uiso   1.00
C260   C     0.47501   0.64269   0.22137   0.00000  Uiso   1.00
C261   C     0.47501   0.35737   0.22137   0.00000  Uiso   1.00
C262   C     0.52499   0.64263   0.27863   0.00000  Uiso   1.00
C263   C     0.49991   0.50003   0.16327   0.00000  Uiso   1.00
C264   C     0.49996   0.49997   0.33673   0.00000  Uiso   1.00
C265   C     0.50681   0.54035   0.40748   0.00000  Uiso   1.00
C266   C     0.49162   0.45987   0.09254   0.00000  Uiso   1.00
C267   C     0.49955   0.49993   0.38464   0.00000  Uiso   1.00
C268   C     0.49950   0.50017   0.11536   0.00000  Uiso   1.00
C269   C     0.49171   0.45951   0.40745   0.00000  Uiso   1.00
C270   C     0.50682   0.54070   0.09253   0.00000  Uiso   1.00
C271   C     0.49091   0.45899   0.45371   0.00000  Uiso   1.00
C272   C     0.50645   0.54145   0.04627   0.00000  Uiso   1.00
C273   C     0.49862   0.50003   0.47682   0.00000  Uiso   1.00
C274   C     0.49866   0.50042   0.02318   0.00000  Uiso   1.00
C275   C     0.50650   0.54071   0.45350   0.00000  Uiso   1.00
C276   C     0.49113   0.45968   0.04651   0.00000  Uiso   1.00
C277   C     0.48278   0.41848   0.47725   0.00000  Uiso   1.00
C278   C     0.51403   0.58208   0.02275   0.00000  Uiso   1.00
H279   H     0.51303   0.57156   0.38947   0.00000  Uiso   1.00
H280   H     0.48568   0.42862   0.11059   0.00000  Uiso   1.00
H281   H     0.48608   0.42857   0.38895   0.00000  Uiso   1.00
H282   H     0.51316   0.57150   0.11099   0.00000  Uiso   1.00
H283   H     0.47716   0.38832   0.04220   0.00000  Uiso   1.00
H284   H     0.52001   0.61220   0.45782   0.00000  Uiso   1.00
H285   H     0.37088   0.42798   0.26511   0.00000  Uiso   1.00
H286   H     0.62912   0.57202   0.23489   0.00000  Uiso   1.00
H287   H     0.62917   0.42800   0.26520   0.00000  Uiso   1.00
H288   H     0.37083   0.57200   0.23480   0.00000  Uiso   1.00
H289   H     0.54495   0.37553   0.30149   0.00000  Uiso   1.00
H290   H     0.45505   0.62447   0.19850   0.00000  Uiso   1.00
H291   H     0.45506   0.37563   0.19850   0.00000  Uiso   1.00
H292   H     0.54495   0.62437   0.30150   0.00000  Uiso   1.00
N293   N     0.50000   0.61907   0.25000   0.00000  Uiso   1.00
N294   N     0.50000   0.38093   0.25000   0.00000  Uiso   1.00
O295   O     0.43892   0.53821   0.25000   0.00000  Uiso   1.00
O296   O     0.56108   0.46179   0.25000   0.00000  Uiso   1.00
O297   O     0.56108   0.53821   0.25001   0.00000  Uiso   1.00
O298   O     0.43892   0.46179   0.25000   0.00000  Uiso   1.00
O299   O     0.49999   0.53823   0.18393   0.00000  Uiso   1.00
O300   O     0.50001   0.46177   0.31607   0.00000  Uiso   1.00
O301   O     0.50001   0.53823   0.31608   0.00000  Uiso   1.00
O302   O     0.49999   0.46177   0.18393   0.00000  Uiso   1.00
Zn303  Zn    0.50000   0.55104   0.25000   0.00000  Uiso   1.00
Zn304  Zn    0.50000   0.44896   0.25000   0.00000  Uiso   1.00
N305   N     0.47426   0.37684   0.45397   0.00000  Uiso   1.00
H306   H     0.44501   0.38016   0.43904   0.00000  Uiso   1.00
H307   H     0.47190   0.34975   0.47633   0.00000  Uiso   1.00
N308   N     0.52181   0.62386   0.04605   0.00000  Uiso   1.00
H309   H     0.49355   0.63462   0.05957   0.00000  Uiso   1.00
H310   H     0.53136   0.64922   0.02393   0.00000  Uiso   1.00
C311   C     0.75327   0.50000   0.24997   0.00000  Uiso   1.00
C312   C     0.91339   0.50000   0.25003   0.00000  Uiso   1.00
C313   C     0.81652   0.41925   0.02374   0.00000  Uiso   1.00
C314   C     0.84743   0.58121   0.47627   0.00000  Uiso   1.00
C315   C     0.68798   0.45947   0.25834   0.00000  Uiso   1.00
C316   C     0.97869   0.54053   0.24166   0.00000  Uiso   1.00
C317   C     0.97871   0.45948   0.25839   0.00000  Uiso   1.00
C318   C     0.68795   0.54052   0.24161   0.00000  Uiso   1.00
C319   C     0.95753   0.50001   0.25004   0.00000  Uiso   1.00
C320   C     0.70914   0.49999   0.24996   0.00000  Uiso   1.00
C321   C     0.85832   0.35731   0.27863   0.00000  Uiso   1.00
C322   C     0.80835   0.64269   0.22137   0.00000  Uiso   1.00
C323   C     0.80835   0.35737   0.22137   0.00000  Uiso   1.00
C324   C     0.85832   0.64263   0.27863   0.00000  Uiso   1.00
C325   C     0.83325   0.50003   0.16327   0.00000  Uiso   1.00
C326   C     0.83330   0.49997   0.33673   0.00000  Uiso   1.00
C327   C     0.84014   0.54035   0.40748   0.00000  Uiso   1.00
C328   C     0.82495   0.45987   0.09254   0.00000  Uiso   1.00
C329   C     0.83289   0.49993   0.38464   0.00000  Uiso   1.00
C330   C     0.83283   0.50017   0.11536   0.00000  Uiso   1.00
C331   C     0.82504   0.45951   0.40745   0.00000  Uiso   1.00
C332   C     0.84015   0.54070   0.09253   0.00000  Uiso   1.00
C333   C     0.82424   0.45899   0.45371   0.00000  Uiso   1.00
C334   C     0.83979   0.54145   0.04627   0.00000  Uiso   1.00
C335   C     0.83195   0.50003   0.47682   0.00000  Uiso   1.00
C336   C     0.83200   0.50042   0.02318   0.00000  Uiso   1.00
C337   C     0.83984   0.54071   0.45350   0.00000  Uiso   1.00
C338   C     0.82446   0.45968   0.04651   0.00000  Uiso   1.00
C339   C     0.81612   0.41848   0.47725   0.00000  Uiso   1.00
C340   C     0.84736   0.58208   0.02275   0.00000  Uiso   1.00
H341   H     0.84636   0.57156   0.38947   0.00000  Uiso   1.00
H342   H     0.81901   0.42862   0.11059   0.00000  Uiso   1.00
H343   H     0.81942   0.42857   0.38895   0.00000  Uiso   1.00
H344   H     0.84649   0.57150   0.11099   0.00000  Uiso   1.00
H345   H     0.81049   0.38832   0.04220   0.00000  Uiso   1.00
H346   H     0.85334   0.61220   0.45782   0.00000  Uiso   1.00
H347   H     0.70421   0.42798   0.26511   0.00000  Uiso   1.00
H348   H     0.96245   0.57202   0.23489   0.00000  Uiso   1.00
H349   H     0.96250   0.42800   0.26520   0.00000  Uiso   1.00
H350   H     0.70417   0.57200   0.23480   0.00000  Uiso   1.00
H351   H     0.87829   0.37553   0.30149   0.00000  Uiso   1.00
H352   H     0.78839   0.62447   0.19850   0.00000  Uiso   1.00
H353   H     0.78839   0.37563   0.19850   0.00000  Uiso   1.00
H354   H     0.87828   0.62437   0.30150   0.00000  Uiso   1.00
N355   N     0.83333   0.61907   0.25000   0.00000  Uiso   1.00
N356   N     0.83333   0.38093   0.25000   0.00000  Uiso   1.00
O357   O     0.77226   0.53821   0.25000   0.00000  Uiso   1.00
O358   O     0.89441   0.46179   0.25000   0.00000  Uiso   1.00
O359   O     0.89441   0.53821   0.25001   0.00000  Uiso   1.00
O360   O     0.77226   0.46179   0.25000   0.00000  Uiso   1.00
O361   O     0.83333   0.53823   0.18393   0.00000  Uiso   1.00
O362   O     0.83334   0.46177   0.31607   0.00000  Uiso   1.00
O363   O     0.83334   0.53823   0.31608   0.00000  Uiso   1.00
O364   O     0.83333   0.46177   0.18393   0.00000  Uiso   1.00
Zn365  Zn    0.83333   0.55104   0.25000   0.00000  Uiso   1.00
Zn366  Zn    0.83333   0.44896   0.25000   0.00000  Uiso   1.00
N367   N     0.80759   0.37684   0.45397   0.00000  Uiso   1.00
H368   H     0.77835   0.38016   0.43904   0.00000  Uiso   1.00
H369   H     0.80523   0.34975   0.47633   0.00000  Uiso   1.00
N370   N     0.85514   0.62386   0.04605   0.00000  Uiso   1.00
H371   H     0.82688   0.63462   0.05957   0.00000  Uiso   1.00
H372   H     0.86469   0.64922   0.02393   0.00000  Uiso   1.00
C373   C     0.08661   0.83333   0.24997   0.00000  Uiso   1.00
C374   C     0.24673   0.83334   0.25003   0.00000  Uiso   1.00
C375   C     0.14985   0.75259   0.02374   0.00000  Uiso   1.00
C376   C     0.18076   0.91455   0.47627   0.00000  Uiso   1.00
C377   C     0.02131   0.79281   0.25834   0.00000  Uiso   1.00
C378   C     0.31202   0.87386   0.24166   0.00000  Uiso   1.00
C379   C     0.31205   0.79282   0.25839   0.00000  Uiso   1.00
C380   C     0.02129   0.87385   0.24161   0.00000  Uiso   1.00
C381   C     0.29087   0.83334   0.25004   0.00000  Uiso   1.00
C382   C     0.04247   0.83333   0.24996   0.00000  Uiso   1.00
C383   C     0.19165   0.69064   0.27863   0.00000  Uiso   1.00
C384   C     0.14168   0.97602   0.22137   0.00000  Uiso   1.00
C385   C     0.14168   0.69070   0.22137   0.00000  Uiso   1.00
C386   C     0.19165   0.97597   0.27863   0.00000  Uiso   1.00
C387   C     0.16658   0.83337   0.16327   0.00000  Uiso   1.00
C388   C     0.16663   0.83331   0.33673   0.00000  Uiso   1.00
C389   C     0.17347   0.87369   0.40748   0.00000  Uiso   1.00
C390   C     0.15828   0.79320   0.09254   0.00000  Uiso   1.00
C391   C     0.16622   0.83326   0.38464   0.00000  Uiso   1.00
C392   C     0.16616   0.83351   0.11536   0.00000  Uiso   1.00
C393   C     0.15837   0.79284   0.40745   0.00000  Uiso   1.00
C394   C     0.17348   0.87403   0.09253   0.00000  Uiso   1.00
C395   C     0.15758   0.79233   0.45371   0.00000  Uiso   1.00
C396   C     0.17312   0.87478   0.04627   0.00000  Uiso   1.00
C397   C     0.16529   0.83336   0.47682   0.00000  Uiso   1.00
C398   C     0.16533   0.83376   0.02318   0.00000  Uiso   1.00
C399   C     0.17317   0.87404   0.45350   0.00000  Uiso   1.00
C400   C     0.15779   0.79301   0.04651   0.00000  Uiso   1.00
C401   C     0.14945   0.75181   0.47725   0.00000  Uiso   1.00
C402   C     0.18070   0.91541   0.02275   0.00000  Uiso   1.00
H403   H     0.17969   0.90489   0.38947   0.00000  Uiso   1.00
H404   H     0.15234   0.76196   0.11059   0.00000  Uiso   1.00
H405   H     0.15275   0.76190   0.38895   0.00000  Uiso   1.00
H406   H     0.17982   0.90483   0.11099   0.00000  Uiso   1.00
H407   H     0.14382   0.72165   0.04220   0.00000  Uiso   1.00
H408   H     0.18667   0.94553   0.45782   0.00000  Uiso   1.00
H409   H     0.03755   0.76131   0.26511   0.00000  Uiso   1.00
H410   H     0.29579   0.90535   0.23489   0.00000  Uiso   1.00
H411   H     0.29583   0.76133   0.26520   0.00000  Uiso   1.00
H412   H     0.03750   0.90534   0.23480   0.00000  Uiso   1.00
H413   H     0.21162   0.70886   0.30149   0.00000  Uiso   1.00
H414   H     0.12172   0.95781   0.19850   0.00000  Uiso   1.00
H415   H     0.12172   0.70896   0.19850   0.00000  Uiso   1.00
H416   H     0.21161   0.95771   0.30150   0.00000  Uiso   1.00
N417   N     0.16667   0.95240   0.25000   0.00000  Uiso   1.00
N418   N     0.16667   0.71427   0.25000   0.00000  Uiso   1.00
O419   O     0.10559   0.87154   0.25000   0.00000  Uiso   1.00
O420   O     0.22774   0.79513   0.25000   0.00000  Uiso   1.00
O421   O     0.22774   0.87154   0.25001   0.00000  Uiso   1.00
O422   O     0.10559   0.79513   0.25000   0.00000  Uiso   1.00
O423   O     0.16666   0.87156   0.18393   0.00000  Uiso   1.00
O424   O     0.16667   0.79511   0.31607   0.00000  Uiso   1.00
O425   O     0.16667   0.87156   0.31608   0.00000  Uiso   1.00
O426   O     0.16666   0.79511   0.18393   0.00000  Uiso   1.00
Zn427  Zn    0.16667   0.88437   0.25000   0.00000  Uiso   1.00
Zn428  Zn    0.16667   0.78229   0.25000   0.00000  Uiso   1.00
N429   N     0.14093   0.71017   0.45397   0.00000  Uiso   1.00
H430   H     0.11168   0.71350   0.43904   0.00000  Uiso   1.00
H431   H     0.13857   0.68308   0.47633   0.00000  Uiso   1.00
N432   N     0.18848   0.95720   0.04605   0.00000  Uiso   1.00
H433   H     0.16021   0.96795   0.05957   0.00000  Uiso   1.00
H434   H     0.19802   0.98255   0.02393   0.00000  Uiso   1.00
C435   C     0.41994   0.83333   0.24997   0.00000  Uiso   1.00
C436   C     0.58006   0.83334   0.25003   0.00000  Uiso   1.00
C437   C     0.48319   0.75259   0.02374   0.00000  Uiso   1.00
C438   C     0.51410   0.91455   0.47627   0.00000  Uiso   1.00
C439   C     0.35465   0.79281   0.25834   0.00000  Uiso   1.00
C440   C     0.64535   0.87386   0.24166   0.00000  Uiso   1.00
C441   C     0.64538   0.79282   0.25839   0.00000  Uiso   1.00
C442   C     0.35462   0.87385   0.24161   0.00000  Uiso   1.00
C443   C     0.62420   0.83334   0.25004   0.00000  Uiso   1.00
C444   C     0.37580   0.83333   0.24996   0.00000  Uiso   1.00
C445   C     0.52499   0.69064   0.27863   0.00000  Uiso   1.00
C446   C     0.47501   0.97602   0.22137   0.00000  Uiso   1.00
C447   C     0.47501   0.69070   0.22137   0.00000  Uiso   1.00
C448   C     0.52499   0.97597   0.27863   0.00000  Uiso   1.00
C449   C     0.49991   0.83337   0.16327   0.00000  Uiso   1.00
C450   C     0.49996   0.83331   0.33673   0.00000  Uiso   1.00
C451   C     0.50681   0.87369   0.40748   0.00000  Uiso   1.00
C452   C     0.49162   0.79320   0.09254   0.00000  Uiso   1.00
C453   C     0.49955   0.83326   0.38464   0.00000  Uiso   1.00
C454   C     0.49950   0.83351   0.11536   0.00000  Uiso   1.00
C455   C     0.49171   0.79284   0.40745   0.00000  Uiso   1.00
C456   C     0.50682   0.87403   0.09253   0.00000  Uiso   1.00
C457   C     0.49091   0.79233   0.45371   0.00000  Uiso   1.00
C458   C     0.50645   0.87478   0.04627   0.00000  Uiso   1.00
C459   C     0.49862   0.83336   0.47682   0.00000  Uiso   1.00
C460   C     0.49866   0.83376   0.02318   0.00000  Uiso   1.00
C461   C     0.50650   0.87404   0.45350   0.00000  Uiso   1.00
C462   C     0.49113   0.79301   0.04651   0.00000  Uiso   1.00
C463   C     0.48278   0.75181   0.47725   0.00000  Uiso   1.00
C464   C     0.51403   0.91541   0.02275   0.00000  Uiso   1.00
H465   H     0.51303   0.90489   0.38947   0.00000  Uiso   1.00
H466   H     0.48568   0.76196   0.11059   0.00000  Uiso   1.00
H467   H     0.48608   0.76190   0.38895   0.00000  Uiso   1.00
H468   H     0.51316   0.90483   0.11099   0.00000  Uiso   1.00
H469   H     0.47716   0.72165   0.04220   0.00000  Uiso   1.00
H470   H     0.52001   0.94553   0.45782   0.00000  Uiso   1.00
H471   H     0.37088   0.76131   0.26511   0.00000  Uiso   1.00
H472   H     0.62912   0.90535   0.23489   0.00000  Uiso   1.00
H473   H     0.62917   0.76133   0.26520   0.00000  Uiso   1.00
H474   H     0.37083   0.90534   0.23480   0.00000  Uiso   1.00
H475   H     0.54495   0.70886   0.30149   0.00000  Uiso   1.00
H476   H     0.45505   0.95781   0.19850   0.00000  Uiso   1.00
H477   H     0.45506   0.70896   0.19850   0.00000  Uiso   1.00
H478   H     0.54495   0.95771   0.30150   0.00000  Uiso   1.00
N479   N     0.50000   0.95240   0.25000   0.00000  Uiso   1.00
N480   N     0.50000   0.71427   0.25000   0.00000  Uiso   1.00
O481   O     0.43892   0.87154   0.25000   0.00000  Uiso   1.00
O482   O     0.56108   0.79513   0.25000   0.00000  Uiso   1.00
O483   O     0.56108   0.87154   0.25001   0.00000  Uiso   1.00
O484   O     0.43892   0.79513   0.25000   0.00000  Uiso   1.00
O485   O     0.49999   0.87156   0.18393   0.00000  Uiso   1.00
O486   O     0.50001   0.79511   0.31607   0.00000  Uiso   1.00
O487   O     0.50001   0.87156   0.31608   0.00000  Uiso   1.00
O488   O     0.49999   0.79511   0.18393   0.00000  Uiso   1.00
Zn489  Zn    0.50000   0.88437   0.25000   0.00000  Uiso   1.00
Zn490  Zn    0.50000   0.78229   0.25000   0.00000  Uiso   1.00
N491   N     0.47426   0.71017   0.45397   0.00000  Uiso   1.00
H492   H     0.44501   0.71350   0.43904   0.00000  Uiso   1.00
H493   H     0.47190   0.68308   0.47633   0.00000  Uiso   1.00
N494   N     0.52181   0.95720   0.04605   0.00000  Uiso   1.00
H495   H     0.49355   0.96795   0.05957   0.00000  Uiso   1.00
H496   H     0.53136   0.98255   0.02393   0.00000  Uiso   1.00
C497   C     0.75327   0.83333   0.24997   0.00000  Uiso   1.00
C498   C     0.91339   0.83334   0.25003   0.00000  Uiso   1.00
C499   C     0.81652   0.75259   0.02374   0.00000  Uiso   1.00
C500   C     0.84743   0.91455   0.47627   0.00000  Uiso   1.00
C501   C     0.68798   0.79281   0.25834   0.00000  Uiso   1.00
C502   C     0.97869   0.87386   0.24166   0.00000  Uiso   1.00
C503   C     0.97871   0.79282   0.25839   0.00000  Uiso   1.00
C504   C     0.68795   0.87385   0.24161   0.00000  Uiso   1.00
C505   C     0.95753   0.83334   0.25004   0.00000  Uiso   1.00
C506   C     0.70914   0.83333   0.24996   0.00000  Uiso   1.00
C507   C     0.85832   0.69064   0.27863   0.00000  Uiso   1.00
C508   C     0.80835   0.97602   0.22137   0.00000  Uiso   1.00
C509   C     0.80835   0.69070   0.22137   0.00000  Uiso   1.00
C510   C     0.85832   0.97597   0.27863   0.00000  Uiso   1.00
C511   C     0.83325   0.83337   0.16327   0.00000  Uiso   1.00
C512   C     0.83330   0.83331   0.33673   0.00000  Uiso   1.00
C513   C     0.84014   0.87369   0.40748   0.00000  Uiso   1.00
C514   C     0.82495   0.79320   0.09254   0.00000  Uiso   1.00
C515   C     0.83289   0.83326   0.38464   0.00000  Uiso   1.00
C516   C     0.83283   0.83351   0.11536   0.00000  Uiso   1.00
C517   C     0.82504   0.79284   0.40745   0.00000  Uiso   1.00
C518   C     0.84015   0.87403   0.09253   0.00000  Uiso   1.00
C519   C     0.82424   0.79233   0.45371   0.00000  Uiso   1.00
C520   C     0.83979   0.87478   0.04627   0.00000  Uiso   1.00
C521   C     0.83195   0.83336   0.47682   0.00000  Uiso   1.00
C522   C     0.83200   0.83376   0.02318   0.00000  Uiso   1.00
C523   C     0.83984   0.87404   0.45350   0.00000  Uiso   1.00
C524   C     0.82446   0.79301   0.04651   0.00000  Uiso   1.00
C525   C     0.81612   0.75181   0.47725   0.00000  Uiso   1.00
C526   C     0.84736   0.91541   0.02275   0.00000  Uiso   1.00
H527   H     0.84636   0.90489   0.38947   0.00000  Uiso   1.00
H528   H     0.81901   0.76196   0.11059   0.00000  Uiso   1.00
H529   H     0.81942   0.76190   0.38895   0.00000  Uiso   1.00
H530   H     0.84649   0.90483   0.11099   0.00000  Uiso   1.00
H531   H     0.81049   0.72165   0.04220   0.00000  Uiso   1.00
H532   H     0.85334   0.94553   0.45782   0.00000  Uiso   1.00
H533   H     0.70421   0.76131   0.26511   0.00000  Uiso   1.00
H534   H     0.96245   0.90535   0.23489   0.00000  Uiso   1.00
H535   H     0.96250   0.76133   0.26520   0.00000  Uiso   1.00
H536   H     0.70417   0.90534   0.23480   0.00000  Uiso   1.00
H537   H     0.87829   0.70886   0.30149   0.00000  Uiso   1.00
H538   H     0.78839   0.95781   0.19850   0.00000  Uiso   1.00
H539   H     0.78839   0.70896   0.19850   0.00000  Uiso   1.00
H540   H     0.87828   0.95771   0.30150   0.00000  Uiso   1.00
N541   N     0.83333   0.95240   0.25000   0.00000  Uiso   1.00
N542   N     0.83333   0.71427   0.25000   0.00000  Uiso   1.00
O543   O     0.77226   0.87154   0.25000   0.00000  Uiso   1.00
O544   O     0.89441   0.79513   0.25000   0.00000  Uiso   1.00
O545   O     0.89441   0.87154   0.25001   0.00000  Uiso   1.00
O546   O     0.77226   0.79513   0.25000   0.00000  Uiso   1.00
O547   O     0.83333   0.87156   0.18393   0.00000  Uiso   1.00
O548   O     0.83334   0.79511   0.31607   0.00000  Uiso   1.00
O549   O     0.83334   0.87156   0.31608   0.00000  Uiso   1.00
O550   O     0.83333   0.79511   0.18393   0.00000  Uiso   1.00
Zn551  Zn    0.83333   0.88437   0.25000   0.00000  Uiso   1.00
Zn552  Zn    0.83333   0.78229   0.25000   0.00000  Uiso   1.00
N553   N     0.80759   0.71017   0.45397   0.00000  Uiso   1.00
H554   H     0.77835   0.71350   0.43904   0.00000  Uiso   1.00
H555   H     0.80523   0.68308   0.47633   0.00000  Uiso   1.00
N556   N     0.85514   0.95720   0.04605   0.00000  Uiso   1.00
H557   H     0.82688   0.96795   0.05957   0.00000  Uiso   1.00
H558   H     0.86469   0.98255   0.02393   0.00000  Uiso   1.00
C559   C     0.08661   0.16666   0.74997   0.00000  Uiso   1.00
C560   C     0.24673   0.16667   0.75003   0.00000  Uiso   1.00
C561   C     0.14985   0.08592   0.52374   0.00000  Uiso   1.00
C562   C     0.18076   0.24788   0.97627   0.00000  Uiso   1.00
C563   C     0.02131   0.12614   0.75834   0.00000  Uiso   1.00
C564   C     0.31202   0.20719   0.74166   0.00000  Uiso   1.00
C565   C     0.31205   0.12615   0.75839   0.00000  Uiso   1.00
C566   C     0.02129   0.20719   0.74161   0.00000  Uiso   1.00
C567   C     0.29087   0.16667   0.75004   0.00000  Uiso   1.00
C568   C     0.04247   0.16666   0.74996   0.00000  Uiso   1.00
C569   C     0.19165   0.02398   0.77863   0.00000  Uiso   1.00
C570   C     0.14168   0.30936   0.72137   0.00000  Uiso   1.00
C571   C     0.14168   0.02403   0.72137   0.00000  Uiso   1.00
C572   C     0.19165   0.30930   0.77863   0.00000  Uiso   1.00
C573   C     0.16658   0.16670   0.66327   0.00000  Uiso   1.00
C574   C     0.16663   0.16664   0.83673   0.00000  Uiso   1.00
C575   C     0.17347   0.20702   0.90748   0.00000  Uiso   1.00
C576   C     0.15828   0.12654   0.59254   0.00000  Uiso   1.00
C577   C     0.16622   0.16659   0.88464   0.00000  Uiso   1.00
C578   C     0.16616   0.16684   0.61536   0.00000  Uiso   1.00
C579   C     0.15837   0.12617   0.90745   0.00000  Uiso   1.00
C580   C     0.17348   0.20736   0.59253   0.00000  Uiso   1.00
C581   C     0.15758   0.12566   0.95371   0.00000  Uiso   1.00
C582   C     0.17312   0.20811   0.54627   0.00000  Uiso   1.00
C583   C     0.16529   0.16670   0.97682   0.00000  Uiso   1.00
C584   C     0.16533   0.16709   0.52318   0.00000  Uiso   1.00
C585   C     0.17317   0.20737   0.95350   0.00000  Uiso   1.00
C586   C     0.15779   0.12635   0.54651   0.00000  Uiso   1.00
C587   C     0.14945   0.08514   0.97725   0.00000  Uiso   1.00
C588   C     0.18070   0.24875   0.52275   0.00000  Uiso   1.00
H589   H     0.17969   0.23822   0.88947   0.00000  Uiso   1.00
H590   H     0.15234   0.09529   0.61059   0.00000  Uiso   1.00
H591   H     0.15275   0.09523   0.88895   0.00000  Uiso   1.00
H592   H     0.17982   0.23816   0.61099   0.00000  Uiso   1.00
H593   H     0.14382   0.05498   0.54220   0.00000  Uiso   1.00
H594   H     0.18667   0.27886   0.95782   0.00000  Uiso   1.00
H595   H     0.03755   0.09465   0.76511   0.00000  Uiso   1.00
H596   H     0.29579   0.23869   0.73489   0.00000  Uiso   1.00
H597   H     0.29583   0.09466   0.76520   0.00000  Uiso   1.00
H598   H     0.03750   0.23867   0.73480   0.00000  Uiso   1.00
H599   H     0.21162   0.04219   0.80149   0.00000  Uiso   1.00
H600   H     0.12172   0.29114   0.69850   0.00000  Uiso   1.00
H601   H     0.12172   0.04229   0.69850   0.00000  Uiso   1.00
H602   H     0.21161   0.29104   0.80150   0.00000  Uiso   1.00
N603   N     0.16667   0.28573   0.75000   0.00000  Uiso   1.00
N604   N     0.16667   0.04760   0.75000   0.00000  Uiso   1.00
O605   O     0.10559   0.20487   0.75000   0.00000  Uiso   1.00
O606   O     0.22774   0.12846   0.75000   0.00000  Uiso   1.00
O607   O     0.22774   0.20487   0.75001   0.00000  Uiso   1.00
O608   O     0.10559   0.12846   0.75000   0.00000  Uiso   1.00
O609   O     0.16666   0.20489   0.68393   0.00000  Uiso   1.00
O610   O     0.16667   0.12844   0.81607   0.00000  Uiso   1.00
O611   O     0.16667   0.20489   0.81608   0.00000  Uiso   1.00
O612   O     0.16666   0.12844   0.68393   0.00000  Uiso   1.00
Zn613  Zn    0.16667   0.21771   0.75000   0.00000  Uiso   1.00
Zn614  Zn    0.16667   0.11563   0.75000   0.00000  Uiso   1.00
N615   N     0.14093   0.04350   0.95397   0.00000  Uiso   1.00
H616   H     0.11168   0.04683   0.93904   0.00000  Uiso   1.00
H617   H     0.13857   0.01641   0.97633   0.00000  Uiso   1.00
N618   N     0.18848   0.29053   0.54605   0.00000  Uiso   1.00
H619   H     0.16021   0.30129   0.55957   0.00000  Uiso   1.00
H620   H     0.19802   0.31589   0.52393   0.00000  Uiso   1.00
C621   C     0.41994   0.16666   0.74997   0.00000  Uiso   1.00
C622   C     0.58006   0.16667   0.75003   0.00000  Uiso   1.00
C623   C     0.48319   0.08592   0.52374   0.00000  Uiso   1.00
C624   C     0.51410   0.24788   0.97627   0.00000  Uiso   1.00
C625   C     0.35465   0.12614   0.75834   0.00000  Uiso   1.00
C626   C     0.64535   0.20719   0.74166   0.00000  Uiso   1.00
C627   C     0.64538   0.12615   0.75839   0.00000  Uiso   1.00
C628   C     0.35462   0.20719   0.74161   0.00000  Uiso   1.00
C629   C     0.62420   0.16667   0.75004   0.00000  Uiso   1.00
C630   C     0.37580   0.16666   0.74996   0.00000  Uiso   1.00
C631   C     0.52499   0.02398   0.77863   0.00000  Uiso   1.00
C632   C     0.47501   0.30936   0.72137   0.00000  Uiso   1.00
C633   C     0.47501   0.02403   0.72137   0.00000  Uiso   1.00
C634   C     0.52499   0.30930   0.77863   0.00000  Uiso   1.00
C635   C     0.49991   0.16670   0.66327   0.00000  Uiso   1.00
C636   C     0.49996   0.16664   0.83673   0.00000  Uiso   1.00
C637   C     0.50681   0.20702   0.90748   0.00000  Uiso   1.00
C638   C     0.49162   0.12654   0.59254   0.00000  Uiso   1.00
C639   C     0.49955   0.16659   0.88464   0.00000  Uiso   1.00
C640   C     0.49950   0.16684   0.61536   0.00000  Uiso   1.00
C641   C     0.49171   0.12617   0.90745   0.00000  Uiso   1.00
C642   C     0.50682   0.20736   0.59253   0.00000  Uiso   1.00
C643   C     0.49091   0.12566   0.95371   0.00000  Uiso   1.00
C644   C     0.50645   0.20811   0.54627   0.00000  Uiso   1.00
C645   C     0.49862   0.16670   0.97682   0.00000  Uiso   1.00
C646   C     0.49866   0.16709   0.52318   0.00000  Uiso   1.00
C647   C     0.50650   0.20737   0.95350   0.00000  Uiso   1.00
C648   C     0.49113   0.12635   0.54651   0.00000  Uiso   1.00
C649   C     0.48278   0.08514   0.97725   0.00000  Uiso   1.00
C650   C     0.51403   0.24875   0.52275   0.00000  Uiso   1.00
H651   H     0.51303   0.23822   0.88947   0.00000  Uiso   1.00
H652   H     0.48568   0.09529   0.61059   0.00000  Uiso   1.00
H653   H     0.48608   0.09523   0.88895   0.00000  Uiso   1.00
H654   H     0.51316   0.23816   0.61099   0.00000  Uiso   1.00
H655   H     0.47716   0.05498   0.54220   0.00000  Uiso   1.00
H656   H     0.52001   0.27886   0.95782   0.00000  Uiso   1.00
H657   H     0.37088   0.09465   0.76511   0.00000  Uiso   1.00
H658   H     0.62912   0.23869   0.73489   0.00000  Uiso   1.00
H659   H     0.62917   0.09466   0.76520   0.00000  Uiso   1.00
H660   H     0.37083   0.23867   0.73480   0.00000  Uiso   1.00
H661   H     0.54495   0.04219   0.80149   0.00000  Uiso   1.00
H662   H     0.45505   0.29114   0.69850   0.00000  Uiso   1.00
H663   H     0.45506   0.04229   0.69850   0.00000  Uiso   1.00
H664   H     0.54495   0.29104   0.80150   0.00000  Uiso   1.00
N665   N     0.50000   0.28573   0.75000   0.00000  Uiso   1.00
N666   N     0.50000   0.04760   0.75000   0.00000  Uiso   1.00
O667   O     0.43892   0.20487   0.75000   0.00000  Uiso   1.00
O668   O     0.56108   0.12846   0.75000   0.00000  Uiso   1.00
O669   O     0.56108   0.20487   0.75001   0.00000  Uiso   1.00
O670   O     0.43892   0.12846   0.75000   0.00000  Uiso   1.00
O671   O     0.49999   0.20489   0.68393   0.00000  Uiso   1.00
O672   O     0.50001   0.12844   0.81607   0.00000  Uiso   1.00
O673   O     0.50001   0.20489   0.81608   0.00000  Uiso   1.00
O674   O     0.49999   0.12844   0.68393   0.00000  Uiso   1.00
Zn675  Zn    0.50000   0.21771   0.75000   0.00000  Uiso   1.00
Zn676  Zn    0.50000   0.11563   0.75000   0.00000  Uiso   1.00
N677   N     0.47426   0.04350   0.95397   0.00000  Uiso   1.00
H678   H     0.44501   0.04683   0.93904   0.00000  Uiso   1.00
H679   H     0.47190   0.01641   0.97633   0.00000  Uiso   1.00
N680   N     0.52181   0.29053   0.54605   0.00000  Uiso   1.00
H681   H     0.49355   0.30129   0.55957   0.00000  Uiso   1.00
H682   H     0.53136   0.31589   0.52393   0.00000  Uiso   1.00
C683   C     0.75327   0.16666   0.74997   0.00000  Uiso   1.00
C684   C     0.91339   0.16667   0.75003   0.00000  Uiso   1.00
C685   C     0.81652   0.08592   0.52374   0.00000  Uiso   1.00
C686   C     0.84743   0.24788   0.97627   0.00000  Uiso   1.00
C687   C     0.68798   0.12614   0.75834   0.00000  Uiso   1.00
C688   C     0.97869   0.20719   0.74166   0.00000  Uiso   1.00
C689   C     0.97871   0.12615   0.75839   0.00000  Uiso   1.00
C690   C     0.68795   0.20719   0.74161   0.00000  Uiso   1.00
C691   C     0.95753   0.16667   0.75004   0.00000  Uiso   1.00
C692   C     0.70914   0.16666   0.74996   0.00000  Uiso   1.00
C693   C     0.85832   0.02398   0.77863   0.00000  Uiso   1.00
C694   C     0.80835   0.30936   0.72137   0.00000  Uiso   1.00
C695   C     0.80835   0.02403   0.72137   0.00000  Uiso   1.00
C696   C     0.85832   0.30930   0.77863   0.00000  Uiso   1.00
C697   C     0.83325   0.16670   0.66327   0.00000  Uiso   1.00
C698   C     0.83330   0.16664   0.83673   0.00000  Uiso   1.00
C699   C     0.84014   0.20702   0.90748   0.00000  Uiso   1.00
C700   C     0.82495   0.12654   0.59254   0.00000  Uiso   1.00
C701   C     0.83289   0.16659   0.88464   0.00000  Uiso   1.00
C702   C     0.83283   0.16684   0.61536   0.00000  Uiso   1.00
C703   C     0.82504   0.12617   0.90745   0.00000  Uiso   1.00
C704   C     0.84015   0.20736   0.59253   0.00000  Uiso   1.00
C705   C     0.82424   0.12566   0.95371   0.00000  Uiso   1.00
C706   C     0.83979   0.20811   0.54627   0.00000  Uiso   1.00
C707   C     0.83195   0.16670   0.97682   0.00000  Uiso   1.00
C708   C     0.83200   0.16709   0.52318   0.00000  Uiso   1.00
C709   C     0.83984   0.20737   0.95350   0.00000  Uiso   1.00
C710   C     0.82446   0.12635   0.54651   0.00000  Uiso   1.00
C711   C     0.81612   0.08514   0.97725   0.00000  Uiso   1.00
C712   C     0.84736   0.24875   0.52275   0.00000  Uiso   1.00
H713   H     0.84636   0.23822   0.88947   0.00000  Uiso   1.00
H714   H     0.81901   0.09529   0.61059   0.00000  Uiso   1.00
H715   H     0.81942   0.09523   0.88895   0.00000  Uiso   1.00
H716   H     0.84649   0.23816   0.61099   0.00000  Uiso   1.00
H717   H     0.81049   0.05498   0.54220   0.00000  Uiso   1.00
H718   H     0.85334   0.27886   0.95782   0.00000  Uiso   1.00
H719   H     0.70421   0.09465   0.76511   0.00000  Uiso   1.00
H720   H     0.96245   0.23869   0.73489   0.00000  Uiso   1.00
H721   H     0.96250   0.09466   0.76520   0.00000  Uiso   1.00
H722   H     0.70417   0.23867   0.73480   0.00000  Uiso   1.00
H723   H     0.87829   0.04219   0.80149   0.00000  Uiso   1.00
H724   H     0.78839   0.29114   0.69850   0.00000  Uiso   1.00
H725   H     0.78839   0.04229   0.69850   0.00000  Uiso   1.00
H726   H     0.87828   0.29104   0.80150   0.00000  Uiso   1.00
N727   N     0.83333   0.28573   0.75000   0.00000  Uiso   1.00
N728   N     0.83333   0.04760   0.75000   0.00000  Uiso   1.00
O729   O     0.77226   0.20487   0.75000   0.00000  Uiso   1.00
O730   O     0.89441   0.12846   0.75000   0.00000  Uiso   1.00
O731   O     0.89441   0.20487   0.75001   0.00000  Uiso   1.00
O732   O     0.77226   0.12846   0.75000   0.00000  Uiso   1.00
O733   O     0.83333   0.20489   0.68393   0.00000  Uiso   1.00
O734   O     0.83334   0.12844   0.81607   0.00000  Uiso   1.00
O735   O     0.83334   0.20489   0.81608   0.00000  Uiso   1.00
O736   O     0.83333   0.12844   0.68393   0.00000  Uiso   1.00
Zn737  Zn    0.83333   0.21771   0.75000   0.00000  Uiso   1.00
Zn738  Zn    0.83333   0.11563   0.75000   0.00000  Uiso   1.00
N739   N     0.80759   0.04350   0.95397   0.00000  Uiso   1.00
H740   H     0.77835   0.04683   0.93904   0.00000  Uiso   1.00
H741   H     0.80523   0.01641   0.97633   0.00000  Uiso   1.00
N742   N     0.85514   0.29053   0.54605   0.00000  Uiso   1.00
H743   H     0.82688   0.30129   0.55957   0.00000  Uiso   1.00
H744   H     0.86469   0.31589   0.52393   0.00000  Uiso   1.00
C745   C     0.08661   0.50000   0.74997   0.00000  Uiso   1.00
C746   C     0.24673   0.50000   0.75003   0.00000  Uiso   1.00
C747   C     0.14985   0.41925   0.52374   0.00000  Uiso   1.00
C748   C     0.18076   0.58121   0.97627   0.00000  Uiso   1.00
C749   C     0.02131   0.45947   0.75834   0.00000  Uiso   1.00
C750   C     0.31202   0.54053   0.74166   0.00000  Uiso   1.00
C751   C     0.31205   0.45948   0.75839   0.00000  Uiso   1.00
C752   C     0.02129   0.54052   0.74161   0.00000  Uiso   1.00
C753   C     0.29087   0.50001   0.75004   0.00000  Uiso   1.00
C754   C     0.04247   0.49999   0.74996   0.00000  Uiso   1.00
C755   C     0.19165   0.35731   0.77863   0.00000  Uiso   1.00
C756   C     0.14168   0.64269   0.72137   0.00000  Uiso   1.00
C757   C     0.14168   0.35737   0.72137   0.00000  Uiso   1.00
C758   C     0.19165   0.64263   0.77863   0.00000  Uiso   1.00
C759   C     0.16658   0.50003   0.66327   0.00000  Uiso   1.00
C760   C     0.16663   0.49997   0.83673   0.00000  Uiso   1.00
C761   C     0.17347   0.54035   0.90748   0.00000  Uiso   1.00
C762   C     0.15828   0.45987   0.59254   0.00000  Uiso   1.00
C763   C     0.16622   0.49993   0.88464   0.00000  Uiso   1.00
C764   C     0.16616   0.50017   0.61536   0.00000  Uiso   1.00
C765   C     0.15837   0.45951   0.90745   0.00000  Uiso   1.00
C766   C     0.17348   0.54070   0.59253   0.00000  Uiso   1.00
C767   C     0.15758   0.45899   0.95371   0.00000  Uiso   1.00
C768   C     0.17312   0.54145   0.54627   0.00000  Uiso   1.00
C769   C     0.16529   0.50003   0.97682   0.00000  Uiso   1.00
C770   C     0.16533   0.50042   0.52318   0.00000  Uiso   1.00
C771   C     0.17317   0.54071   0.95350   0.00000  Uiso   1.00
C772   C     0.15779   0.45968   0.54651   0.00000  Uiso   1.00
C773   C     0.14945   0.41848   0.97725   0.00000  Uiso   1.00
C774   C     0.18070   0.58208   0.52275   0.00000  Uiso   1.00
H775   H     0.17969   0.57156   0.88947   0.00000  Uiso   1.00
H776   H     0.15234   0.42862   0.61059   0.00000  Uiso   1.00
H777   H     0.15275   0.42857   0.88895   0.00000  Uiso   1.00
H778   H     0.17982   0.57150   0.61099   0.00000  Uiso   1.00
H779   H     0.14382   0.38832   0.54220   0.00000  Uiso   1.00
H780   H     0.18667   0.61220   0.95782   0.00000  Uiso   1.00
H781   H     0.03755   0.42798   0.76511   0.00000  Uiso   1.00
H782   H     0.29579   0.57202   0.73489   0.00000  Uiso   1.00
H783   H     0.29583   0.42800   0.76520   0.00000  Uiso   1.00
H784   H     0.03750   0.57200   0.73480   0.00000  Uiso   1.00
H785   H     0.21162   0.37553   0.80149   0.00000  Uiso   1.00
H786   H     0.12172   0.62447   0.69850   0.00000  Uiso   1.00
H787   H     0.12172   0.37563   0.69850   0.00000  Uiso   1.00
H788   H     0.21161   0.62437   0.80150   0.00000  Uiso   1.00
N789   N     0.16667   0.61907   0.75000   0.00000  Uiso   1.00
N790   N     0.16667   0.38093   0.75000   0.00000  Uiso   1.00
O791   O     0.10559   0.53821   0.75000   0.00000  Uiso   1.00
O792   O     0.22774   0.46179   0.75000   0.00000  Uiso   1.00
O793   O     0.22774   0.53821   0.75001   0.00000  Uiso   1.00
O794   O     0.10559   0.46179   0.75000   0.00000  Uiso   1.00
O795   O     0.16666   0.53823   0.68393   0.00000  Uiso   1.00
O796   O     0.16667   0.46177   0.81607   0.00000  Uiso   1.00
O797   O     0.16667   0.53823   0.81608   0.00000  Uiso   1.00
O798   O     0.16666   0.46177   0.68393   0.00000  Uiso   1.00
Zn799  Zn    0.16667   0.55104   0.75000   0.00000  Uiso   1.00
Zn800  Zn    0.16667   0.44896   0.75000   0.00000  Uiso   1.00
N801   N     0.14093   0.37684   0.95397   0.00000  Uiso   1.00
H802   H     0.11168   0.38016   0.93904   0.00000  Uiso   1.00
H803   H     0.13857   0.34975   0.97633   0.00000  Uiso   1.00
N804   N     0.18848   0.62386   0.54605   0.00000  Uiso   1.00
H805   H     0.16021   0.63462   0.55957   0.00000  Uiso   1.00
H806   H     0.19802   0.64922   0.52393   0.00000  Uiso   1.00
C807   C     0.41994   0.50000   0.74997   0.00000  Uiso   1.00
C808   C     0.58006   0.50000   0.75003   0.00000  Uiso   1.00
C809   C     0.48319   0.41925   0.52374   0.00000  Uiso   1.00
C810   C     0.51410   0.58121   0.97627   0.00000  Uiso   1.00
C811   C     0.35465   0.45947   0.75834   0.00000  Uiso   1.00
C812   C     0.64535   0.54053   0.74166   0.00000  Uiso   1.00
C813   C     0.64538   0.45948   0.75839   0.00000  Uiso   1.00
C814   C     0.35462   0.54052   0.74161   0.00000  Uiso   1.00
C815   C     0.62420   0.50001   0.75004   0.00000  Uiso   1.00
C816   C     0.37580   0.49999   0.74996   0.00000  Uiso   1.00
C817   C     0.52499   0.35731   0.77863   0.00000  Uiso   1.00
C818   C     0.47501   0.64269   0.72137   0.00000  Uiso   1.00
C819   C     0.47501   0.35737   0.72137   0.00000  Uiso   1.00
C820   C     0.52499   0.64263   0.77863   0.00000  Uiso   1.00
C821   C     0.49991   0.50003   0.66327   0.00000  Uiso   1.00
C822   C     0.49996   0.49997   0.83673   0.00000  Uiso   1.00
C823   C     0.50681   0.54035   0.90748   0.00000  Uiso   1.00
C824   C     0.49162   0.45987   0.59254   0.00000  Uiso   1.00
C825   C     0.49955   0.49993   0.88464   0.00000  Uiso   1.00
C826   C     0.49950   0.50017   0.61536   0.00000  Uiso   1.00
C827   C     0.49171   0.45951   0.90745   0.00000  Uiso   1.00
C828   C     0.50682   0.54070   0.59253   0.00000  Uiso   1.00
C829   C     0.49091   0.45899   0.95371   0.00000  Uiso   1.00
C830   C     0.50645   0.54145   0.54627   0.00000  Uiso   1.00
C831   C     0.49862   0.50003   0.97682   0.00000  Uiso   1.00
C832   C     0.49866   0.50042   0.52318   0.00000  Uiso   1.00
C833   C     0.50650   0.54071   0.95350   0.00000  Uiso   1.00
C834   C     0.49113   0.45968   0.54651   0.00000  Uiso   1.00
C835   C     0.48278   0.41848   0.97725   0.00000  Uiso   1.00
C836   C     0.51403   0.58208   0.52275   0.00000  Uiso   1.00
H837   H     0.51303   0.57156   0.88947   0.00000  Uiso   1.00
H838   H     0.48568   0.42862   0.61059   0.00000  Uiso   1.00
H839   H     0.48608   0.42857   0.88895   0.00000  Uiso   1.00
H840   H     0.51316   0.57150   0.61099   0.00000  Uiso   1.00
H841   H     0.47716   0.38832   0.54220   0.00000  Uiso   1.00
H842   H     0.52001   0.61220   0.95782   0.00000  Uiso   1.00
H843   H     0.37088   0.42798   0.76511   0.00000  Uiso   1.00
H844   H     0.62912   0.57202   0.73489   0.00000  Uiso   1.00
H845   H     0.62917   0.42800   0.76520   0.00000  Uiso   1.00
H846   H     0.37083   0.57200   0.73480   0.00000  Uiso   1.00
H847   H     0.54495   0.37553   0.80149   0.00000  Uiso   1.00
H848   H     0.45505   0.62447   0.69850   0.00000  Uiso   1.00
H849   H     0.45506   0.37563   0.69850   0.00000  Uiso   1.00
H850   H     0.54495   0.62437   0.80150   0.00000  Uiso   1.00
N851   N     0.50000   0.61907   0.75000   0.00000  Uiso   1.00
N852   N     0.50000   0.38093   0.75000   0.00000  Uiso   1.00
O853   O     0.43892   0.53821   0.75000   0.00000  Uiso   1.00
O854   O     0.56108   0.46179   0.75000   0.00000  Uiso   1.00
O855   O     0.56108   0.53821   0.75001   0.00000  Uiso   1.00
O856   O     0.43892   0.46179   0.75000   0.00000  Uiso   1.00
O857   O     0.49999   0.53823   0.68393   0.00000  Uiso   1.00
O858   O     0.50001   0.46177   0.81607   0.00000  Uiso   1.00
O859   O     0.50001   0.53823   0.81608   0.00000  Uiso   1.00
O860   O     0.49999   0.46177   0.68393   0.00000  Uiso   1.00
Zn861  Zn    0.50000   0.55104   0.75000   0.00000  Uiso   1.00
Zn862  Zn    0.50000   0.44896   0.75000   0.00000  Uiso   1.00
N863   N     0.47426   0.37684   0.95397   0.00000  Uiso   1.00
H864   H     0.44501   0.38016   0.93904   0.00000  Uiso   1.00
H865   H     0.47190   0.34975   0.97633   0.00000  Uiso   1.00
N866   N     0.52181   0.62386   0.54605   0.00000  Uiso   1.00
H867   H     0.49355   0.63462   0.55957   0.00000  Uiso   1.00
H868   H     0.53136   0.64922   0.52393   0.00000  Uiso   1.00
C869   C     0.75327   0.50000   0.74997   0.00000  Uiso   1.00
C870   C     0.91339   0.50000   0.75003   0.00000  Uiso   1.00
C871   C     0.81652   0.41925   0.52374   0.00000  Uiso   1.00
C872   C     0.84743   0.58121   0.97627   0.00000  Uiso   1.00
C873   C     0.68798   0.45947   0.75834   0.00000  Uiso   1.00
C874   C     0.97869   0.54053   0.74166   0.00000  Uiso   1.00
C875   C     0.97871   0.45948   0.75839   0.00000  Uiso   1.00
C876   C     0.68795   0.54052   0.74161   0.00000  Uiso   1.00
C877   C     0.95753   0.50001   0.75004   0.00000  Uiso   1.00
C878   C     0.70914   0.49999   0.74996   0.00000  Uiso   1.00
C879   C     0.85832   0.35731   0.77863   0.00000  Uiso   1.00
C880   C     0.80835   0.64269   0.72137   0.00000  Uiso   1.00
C881   C     0.80835   0.35737   0.72137   0.00000  Uiso   1.00
C882   C     0.85832   0.64263   0.77863   0.00000  Uiso   1.00
C883   C     0.83325   0.50003   0.66327   0.00000  Uiso   1.00
C884   C     0.83330   0.49997   0.83673   0.00000  Uiso   1.00
C885   C     0.84014   0.54035   0.90748   0.00000  Uiso   1.00
C886   C     0.82495   0.45987   0.59254   0.00000  Uiso   1.00
C887   C     0.83289   0.49993   0.88464   0.00000  Uiso   1.00
C888   C     0.83283   0.50017   0.61536   0.00000  Uiso   1.00
C889   C     0.82504   0.45951   0.90745   0.00000  Uiso   1.00
C890   C     0.84015   0.54070   0.59253   0.00000  Uiso   1.00
C891   C     0.82424   0.45899   0.95371   0.00000  Uiso   1.00
C892   C     0.83979   0.54145   0.54627   0.00000  Uiso   1.00
C893   C     0.83195   0.50003   0.97682   0.00000  Uiso   1.00
C894   C     0.83200   0.50042   0.52318   0.00000  Uiso   1.00
C895   C     0.83984   0.54071   0.95350   0.00000  Uiso   1.00
C896   C     0.82446   0.45968   0.54651   0.00000  Uiso   1.00
C897   C     0.81612   0.41848   0.97725   0.00000  Uiso   1.00
C898   C     0.84736   0.58208   0.52275   0.00000  Uiso   1.00
H899   H     0.84636   0.57156   0.88947   0.00000  Uiso   1.00
H900   H     0.81901   0.42862   0.61059   0.00000  Uiso   1.00
H901   H     0.81942   0.42857   0.88895   0.00000  Uiso   1.00
H902   H     0.84649   0.57150   0.61099   0.00000  Uiso   1.00
H903   H     0.81049   0.38832   0.54220   0.00000  Uiso   1.00
H904   H     0.85334   0.61220   0.95782   0.00000  Uiso   1.00
H905   H     0.70421   0.42798   0.76511   0.00000  Uiso   1.00
H906   H     0.96245   0.57202   0.73489   0.00000  Uiso   1.00
H907   H     0.96250   0.42800   0.76520   0.00000  Uiso   1.00
H908   H     0.70417   0.57200   0.73480   0.00000  Uiso   1.00
H909   H     0.87829   0.37553   0.80149   0.00000  Uiso   1.00
H910   H     0.78839   0.62447   0.69850   0.00000  Uiso   1.00
H911   H     0.78839   0.37563   0.69850   0.00000  Uiso   1.00
H912   H     0.87828   0.62437   0.80150   0.00000  Uiso   1.00
N913   N     0.83333   0.61907   0.75000   0.00000  Uiso   1.00
N914   N     0.83333   0.38093   0.75000   0.00000  Uiso   1.00
O915   O     0.77226   0.53821   0.75000   0.00000  Uiso   1.00
O916   O     0.89441   0.46179   0.75000   0.00000  Uiso   1.00
O917   O     0.89441   0.53821   0.75001   0.00000  Uiso   1.00
O918   O     0.77226   0.46179   0.75000   0.00000  Uiso   1.00
O919   O     0.83333   0.53823   0.68393   0.00000  Uiso   1.00
O920   O     0.83334   0.46177   0.81607   0.00000  Uiso   1.00
O921   O     0.83334   0.53823   0.81608   0.00000  Uiso   1.00
O922   O     0.83333   0.46177   0.68393   0.00000  Uiso   1.00
Zn923  Zn    0.83333   0.55104   0.75000   0.00000  Uiso   1.00
Zn924  Zn    0.83333   0.44896   0.75000   0.00000  Uiso   1.00
N925   N     0.80759   0.37684   0.95397   0.00000  Uiso   1.00
H926   H     0.77835   0.38016   0.93904   0.00000  Uiso   1.00
H927   H     0.80523   0.34975   0.97633   0.00000  Uiso   1.00
N928   N     0.85514   0.62386   0.54605   0.00000  Uiso   1.00
H929   H     0.82688   0.63462   0.55957   0.00000  Uiso   1.00
H930   H     0.86469   0.64922   0.52393   0.00000  Uiso   1.00
C931   C     0.08661   0.83333   0.74997   0.00000  Uiso   1.00
C932   C     0.24673   0.83334   0.75003   0.00000  Uiso   1.00
C933   C     0.14985   0.75259   0.52374   0.00000  Uiso   1.00
C934   C     0.18076   0.91455   0.97627   0.00000  Uiso   1.00
C935   C     0.02131   0.79281   0.75834   0.00000  Uiso   1.00
C936   C     0.31202   0.87386   0.74166   0.00000  Uiso   1.00
C937   C     0.31205   0.79282   0.75839   0.00000  Uiso   1.00
C938   C     0.02129   0.87385   0.74161   0.00000  Uiso   1.00
C939   C     0.29087   0.83334   0.75004   0.00000  Uiso   1.00
C940   C     0.04247   0.83333   0.74996   0.00000  Uiso   1.00
C941   C     0.19165   0.69064   0.77863   0.00000  Uiso   1.00
C942   C     0.14168   0.97602   0.72137   0.00000  Uiso   1.00
C943   C     0.14168   0.69070   0.72137   0.00000  Uiso   1.00
C944   C     0.19165   0.97597   0.77863   0.00000  Uiso   1.00
C945   C     0.16658   0.83337   0.66327   0.00000  Uiso   1.00
C946   C     0.16663   0.83331   0.83673   0.00000  Uiso   1.00
C947   C     0.17347   0.87369   0.90748   0.00000  Uiso   1.00
C948   C     0.15828   0.79320   0.59254   0.00000  Uiso   1.00
C949   C     0.16622   0.83326   0.88464   0.00000  Uiso   1.00
C950   C     0.16616   0.83351   0.61536   0.00000  Uiso   1.00
C951   C     0.15837   0.79284   0.90745   0.00000  Uiso   1.00
C952   C     0.17348   0.87403   0.59253   0.00000  Uiso   1.00
C953   C     0.15758   0.79233   0.95371   0.00000  Uiso   1.00
C954   C     0.17312   0.87478   0.54627   0.00000  Uiso   1.00
C955   C     0.16529   0.83336   0.97682   0.00000  Uiso   1.00
C956   C     0.16533   0.83376   0.52318   0.00000  Uiso   1.00
C957   C     0.17317   0.87404   0.95350   0.00000  Uiso   1.00
C958   C     0.15779   0.79301   0.54651   0.00000  Uiso   1.00
C959   C     0.14945   0.75181   0.97725   0.00000  Uiso   1.00
C960   C     0.18070   0.91541   0.52275   0.00000  Uiso   1.00
H961   H     0.17969   0.90489   0.88947   0.00000  Uiso   1.00
H962   H     0.15234   0.76196   0.61059   0.00000  Uiso   1.00
H963   H     0.15275   0.76190   0.88895   0.00000  Uiso   1.00
H964   H     0.17982   0.90483   0.61099   0.00000  Uiso   1.00
H965   H     0.14382   0.72165   0.54220   0.00000  Uiso   1.00
H966   H     0.18667   0.94553   0.95782   0.00000  Uiso   1.00
H967   H     0.03755   0.76131   0.76511   0.00000  Uiso   1.00
H968   H     0.29579   0.90535   0.73489   0.00000  Uiso   1.00
H969   H     0.29583   0.76133   0.76520   0.00000  Uiso   1.00
H970   H     0.03750   0.90534   0.73480   0.00000  Uiso   1.00
H971   H     0.21162   0.70886   0.80149   0.00000  Uiso   1.00
H972   H     0.12172   0.95781   0.69850   0.00000  Uiso   1.00
H973   H     0.12172   0.70896   0.69850   0.00000  Uiso   1.00
H974   H     0.21161   0.95771   0.80150   0.00000  Uiso   1.00
N975   N     0.16667   0.95240   0.75000   0.00000  Uiso   1.00
N976   N     0.16667   0.71427   0.75000   0.00000  Uiso   1.00
O977   O     0.10559   0.87154   0.75000   0.00000  Uiso   1.00
O978   O     0.22774   0.79513   0.75000   0.00000  Uiso   1.00
O979   O     0.22774   0.87154   0.75001   0.00000  Uiso   1.00
O980   O     0.10559   0.79513   0.75000   0.00000  Uiso   1.00
O981   O     0.16666   0.87156   0.68393   0.00000  Uiso   1.00
O982   O     0.16667   0.79511   0.81607   0.00000  Uiso   1.00
O983   O     0.16667   0.87156   0.81608   0.00000  Uiso   1.00
O984   O     0.16666   0.79511   0.68393   0.00000  Uiso   1.00
Zn985  Zn    0.16667   0.88437   0.75000   0.00000  Uiso   1.00
Zn986  Zn    0.16667   0.78229   0.75000   0.00000  Uiso   1.00
N987   N     0.14093   0.71017   0.95397   0.00000  Uiso   1.00
H988   H     0.11168   0.71350   0.93904   0.00000  Uiso   1.00
H989   H     0.13857   0.68308   0.97633   0.00000  Uiso   1.00
N990   N     0.18848   0.95720   0.54605   0.00000  Uiso   1.00
H991   H     0.16021   0.96795   0.55957   0.00000  Uiso   1.00
H992   H     0.19802   0.98255   0.52393   0.00000  Uiso   1.00
C993   C     0.41994   0.83333   0.74997   0.00000  Uiso   1.00
C994   C     0.58006   0.83334   0.75003   0.00000  Uiso   1.00
C995   C     0.48319   0.75259   0.52374   0.00000  Uiso   1.00
C996   C     0.51410   0.91455   0.97627   0.00000  Uiso   1.00
C997   C     0.35465   0.79281   0.75834   0.00000  Uiso   1.00
C998   C     0.64535   0.87386   0.74166   0.00000  Uiso   1.00
C999   C     0.64538   0.79282   0.75839   0.00000  Uiso   1.00
C1000  C     0.35462   0.87385   0.74161   0.00000  Uiso   1.00
C1001  C     0.62420   0.83334   0.75004   0.00000  Uiso   1.00
C1002  C     0.37580   0.83333   0.74996   0.00000  Uiso   1.00
C1003  C     0.52499   0.69064   0.77863   0.00000  Uiso   1.00
C1004  C     0.47501   0.97602   0.72137   0.00000  Uiso   1.00
C1005  C     0.47501   0.69070   0.72137   0.00000  Uiso   1.00
C1006  C     0.52499   0.97597   0.77863   0.00000  Uiso   1.00
C1007  C     0.49991   0.83337   0.66327   0.00000  Uiso   1.00
C1008  C     0.49996   0.83331   0.83673   0.00000  Uiso   1.00
C1009  C     0.50681   0.87369   0.90748   0.00000  Uiso   1.00
C1010  C     0.49162   0.79320   0.59254   0.00000  Uiso   1.00
C1011  C     0.49955   0.83326   0.88464   0.00000  Uiso   1.00
C1012  C     0.49950   0.83351   0.61536   0.00000  Uiso   1.00
C1013  C     0.49171   0.79284   0.90745   0.00000  Uiso   1.00
C1014  C     0.50682   0.87403   0.59253   0.00000  Uiso   1.00
C1015  C     0.49091   0.79233   0.95371   0.00000  Uiso   1.00
C1016  C     0.50645   0.87478   0.54627   0.00000  Uiso   1.00
C1017  C     0.49862   0.83336   0.97682   0.00000  Uiso   1.00
C1018  C     0.49866   0.83376   0.52318   0.00000  Uiso   1.00
C1019  C     0.50650   0.87404   0.95350   0.00000  Uiso   1.00
C1020  C     0.49113   0.79301   0.54651   0.00000  Uiso   1.00
C1021  C     0.48278   0.75181   0.97725   0.00000  Uiso   1.00
C1022  C     0.51403   0.91541   0.52275   0.00000  Uiso   1.00
H1023  H     0.51303   0.90489   0.88947   0.00000  Uiso   1.00
H1024  H     0.48568   0.76196   0.61059   0.00000  Uiso   1.00
H1025  H     0.48608   0.76190   0.88895   0.00000  Uiso   1.00
H1026  H     0.51316   0.90483   0.61099   0.00000  Uiso   1.00
H1027  H     0.47716   0.72165   0.54220   0.00000  Uiso   1.00
H1028  H     0.52001   0.94553   0.95782   0.00000  Uiso   1.00
H1029  H     0.37088   0.76131   0.76511   0.00000  Uiso   1.00
H1030  H     0.62912   0.90535   0.73489   0.00000  Uiso   1.00
H1031  H     0.62917   0.76133   0.76520   0.00000  Uiso   1.00
H1032  H     0.37083   0.90534   0.73480   0.00000  Uiso   1.00
H1033  H     0.54495   0.70886   0.80149   0.00000  Uiso   1.00
H1034  H     0.45505   0.95781   0.69850   0.00000  Uiso   1.00
H1035  H     0.45506   0.70896   0.69850   0.00000  Uiso   1.00
H1036  H     0.54495   0.95771   0.80150   0.00000  Uiso   1.00
N1037  N     0.50000   0.95240   0.75000   0.00000  Uiso   1.00
N1038  N     0.50000   0.71427   0.75000   0.00000  Uiso   1.00
O1039  O     0.43892   0.87154   0.75000   0.00000  Uiso   1.00
O1040  O     0.56108   0.79513   0.75000   0.00000  Uiso   1.00
O1041  O     0.56108   0.87154   0.75001   0.00000  Uiso   1.00
O1042  O     0.43892   0.79513   0.75000   0.00000  Uiso   1.00
O1043  O     0.49999   0.87156   0.68393   0.00000  Uiso   1.00
O1044  O     0.50001   0.79511   0.81607   0.00000  Uiso   1.00
O1045  O     0.50001   0.87156   0.81608   0.00000  Uiso   1.00
O1046  O     0.49999   0.79511   0.68393   0.00000  Uiso   1.00
Zn1047 Zn    0.50000   0.88437   0.75000   0.00000  Uiso   1.00
Zn1048 Zn    0.50000   0.78229   0.75000   0.00000  Uiso   1.00
N1049  N     0.47426   0.71017   0.95397   0.00000  Uiso   1.00
H1050  H     0.44501   0.71350   0.93904   0.00000  Uiso   1.00
H1051  H     0.47190   0.68308   0.97633   0.00000  Uiso   1.00
N1052  N     0.52181   0.95720   0.54605   0.00000  Uiso   1.00
H1053  H     0.49355   0.96795   0.55957   0.00000  Uiso   1.00
H1054  H     0.53136   0.98255   0.52393   0.00000  Uiso   1.00
C1055  C     0.75327   0.83333   0.74997   0.00000  Uiso   1.00
C1056  C     0.91339   0.83334   0.75003   0.00000  Uiso   1.00
C1057  C     0.81652   0.75259   0.52374   0.00000  Uiso   1.00
C1058  C     0.84743   0.91455   0.97627   0.00000  Uiso   1.00
C1059  C     0.68798   0.79281   0.75834   0.00000  Uiso   1.00
C1060  C     0.97869   0.87386   0.74166   0.00000  Uiso   1.00
C1061  C     0.97871   0.79282   0.75839   0.00000  Uiso   1.00
C1062  C     0.68795   0.87385   0.74161   0.00000  Uiso   1.00
C1063  C     0.95753   0.83334   0.75004   0.00000  Uiso   1.00
C1064  C     0.70914   0.83333   0.74996   0.00000  Uiso   1.00
C1065  C     0.85832   0.69064   0.77863   0.00000  Uiso   1.00
C1066  C     0.80835   0.97602   0.72137   0.00000  Uiso   1.00
C1067  C     0.80835   0.69070   0.72137   0.00000  Uiso   1.00
C1068  C     0.85832   0.97597   0.77863   0.00000  Uiso   1.00
C1069  C     0.83325   0.83337   0.66327   0.00000  Uiso   1.00
C1070  C     0.83330   0.83331   0.83673   0.00000  Uiso   1.00
C1071  C     0.84014   0.87369   0.90748   0.00000  Uiso   1.00
C1072  C     0.82495   0.79320   0.59254   0.00000  Uiso   1.00
C1073  C     0.83289   0.83326   0.88464   0.00000  Uiso   1.00
C1074  C     0.83283   0.83351   0.61536   0.00000  Uiso   1.00
C1075  C     0.82504   0.79284   0.90745   0.00000  Uiso   1.00
C1076  C     0.84015   0.87403   0.59253   0.00000  Uiso   1.00
C1077  C     0.82424   0.79233   0.95371   0.00000  Uiso   1.00
C1078  C     0.83979   0.87478   0.54627   0.00000  Uiso   1.00
C1079  C     0.83195   0.83336   0.97682   0.00000  Uiso   1.00
C1080  C     0.83200   0.83376   0.52318   0.00000  Uiso   1.00
C1081  C     0.83984   0.87404   0.95350   0.00000  Uiso   1.00
C1082  C     0.82446   0.79301   0.54651   0.00000  Uiso   1.00
C1083  C     0.81612   0.75181   0.97725   0.00000  Uiso   1.00
C1084  C     0.84736   0.91541   0.52275   0.00000  Uiso   1.00
H1085  H     0.84636   0.90489   0.88947   0.00000  Uiso   1.00
H1086  H     0.81901   0.76196   0.61059   0.00000  Uiso   1.00
H1087  H     0.81942   0.76190   0.88895   0.00000  Uiso   1.00
H1088  H     0.84649   0.90483   0.61099   0.00000  Uiso   1.00
H1089  H     0.81049   0.72165   0.54220   0.00000  Uiso   1.00
H1090  H     0.85334   0.94553   0.95782   0.00000  Uiso   1.00
H1091  H     0.70421   0.76131   0.76511   0.00000  Uiso   1.00
H1092  H     0.96245   0.90535   0.73489   0.00000  Uiso   1.00
H1093  H     0.96250   0.76133   0.76520   0.00000  Uiso   1.00
H1094  H     0.70417   0.90534   0.73480   0.00000  Uiso   1.00
H1095  H     0.87829   0.70886   0.80149   0.00000  Uiso   1.00
H1096  H     0.78839   0.95781   0.69850   0.00000  Uiso   1.00
H1097  H     0.78839   0.70896   0.69850   0.00000  Uiso   1.00
H1098  H     0.87828   0.95771   0.80150   0.00000  Uiso   1.00
N1099  N     0.83333   0.95240   0.75000   0.00000  Uiso   1.00
N1100  N     0.83333   0.71427   0.75000   0.00000  Uiso   1.00
O1101  O     0.77226   0.87154   0.75000   0.00000  Uiso   1.00
O1102  O     0.89441   0.79513   0.75000   0.00000  Uiso   1.00
O1103  O     0.89441   0.87154   0.75001   0.00000  Uiso   1.00
O1104  O     0.77226   0.79513   0.75000   0.00000  Uiso   1.00
O1105  O     0.83333   0.87156   0.68393   0.00000  Uiso   1.00
O1106  O     0.83334   0.79511   0.81607   0.00000  Uiso   1.00
O1107  O     0.83334   0.87156   0.81608   0.00000  Uiso   1.00
O1108  O     0.83333   0.79511   0.68393   0.00000  Uiso   1.00
Zn1109 Zn    0.83333   0.88437   0.75000   0.00000  Uiso   1.00
Zn1110 Zn    0.83333   0.78229   0.75000   0.00000  Uiso   1.00
N1111  N     0.80759   0.71017   0.95397   0.00000  Uiso   1.00
H1112  H     0.77835   0.71350   0.93904   0.00000  Uiso   1.00
H1113  H     0.80523   0.68308   0.97633   0.00000  Uiso   1.00
N1114  N     0.85514   0.95720   0.54605   0.00000  Uiso   1.00
H1115  H     0.82688   0.96795   0.55957   0.00000  Uiso   1.00
H1116  H     0.86469   0.98255   0.52393   0.00000  Uiso   1.00
loop_
_geom_bond_atom_site_label_1
_geom_bond_atom_site_label_2
_geom_bond_distance
_geom_bond_site_symmetry_2
_ccdc_geom_bond_type
C1     O50     1.281   .     A
C1     O47     1.281   .     A
C1     C10     1.419   .     S
C2     O49     1.281   .     A
C2     O48     1.281   .     A
C2     C9      1.419   .     S
C3     H35     1.084   .     S
C3     C28     1.397   .     A
C3     C587    1.396   1_554 S
C4     H36     1.084   .     S
C4     C27     1.397   .     A
C4     C588    1.396   .     S
C5     H37     1.084   .     S
C5     C10     1.397   .     A
C5     C131    1.370   1_455 S
C6     C9      1.397   .     A
C6     H38     1.084   .     S
C6     C70     1.370   .     S
C7     C9      1.397   .     A
C7     H39     1.084   .     S
C7     C67     1.370   .     S
C8     H40     1.084   .     S
C8     C10     1.397   .     A
C8     C130    1.370   1_455 S
C11    H41     1.082   .     S
C11    N46     1.366   .     A
C11    C386    1.415   1_545 S
C12    H42     1.082   .     S
C12    N45     1.366   .     A
C12    C199    1.415   .     S
C13    N46     1.366   .     A
C13    H43     1.082   .     S
C13    C384    1.415   1_545 S
C14    H44     1.082   .     S
C14    N45     1.366   .     A
C14    C197    1.415   .     S
C15    C20     1.439   .     S
C15    O51     1.286   .     A
C15    O54     1.286   .     A
C16    C19     1.439   .     S
C16    O52     1.286   .     A
C16    O53     1.286   .     A
C17    H31     1.085   .     S
C17    C19     1.395   .     A
C17    C27     1.382   .     A
C18    H32     1.085   .     S
C18    C28     1.382   .     A
C18    C20     1.395   .     A
C19    C21     1.397   .     A
C20    C22     1.397   .     A
C21    C23     1.390   .     A
C21    H33     1.083   .     S
C22    C24     1.389   .     A
C22    H34     1.083   .     S
C23    C29     1.412   .     A
C23    C25     1.417   .     A
C24    C26     1.416   .     A
C24    C30     1.411   .     A
C25    C27     1.411   .     A
C25    C584    1.392   .     S
C26    C28     1.411   .     A
C26    C583    1.392   1_554 S
C29    N57     1.439   .     S
C29    C561    1.396   .     S
C30    N60     1.439   .     S
C30    C562    1.396   1_554 S
N45    Zn55    2.005   .     S
N46    Zn56    2.005   .     S
O47    Zn55    2.000   .     S
O48    Zn56    2.000   .     S
O49    Zn55    2.000   .     S
O50    Zn56    2.000   .     S
O51    Zn55    2.020   .     S
O52    Zn56    2.020   .     S
O53    Zn55    2.019   .     S
O54    Zn56    2.019   .     S
N57    H58     1.046   .     S
N57    H59     1.046   .     S
N60    H62     1.046   .     S
N60    H61     1.046   .     S
C63    O112    1.281   .     A
C63    O109    1.281   .     A
C63    C72     1.419   .     S
C64    O111    1.281   .     A
C64    O110    1.281   .     A
C64    C71     1.419   .     S
C65    H97     1.084   .     S
C65    C90     1.397   .     A
C65    C649    1.396   1_554 S
C66    H98     1.084   .     S
C66    C89     1.397   .     A
C66    C650    1.396   .     S
C67    H99     1.084   .     S
C67    C72     1.397   .     A
C68    C71     1.397   .     A
C68    H100    1.084   .     S
C68    C132    1.370   .     S
C69    C71     1.397   .     A
C69    H101    1.084   .     S
C69    C129    1.370   .     S
C70    H102    1.084   .     S
C70    C72     1.397   .     A
C73    H103    1.082   .     S
C73    N108    1.366   .     A
C73    C448    1.415   1_545 S
C74    H104    1.082   .     S
C74    N107    1.366   .     A
C74    C261    1.415   .     S
C75    N108    1.366   .     A
C75    H105    1.082   .     S
C75    C446    1.415   1_545 S
C76    H106    1.082   .     S
C76    N107    1.366   .     A
C76    C259    1.415   .     S
C77    C82     1.439   .     S
C77    O113    1.286   .     A
C77    O116    1.286   .     A
C78    C81     1.439   .     S
C78    O114    1.286   .     A
C78    O115    1.286   .     A
C79    H93     1.085   .     S
C79    C81     1.395   .     A
C79    C89     1.382   .     A
C80    H94     1.085   .     S
C80    C90     1.382   .     A
C80    C82     1.395   .     A
C81    C83     1.397   .     A
C82    C84     1.397   .     A
C83    C85     1.390   .     A
C83    H95     1.083   .     S
C84    C86     1.389   .     A
C84    H96     1.083   .     S
C85    C91     1.412   .     A
C85    C87     1.417   .     A
C86    C88     1.416   .     A
C86    C92     1.411   .     A
C87    C89     1.411   .     A
C87    C646    1.392   .     S
C88    C90     1.411   .     A
C88    C645    1.392   1_554 S
C91    N119    1.439   .     S
C91    C623    1.396   .     S
C92    N122    1.439   .     S
C92    C624    1.396   1_554 S
N107   Zn117   2.005   .     S
N108   Zn118   2.005   .     S
O109   Zn117   2.000   .     S
O110   Zn118   2.000   .     S
O111   Zn117   2.000   .     S
O112   Zn118   2.000   .     S
O113   Zn117   2.020   .     S
O114   Zn118   2.020   .     S
O115   Zn117   2.019   .     S
O116   Zn118   2.019   .     S
N119   H120    1.046   .     S
N119   H121    1.046   .     S
N122   H124    1.046   .     S
N122   H123    1.046   .     S
C125   O174    1.281   .     A
C125   O171    1.281   .     A
C125   C134    1.419   .     S
C126   O173    1.281   .     A
C126   O172    1.281   .     A
C126   C133    1.419   .     S
C127   H159    1.084   .     S
C127   C152    1.397   .     A
C127   C711    1.396   1_554 S
C128   H160    1.084   .     S
C128   C151    1.397   .     A
C128   C712    1.396   .     S
C129   H161    1.084   .     S
C129   C134    1.397   .     A
C130   C133    1.397   .     A
C130   H162    1.084   .     S
C130   C8      1.370   1_655 S
C131   C133    1.397   .     A
C131   H163    1.084   .     S
C131   C5      1.370   1_655 S
C132   H164    1.084   .     S
C132   C134    1.397   .     A
C135   H165    1.082   .     S
C135   N170    1.366   .     A
C135   C510    1.415   1_545 S
C136   H166    1.082   .     S
C136   N169    1.366   .     A
C136   C323    1.415   .     S
C137   N170    1.366   .     A
C137   H167    1.082   .     S
C137   C508    1.415   1_545 S
C138   H168    1.082   .     S
C138   N169    1.366   .     A
C138   C321    1.415   .     S
C139   C144    1.439   .     S
C139   O175    1.286   .     A
C139   O178    1.286   .     A
C140   C143    1.439   .     S
C140   O176    1.286   .     A
C140   O177    1.286   .     A
C141   H155    1.085   .     S
C141   C143    1.395   .     A
C141   C151    1.382   .     A
C142   H156    1.085   .     S
C142   C152    1.382   .     A
C142   C144    1.395   .     A
C143   C145    1.397   .     A
C144   C146    1.397   .     A
C145   C147    1.390   .     A
C145   H157    1.083   .     S
C146   C148    1.389   .     A
C146   H158    1.083   .     S
C147   C153    1.412   .     A
C147   C149    1.417   .     A
C148   C150    1.416   .     A
C148   C154    1.411   .     A
C149   C151    1.411   .     A
C149   C708    1.392   .     S
C150   C152    1.411   .     A
C150   C707    1.392   1_554 S
C153   N181    1.439   .     S
C153   C685    1.396   .     S
C154   N184    1.439   .     S
C154   C686    1.396   1_554 S
N169   Zn179   2.005   .     S
N170   Zn180   2.005   .     S
O171   Zn179   2.000   .     S
O172   Zn180   2.000   .     S
O173   Zn179   2.000   .     S
O174   Zn180   2.000   .     S
O175   Zn179   2.020   .     S
O176   Zn180   2.020   .     S
O177   Zn179   2.019   .     S
O178   Zn180   2.019   .     S
N181   H182    1.046   .     S
N181   H183    1.046   .     S
N184   H186    1.046   .     S
N184   H185    1.046   .     S
C187   O236    1.281   .     A
C187   O233    1.281   .     A
C187   C196    1.419   .     S
C188   O235    1.281   .     A
C188   O234    1.281   .     A
C188   C195    1.419   .     S
C189   H221    1.084   .     S
C189   C214    1.397   .     A
C189   C773    1.396   1_554 S
C190   H222    1.084   .     S
C190   C213    1.397   .     A
C190   C774    1.396   .     S
C191   H223    1.084   .     S
C191   C196    1.397   .     A
C191   C317    1.370   1_455 S
C192   C195    1.397   .     A
C192   H224    1.084   .     S
C192   C256    1.370   .     S
C193   C195    1.397   .     A
C193   H225    1.084   .     S
C193   C253    1.370   .     S
C194   H226    1.084   .     S
C194   C196    1.397   .     A
C194   C316    1.370   1_455 S
C197   H227    1.082   .     S
C197   N232    1.366   .     A
C198   H228    1.082   .     S
C198   N231    1.366   .     A
C198   C385    1.415   .     S
C199   N232    1.366   .     A
C199   H229    1.082   .     S
C200   H230    1.082   .     S
C200   N231    1.366   .     A
C200   C383    1.415   .     S
C201   C206    1.439   .     S
C201   O237    1.286   .     A
C201   O240    1.286   .     A
C202   C205    1.439   .     S
C202   O238    1.286   .     A
C202   O239    1.286   .     A
C203   H217    1.085   .     S
C203   C205    1.395   .     A
C203   C213    1.382   .     A
C204   H218    1.085   .     S
C204   C214    1.382   .     A
C204   C206    1.395   .     A
C205   C207    1.397   .     A
C206   C208    1.397   .     A
C207   C209    1.390   .     A
C207   H219    1.083   .     S
C208   C210    1.389   .     A
C208   H220    1.083   .     S
C209   C215    1.412   .     A
C209   C211    1.417   .     A
C210   C212    1.416   .     A
C210   C216    1.411   .     A
C211   C213    1.411   .     A
C211   C770    1.392   .     S
C212   C214    1.411   .     A
C212   C769    1.392   1_554 S
C215   N243    1.439   .     S
C215   C747    1.396   .     S
C216   N246    1.439   .     S
C216   C748    1.396   1_554 S
N231   Zn241   2.005   .     S
N232   Zn242   2.005   .     S
O233   Zn241   2.000   .     S
O234   Zn242   2.000   .     S
O235   Zn241   2.000   .     S
O236   Zn242   2.000   .     S
O237   Zn241   2.020   .     S
O238   Zn242   2.020   .     S
O239   Zn241   2.019   .     S
O240   Zn242   2.019   .     S
N243   H244    1.046   .     S
N243   H245    1.046   .     S
N246   H248    1.046   .     S
N246   H247    1.046   .     S
C249   O298    1.281   .     A
C249   O295    1.281   .     A
C249   C258    1.419   .     S
C250   O297    1.281   .     A
C250   O296    1.281   .     A
C250   C257    1.419   .     S
C251   H283    1.084   .     S
C251   C276    1.397   .     A
C251   C835    1.396   1_554 S
C252   H284    1.084   .     S
C252   C275    1.397   .     A
C252   C836    1.396   .     S
C253   H285    1.084   .     S
C253   C258    1.397   .     A
C254   C257    1.397   .     A
C254   H286    1.084   .     S
C254   C318    1.370   .     S
C255   C257    1.397   .     A
C255   H287    1.084   .     S
C255   C315    1.370   .     S
C256   H288    1.084   .     S
C256   C258    1.397   .     A
C259   H289    1.082   .     S
C259   N294    1.366   .     A
C260   H290    1.082   .     S
C260   N293    1.366   .     A
C260   C447    1.415   .     S
C261   N294    1.366   .     A
C261   H291    1.082   .     S
C262   H292    1.082   .     S
C262   N293    1.366   .     A
C262   C445    1.415   .     S
C263   C268    1.439   .     S
C263   O299    1.286   .     A
C263   O302    1.286   .     A
C264   C267    1.439   .     S
C264   O300    1.286   .     A
C264   O301    1.286   .     A
C265   H279    1.085   .     S
C265   C267    1.395   .     A
C265   C275    1.382   .     A
C266   H280    1.085   .     S
C266   C276    1.382   .     A
C266   C268    1.395   .     A
C267   C269    1.397   .     A
C268   C270    1.397   .     A
C269   C271    1.390   .     A
C269   H281    1.083   .     S
C270   C272    1.389   .     A
C270   H282    1.083   .     S
C271   C277    1.412   .     A
C271   C273    1.417   .     A
C272   C274    1.416   .     A
C272   C278    1.411   .     A
C273   C275    1.411   .     A
C273   C832    1.392   .     S
C274   C276    1.411   .     A
C274   C831    1.392   1_554 S
C277   N305    1.439   .     S
C277   C809    1.396   .     S
C278   N308    1.439   .     S
C278   C810    1.396   1_554 S
N293   Zn303   2.005   .     S
N294   Zn304   2.005   .     S
O295   Zn303   2.000   .     S
O296   Zn304   2.000   .     S
O297   Zn303   2.000   .     S
O298   Zn304   2.000   .     S
O299   Zn303   2.020   .     S
O300   Zn304   2.020   .     S
O301   Zn303   2.019   .     S
O302   Zn304   2.019   .     S
N305   H306    1.046   .     S
N305   H307    1.046   .     S
N308   H310    1.046   .     S
N308   H309    1.046   .     S
C311   O360    1.281   .     A
C311   O357    1.281   .     A
C311   C320    1.419   .     S
C312   O359    1.281   .     A
C312   O358    1.281   .     A
C312   C319    1.419   .     S
C313   H345    1.084   .     S
C313   C338    1.397   .     A
C313   C897    1.396   1_554 S
C314   H346    1.084   .     S
C314   C337    1.397   .     A
C314   C898    1.396   .     S
C315   H347    1.084   .     S
C315   C320    1.397   .     A
C316   C319    1.397   .     A
C316   H348    1.084   .     S
C316   C194    1.370   1_655 S
C317   C319    1.397   .     A
C317   H349    1.084   .     S
C317   C191    1.370   1_655 S
C318   H350    1.084   .     S
C318   C320    1.397   .     A
C321   H351    1.082   .     S
C321   N356    1.366   .     A
C322   H352    1.082   .     S
C322   N355    1.366   .     A
C322   C509    1.415   .     S
C323   N356    1.366   .     A
C323   H353    1.082   .     S
C324   H354    1.082   .     S
C324   N355    1.366   .     A
C324   C507    1.415   .     S
C325   C330    1.439   .     S
C325   O361    1.286   .     A
C325   O364    1.286   .     A
C326   C329    1.439   .     S
C326   O362    1.286   .     A
C326   O363    1.286   .     A
C327   H341    1.085   .     S
C327   C329    1.395   .     A
C327   C337    1.382   .     A
C328   H342    1.085   .     S
C328   C338    1.382   .     A
C328   C330    1.395   .     A
C329   C331    1.397   .     A
C330   C332    1.397   .     A
C331   C333    1.390   .     A
C331   H343    1.083   .     S
C332   C334    1.389   .     A
C332   H344    1.083   .     S
C333   C339    1.412   .     A
C333   C335    1.417   .     A
C334   C336    1.416   .     A
C334   C340    1.411   .     A
C335   C337    1.411   .     A
C335   C894    1.392   .     S
C336   C338    1.411   .     A
C336   C893    1.392   1_554 S
C339   N367    1.439   .     S
C339   C871    1.396   .     S
C340   N370    1.439   .     S
C340   C872    1.396   1_554 S
N355   Zn365   2.005   .     S
N356   Zn366   2.005   .     S
O357   Zn365   2.000   .     S
O358   Zn366   2.000   .     S
O359   Zn365   2.000   .     S
O360   Zn366   2.000   .     S
O361   Zn365   2.020   .     S
O362   Zn366   2.020   .     S
O363   Zn365   2.019   .     S
O364   Zn366   2.019   .     S
N367   H368    1.046   .     S
N367   H369    1.046   .     S
N370   H372    1.046   .     S
N370   H371    1.046   .     S
C373   O422    1.281   .     A
C373   O419    1.281   .     A
C373   C382    1.419   .     S
C374   O421    1.281   .     A
C374   O420    1.281   .     A
C374   C381    1.419   .     S
C375   H407    1.084   .     S
C375   C400    1.397   .     A
C375   C959    1.396   1_554 S
C376   H408    1.084   .     S
C376   C399    1.397   .     A
C376   C960    1.396   .     S
C377   H409    1.084   .     S
C377   C382    1.397   .     A
C377   C503    1.370   1_455 S
C378   C381    1.397   .     A
C378   H410    1.084   .     S
C378   C442    1.370   .     S
C379   C381    1.397   .     A
C379   H411    1.084   .     S
C379   C439    1.370   .     S
C380   H412    1.084   .     S
C380   C382    1.397   .     A
C380   C502    1.370   1_455 S
C383   H413    1.082   .     S
C383   N418    1.366   .     A
C384   H414    1.082   .     S
C384   N417    1.366   .     A
C384   C13     1.415   1_565 S
C385   N418    1.366   .     A
C385   H415    1.082   .     S
C386   H416    1.082   .     S
C386   N417    1.366   .     A
C386   C11     1.415   1_565 S
C387   C392    1.439   .     S
C387   O423    1.286   .     A
C387   O426    1.286   .     A
C388   C391    1.439   .     S
C388   O424    1.286   .     A
C388   O425    1.286   .     A
C389   H403    1.085   .     S
C389   C391    1.395   .     A
C389   C399    1.382   .     A
C390   H404    1.085   .     S
C390   C400    1.382   .     A
C390   C392    1.395   .     A
C391   C393    1.397   .     A
C392   C394    1.397   .     A
C393   C395    1.390   .     A
C393   H405    1.083   .     S
C394   C396    1.389   .     A
C394   H406    1.083   .     S
C395   C401    1.412   .     A
C395   C397    1.417   .     A
C396   C398    1.416   .     A
C396   C402    1.411   .     A
C397   C399    1.411   .     A
C397   C956    1.392   .     S
C398   C400    1.411   .     A
C398   C955    1.392   1_554 S
C401   N429    1.439   .     S
C401   C933    1.396   .     S
C402   N432    1.439   .     S
C402   C934    1.396   1_554 S
N417   Zn427   2.005   .     S
N418   Zn428   2.005   .     S
O419   Zn427   2.000   .     S
O420   Zn428   2.000   .     S
O421   Zn427   2.000   .     S
O422   Zn428   2.000   .     S
O423   Zn427   2.020   .     S
O424   Zn428   2.020   .     S
O425   Zn427   2.019   .     S
O426   Zn428   2.019   .     S
N429   H430    1.046   .     S
N429   H431    1.046   .     S
N432   H434    1.046   .     S
N432   H433    1.046   .     S
C435   O484    1.281   .     A
C435   O481    1.281   .     A
C435   C444    1.419   .     S
C436   O483    1.281   .     A
C436   O482    1.281   .     A
C436   C443    1.419   .     S
C437   H469    1.084   .     S
C437   C462    1.397   .     A
C437   C1021   1.396   1_554 S
C438   H470    1.084   .     S
C438   C461    1.397   .     A
C438   C1022   1.396   .     S
C439   H471    1.084   .     S
C439   C444    1.397   .     A
C440   C443    1.397   .     A
C440   H472    1.084   .     S
C440   C504    1.370   .     S
C441   C443    1.397   .     A
C441   H473    1.084   .     S
C441   C501    1.370   .     S
C442   H474    1.084   .     S
C442   C444    1.397   .     A
C445   H475    1.082   .     S
C445   N480    1.366   .     A
C446   H476    1.082   .     S
C446   N479    1.366   .     A
C446   C75     1.415   1_565 S
C447   N480    1.366   .     A
C447   H477    1.082   .     S
C448   H478    1.082   .     S
C448   N479    1.366   .     A
C448   C73     1.415   1_565 S
C449   C454    1.439   .     S
C449   O485    1.286   .     A
C449   O488    1.286   .     A
C450   C453    1.439   .     S
C450   O486    1.286   .     A
C450   O487    1.286   .     A
C451   H465    1.085   .     S
C451   C453    1.395   .     A
C451   C461    1.382   .     A
C452   H466    1.085   .     S
C452   C462    1.382   .     A
C452   C454    1.395   .     A
C453   C455    1.397   .     A
C454   C456    1.397   .     A
C455   C457    1.390   .     A
C455   H467    1.083   .     S
C456   C458    1.389   .     A
C456   H468    1.083   .     S
C457   C463    1.412   .     A
C457   C459    1.417   .     A
C458   C460    1.416   .     A
C458   C464    1.411   .     A
C459   C461    1.411   .     A
C459   C1018   1.392   .     S
C460   C462    1.411   .     A
C460   C1017   1.392   1_554 S
C463   N491    1.439   .     S
C463   C995    1.396   .     S
C464   N494    1.439   .     S
C464   C996    1.396   1_554 S
N479   Zn489   2.005   .     S
N480   Zn490   2.005   .     S
O481   Zn489   2.000   .     S
O482   Zn490   2.000   .     S
O483   Zn489   2.000   .     S
O484   Zn490   2.000   .     S
O485   Zn489   2.020   .     S
O486   Zn490   2.020   .     S
O487   Zn489   2.019   .     S
O488   Zn490   2.019   .     S
N491   H492    1.046   .     S
N491   H493    1.046   .     S
N494   H496    1.046   .     S
N494   H495    1.046   .     S
C497   O546    1.281   .     A
C497   O543    1.281   .     A
C497   C506    1.419   .     S
C498   O545    1.281   .     A
C498   O544    1.281   .     A
C498   C505    1.419   .     S
C499   H531    1.084   .     S
C499   C524    1.397   .     A
C499   C1083   1.396   1_554 S
C500   H532    1.084   .     S
C500   C523    1.397   .     A
C500   C1084   1.396   .     S
C501   H533    1.084   .     S
C501   C506    1.397   .     A
C502   C505    1.397   .     A
C502   H534    1.084   .     S
C502   C380    1.370   1_655 S
C503   C505    1.397   .     A
C503   H535    1.084   .     S
C503   C377    1.370   1_655 S
C504   H536    1.084   .     S
C504   C506    1.397   .     A
C507   H537    1.082   .     S
C507   N542    1.366   .     A
C508   H538    1.082   .     S
C508   N541    1.366   .     A
C508   C137    1.415   1_565 S
C509   N542    1.366   .     A
C509   H539    1.082   .     S
C510   H540    1.082   .     S
C510   N541    1.366   .     A
C510   C135    1.415   1_565 S
C511   C516    1.439   .     S
C511   O547    1.286   .     A
C511   O550    1.286   .     A
C512   C515    1.439   .     S
C512   O548    1.286   .     A
C512   O549    1.286   .     A
C513   H527    1.085   .     S
C513   C515    1.395   .     A
C513   C523    1.382   .     A
C514   H528    1.085   .     S
C514   C524    1.382   .     A
C514   C516    1.395   .     A
C515   C517    1.397   .     A
C516   C518    1.397   .     A
C517   C519    1.390   .     A
C517   H529    1.083   .     S
C518   C520    1.389   .     A
C518   H530    1.083   .     S
C519   C525    1.412   .     A
C519   C521    1.417   .     A
C520   C522    1.416   .     A
C520   C526    1.411   .     A
C521   C523    1.411   .     A
C521   C1080   1.392   .     S
C522   C524    1.411   .     A
C522   C1079   1.392   1_554 S
C525   N553    1.439   .     S
C525   C1057   1.396   .     S
C526   N556    1.439   .     S
C526   C1058   1.396   1_554 S
N541   Zn551   2.005   .     S
N542   Zn552   2.005   .     S
O543   Zn551   2.000   .     S
O544   Zn552   2.000   .     S
O545   Zn551   2.000   .     S
O546   Zn552   2.000   .     S
O547   Zn551   2.020   .     S
O548   Zn552   2.020   .     S
O549   Zn551   2.019   .     S
O550   Zn552   2.019   .     S
N553   H554    1.046   .     S
N553   H555    1.046   .     S
N556   H558    1.046   .     S
N556   H557    1.046   .     S
C559   O608    1.281   .     A
C559   O605    1.281   .     A
C559   C568    1.419   .     S
C560   O607    1.281   .     A
C560   O606    1.281   .     A
C560   C567    1.419   .     S
C561   H593    1.084   .     S
C561   C586    1.397   .     A
C562   H594    1.084   .     S
C562   C585    1.397   .     A
C562   C30     1.396   1_556 S
C563   H595    1.084   .     S
C563   C568    1.397   .     A
C563   C689    1.370   1_455 S
C564   C567    1.397   .     A
C564   H596    1.084   .     S
C564   C628    1.370   .     S
C565   C567    1.397   .     A
C565   H597    1.084   .     S
C565   C625    1.370   .     S
C566   H598    1.084   .     S
C566   C568    1.397   .     A
C566   C688    1.370   1_455 S
C569   H599    1.082   .     S
C569   N604    1.366   .     A
C569   C944    1.415   1_545 S
C570   H600    1.082   .     S
C570   N603    1.366   .     A
C570   C757    1.415   .     S
C571   N604    1.366   .     A
C571   H601    1.082   .     S
C571   C942    1.415   1_545 S
C572   H602    1.082   .     S
C572   N603    1.366   .     A
C572   C755    1.415   .     S
C573   C578    1.439   .     S
C573   O609    1.286   .     A
C573   O612    1.286   .     A
C574   C577    1.439   .     S
C574   O610    1.286   .     A
C574   O611    1.286   .     A
C575   H589    1.085   .     S
C575   C577    1.395   .     A
C575   C585    1.382   .     A
C576   H590    1.085   .     S
C576   C586    1.382   .     A
C576   C578    1.395   .     A
C577   C579    1.397   .     A
C578   C580    1.397   .     A
C579   C581    1.390   .     A
C579   H591    1.083   .     S
C580   C582    1.389   .     A
C580   H592    1.083   .     S
C581   C587    1.412   .     A
C581   C583    1.417   .     A
C582   C584    1.416   .     A
C582   C588    1.411   .     A
C583   C585    1.411   .     A
C583   C26     1.392   1_556 S
C584   C586    1.411   .     A
C587   N615    1.439   .     S
C587   C3      1.396   1_556 S
C588   N618    1.439   .     S
N603   Zn613   2.005   .     S
N604   Zn614   2.005   .     S
O605   Zn613   2.000   .     S
O606   Zn614   2.000   .     S
O607   Zn613   2.000   .     S
O608   Zn614   2.000   .     S
O609   Zn613   2.020   .     S
O610   Zn614   2.020   .     S
O611   Zn613   2.019   .     S
O612   Zn614   2.019   .     S
N615   H616    1.046   .     S
N615   H617    1.046   .     S
N618   H620    1.046   .     S
N618   H619    1.046   .     S
C621   O670    1.281   .     A
C621   O667    1.281   .     A
C621   C630    1.419   .     S
C622   O669    1.281   .     A
C622   O668    1.281   .     A
C622   C629    1.419   .     S
C623   H655    1.084   .     S
C623   C648    1.397   .     A
C624   H656    1.084   .     S
C624   C647    1.397   .     A
C624   C92     1.396   1_556 S
C625   H657    1.084   .     S
C625   C630    1.397   .     A
C626   C629    1.397   .     A
C626   H658    1.084   .     S
C626   C690    1.370   .     S
C627   C629    1.397   .     A
C627   H659    1.084   .     S
C627   C687    1.370   .     S
C628   H660    1.084   .     S
C628   C630    1.397   .     A
C631   H661    1.082   .     S
C631   N666    1.366   .     A
C631   C1006   1.415   1_545 S
C632   H662    1.082   .     S
C632   N665    1.366   .     A
C632   C819    1.415   .     S
C633   N666    1.366   .     A
C633   H663    1.082   .     S
C633   C1004   1.415   1_545 S
C634   H664    1.082   .     S
C634   N665    1.366   .     A
C634   C817    1.415   .     S
C635   C640    1.439   .     S
C635   O671    1.286   .     A
C635   O674    1.286   .     A
C636   C639    1.439   .     S
C636   O672    1.286   .     A
C636   O673    1.286   .     A
C637   H651    1.085   .     S
C637   C639    1.395   .     A
C637   C647    1.382   .     A
C638   H652    1.085   .     S
C638   C648    1.382   .     A
C638   C640    1.395   .     A
C639   C641    1.397   .     A
C640   C642    1.397   .     A
C641   C643    1.390   .     A
C641   H653    1.083   .     S
C642   C644    1.389   .     A
C642   H654    1.083   .     S
C643   C649    1.412   .     A
C643   C645    1.417   .     A
C644   C646    1.416   .     A
C644   C650    1.411   .     A
C645   C647    1.411   .     A
C645   C88     1.392   1_556 S
C646   C648    1.411   .     A
C649   N677    1.439   .     S
C649   C65     1.396   1_556 S
C650   N680    1.439   .     S
N665   Zn675   2.005   .     S
N666   Zn676   2.005   .     S
O667   Zn675   2.000   .     S
O668   Zn676   2.000   .     S
O669   Zn675   2.000   .     S
O670   Zn676   2.000   .     S
O671   Zn675   2.020   .     S
O672   Zn676   2.020   .     S
O673   Zn675   2.019   .     S
O674   Zn676   2.019   .     S
N677   H678    1.046   .     S
N677   H679    1.046   .     S
N680   H682    1.046   .     S
N680   H681    1.046   .     S
C683   O732    1.281   .     A
C683   O729    1.281   .     A
C683   C692    1.419   .     S
C684   O731    1.281   .     A
C684   O730    1.281   .     A
C684   C691    1.419   .     S
C685   H717    1.084   .     S
C685   C710    1.397   .     A
C686   H718    1.084   .     S
C686   C709    1.397   .     A
C686   C154    1.396   1_556 S
C687   H719    1.084   .     S
C687   C692    1.397   .     A
C688   C691    1.397   .     A
C688   H720    1.084   .     S
C688   C566    1.370   1_655 S
C689   C691    1.397   .     A
C689   H721    1.084   .     S
C689   C563    1.370   1_655 S
C690   H722    1.084   .     S
C690   C692    1.397   .     A
C693   H723    1.082   .     S
C693   N728    1.366   .     A
C693   C1068   1.415   1_545 S
C694   H724    1.082   .     S
C694   N727    1.366   .     A
C694   C881    1.415   .     S
C695   N728    1.366   .     A
C695   H725    1.082   .     S
C695   C1066   1.415   1_545 S
C696   H726    1.082   .     S
C696   N727    1.366   .     A
C696   C879    1.415   .     S
C697   C702    1.439   .     S
C697   O733    1.286   .     A
C697   O736    1.286   .     A
C698   C701    1.439   .     S
C698   O734    1.286   .     A
C698   O735    1.286   .     A
C699   H713    1.085   .     S
C699   C701    1.395   .     A
C699   C709    1.382   .     A
C700   H714    1.085   .     S
C700   C710    1.382   .     A
C700   C702    1.395   .     A
C701   C703    1.397   .     A
C702   C704    1.397   .     A
C703   C705    1.390   .     A
C703   H715    1.083   .     S
C704   C706    1.389   .     A
C704   H716    1.083   .     S
C705   C711    1.412   .     A
C705   C707    1.417   .     A
C706   C708    1.416   .     A
C706   C712    1.411   .     A
C707   C709    1.411   .     A
C707   C150    1.392   1_556 S
C708   C710    1.411   .     A
C711   N739    1.439   .     S
C711   C127    1.396   1_556 S
C712   N742    1.439   .     S
N727   Zn737   2.005   .     S
N728   Zn738   2.005   .     S
O729   Zn737   2.000   .     S
O730   Zn738   2.000   .     S
O731   Zn737   2.000   .     S
O732   Zn738   2.000   .     S
O733   Zn737   2.020   .     S
O734   Zn738   2.020   .     S
O735   Zn737   2.019   .     S
O736   Zn738   2.019   .     S
N739   H740    1.046   .     S
N739   H741    1.046   .     S
N742   H744    1.046   .     S
N742   H743    1.046   .     S
C745   O794    1.281   .     A
C745   O791    1.281   .     A
C745   C754    1.419   .     S
C746   O793    1.281   .     A
C746   O792    1.281   .     A
C746   C753    1.419   .     S
C747   H779    1.084   .     S
C747   C772    1.397   .     A
C748   H780    1.084   .     S
C748   C771    1.397   .     A
C748   C216    1.396   1_556 S
C749   H781    1.084   .     S
C749   C754    1.397   .     A
C749   C875    1.370   1_455 S
C750   C753    1.397   .     A
C750   H782    1.084   .     S
C750   C814    1.370   .     S
C751   C753    1.397   .     A
C751   H783    1.084   .     S
C751   C811    1.370   .     S
C752   H784    1.084   .     S
C752   C754    1.397   .     A
C752   C874    1.370   1_455 S
C755   H785    1.082   .     S
C755   N790    1.366   .     A
C756   H786    1.082   .     S
C756   N789    1.366   .     A
C756   C943    1.415   .     S
C757   N790    1.366   .     A
C757   H787    1.082   .     S
C758   H788    1.082   .     S
C758   N789    1.366   .     A
C758   C941    1.415   .     S
C759   C764    1.439   .     S
C759   O795    1.286   .     A
C759   O798    1.286   .     A
C760   C763    1.439   .     S
C760   O796    1.286   .     A
C760   O797    1.286   .     A
C761   H775    1.085   .     S
C761   C763    1.395   .     A
C761   C771    1.382   .     A
C762   H776    1.085   .     S
C762   C772    1.382   .     A
C762   C764    1.395   .     A
C763   C765    1.397   .     A
C764   C766    1.397   .     A
C765   C767    1.390   .     A
C765   H777    1.083   .     S
C766   C768    1.389   .     A
C766   H778    1.083   .     S
C767   C773    1.412   .     A
C767   C769    1.417   .     A
C768   C770    1.416   .     A
C768   C774    1.411   .     A
C769   C771    1.411   .     A
C769   C212    1.392   1_556 S
C770   C772    1.411   .     A
C773   N801    1.439   .     S
C773   C189    1.396   1_556 S
C774   N804    1.439   .     S
N789   Zn799   2.005   .     S
N790   Zn800   2.005   .     S
O791   Zn799   2.000   .     S
O792   Zn800   2.000   .     S
O793   Zn799   2.000   .     S
O794   Zn800   2.000   .     S
O795   Zn799   2.020   .     S
O796   Zn800   2.020   .     S
O797   Zn799   2.019   .     S
O798   Zn800   2.019   .     S
N801   H802    1.046   .     S
N801   H803    1.046   .     S
N804   H806    1.046   .     S
N804   H805    1.046   .     S
C807   O856    1.281   .     A
C807   O853    1.281   .     A
C807   C816    1.419   .     S
C808   O855    1.281   .     A
C808   O854    1.281   .     A
C808   C815    1.419   .     S
C809   H841    1.084   .     S
C809   C834    1.397   .     A
C810   H842    1.084   .     S
C810   C833    1.397   .     A
C810   C278    1.396   1_556 S
C811   H843    1.084   .     S
C811   C816    1.397   .     A
C812   C815    1.397   .     A
C812   H844    1.084   .     S
C812   C876    1.370   .     S
C813   C815    1.397   .     A
C813   H845    1.084   .     S
C813   C873    1.370   .     S
C814   H846    1.084   .     S
C814   C816    1.397   .     A
C817   H847    1.082   .     S
C817   N852    1.366   .     A
C818   H848    1.082   .     S
C818   N851    1.366   .     A
C818   C1005   1.415   .     S
C819   N852    1.366   .     A
C819   H849    1.082   .     S
C820   H850    1.082   .     S
C820   N851    1.366   .     A
C820   C1003   1.415   .     S
C821   C826    1.439   .     S
C821   O857    1.286   .     A
C821   O860    1.286   .     A
C822   C825    1.439   .     S
C822   O858    1.286   .     A
C822   O859    1.286   .     A
C823   H837    1.085   .     S
C823   C825    1.395   .     A
C823   C833    1.382   .     A
C824   H838    1.085   .     S
C824   C834    1.382   .     A
C824   C826    1.395   .     A
C825   C827    1.397   .     A
C826   C828    1.397   .     A
C827   C829    1.390   .     A
C827   H839    1.083   .     S
C828   C830    1.389   .     A
C828   H840    1.083   .     S
C829   C835    1.412   .     A
C829   C831    1.417   .     A
C830   C832    1.416   .     A
C830   C836    1.411   .     A
C831   C833    1.411   .     A
C831   C274    1.392   1_556 S
C832   C834    1.411   .     A
C835   N863    1.439   .     S
C835   C251    1.396   1_556 S
C836   N866    1.439   .     S
N851   Zn861   2.005   .     S
N852   Zn862   2.005   .     S
O853   Zn861   2.000   .     S
O854   Zn862   2.000   .     S
O855   Zn861   2.000   .     S
O856   Zn862   2.000   .     S
O857   Zn861   2.020   .     S
O858   Zn862   2.020   .     S
O859   Zn861   2.019   .     S
O860   Zn862   2.019   .     S
N863   H864    1.046   .     S
N863   H865    1.046   .     S
N866   H868    1.046   .     S
N866   H867    1.046   .     S
C869   O918    1.281   .     A
C869   O915    1.281   .     A
C869   C878    1.419   .     S
C870   O917    1.281   .     A
C870   O916    1.281   .     A
C870   C877    1.419   .     S
C871   H903    1.084   .     S
C871   C896    1.397   .     A
C872   H904    1.084   .     S
C872   C895    1.397   .     A
C872   C340    1.396   1_556 S
C873   H905    1.084   .     S
C873   C878    1.397   .     A
C874   C877    1.397   .     A
C874   H906    1.084   .     S
C874   C752    1.370   1_655 S
C875   C877    1.397   .     A
C875   H907    1.084   .     S
C875   C749    1.370   1_655 S
C876   H908    1.084   .     S
C876   C878    1.397   .     A
C879   H909    1.082   .     S
C879   N914    1.366   .     A
C880   H910    1.082   .     S
C880   N913    1.366   .     A
C880   C1067   1.415   .     S
C881   N914    1.366   .     A
C881   H911    1.082   .     S
C882   H912    1.082   .     S
C882   N913    1.366   .     A
C882   C1065   1.415   .     S
C883   C888    1.439   .     S
C883   O919    1.286   .     A
C883   O922    1.286   .     A
C884   C887    1.439   .     S
C884   O920    1.286   .     A
C884   O921    1.286   .     A
C885   H899    1.085   .     S
C885   C887    1.395   .     A
C885   C895    1.382   .     A
C886   H900    1.085   .     S
C886   C896    1.382   .     A
C886   C888    1.395   .     A
C887   C889    1.397   .     A
C888   C890    1.397   .     A
C889   C891    1.390   .     A
C889   H901    1.083   .     S
C890   C892    1.389   .     A
C890   H902    1.083   .     S
C891   C897    1.412   .     A
C891   C893    1.417   .     A
C892   C894    1.416   .     A
C892   C898    1.411   .     A
C893   C895    1.411   .     A
C893   C336    1.392   1_556 S
C894   C896    1.411   .     A
C897   N925    1.439   .     S
C897   C313    1.396   1_556 S
C898   N928    1.439   .     S
N913   Zn923   2.005   .     S
N914   Zn924   2.005   .     S
O915   Zn923   2.000   .     S
O916   Zn924   2.000   .     S
O917   Zn923   2.000   .     S
O918   Zn924   2.000   .     S
O919   Zn923   2.020   .     S
O920   Zn924   2.020   .     S
O921   Zn923   2.019   .     S
O922   Zn924   2.019   .     S
N925   H926    1.046   .     S
N925   H927    1.046   .     S
N928   H930    1.046   .     S
N928   H929    1.046   .     S
C931   O980    1.281   .     A
C931   O977    1.281   .     A
C931   C940    1.419   .     S
C932   O979    1.281   .     A
C932   O978    1.281   .     A
C932   C939    1.419   .     S
C933   H965    1.084   .     S
C933   C958    1.397   .     A
C934   H966    1.084   .     S
C934   C957    1.397   .     A
C934   C402    1.396   1_556 S
C935   H967    1.084   .     S
C935   C940    1.397   .     A
C935   C1061   1.370   1_455 S
C936   C939    1.397   .     A
C936   H968    1.084   .     S
C936   C1000   1.370   .     S
C937   C939    1.397   .     A
C937   H969    1.084   .     S
C937   C997    1.370   .     S
C938   H970    1.084   .     S
C938   C940    1.397   .     A
C938   C1060   1.370   1_455 S
C941   H971    1.082   .     S
C941   N976    1.366   .     A
C942   H972    1.082   .     S
C942   N975    1.366   .     A
C942   C571    1.415   1_565 S
C943   N976    1.366   .     A
C943   H973    1.082   .     S
C944   H974    1.082   .     S
C944   N975    1.366   .     A
C944   C569    1.415   1_565 S
C945   C950    1.439   .     S
C945   O981    1.286   .     A
C945   O984    1.286   .     A
C946   C949    1.439   .     S
C946   O982    1.286   .     A
C946   O983    1.286   .     A
C947   H961    1.085   .     S
C947   C949    1.395   .     A
C947   C957    1.382   .     A
C948   H962    1.085   .     S
C948   C958    1.382   .     A
C948   C950    1.395   .     A
C949   C951    1.397   .     A
C950   C952    1.397   .     A
C951   C953    1.390   .     A
C951   H963    1.083   .     S
C952   C954    1.389   .     A
C952   H964    1.083   .     S
C953   C959    1.412   .     A
C953   C955    1.417   .     A
C954   C956    1.416   .     A
C954   C960    1.411   .     A
C955   C957    1.411   .     A
C955   C398    1.392   1_556 S
C956   C958    1.411   .     A
C959   N987    1.439   .     S
C959   C375    1.396   1_556 S
C960   N990    1.439   .     S
N975   Zn985   2.005   .     S
N976   Zn986   2.005   .     S
O977   Zn985   2.000   .     S
O978   Zn986   2.000   .     S
O979   Zn985   2.000   .     S
O980   Zn986   2.000   .     S
O981   Zn985   2.020   .     S
O982   Zn986   2.020   .     S
O983   Zn985   2.019   .     S
O984   Zn986   2.019   .     S
N987   H988    1.046   .     S
N987   H989    1.046   .     S
N990   H992    1.046   .     S
N990   H991    1.046   .     S
C993   O1042   1.281   .     A
C993   O1039   1.281   .     A
C993   C1002   1.419   .     S
C994   O1041   1.281   .     A
C994   O1040   1.281   .     A
C994   C1001   1.419   .     S
C995   H1027   1.084   .     S
C995   C1020   1.397   .     A
C996   H1028   1.084   .     S
C996   C1019   1.397   .     A
C996   C464    1.396   1_556 S
C997   H1029   1.084   .     S
C997   C1002   1.397   .     A
C998   C1001   1.397   .     A
C998   H1030   1.084   .     S
C998   C1062   1.370   .     S
C999   C1001   1.397   .     A
C999   H1031   1.084   .     S
C999   C1059   1.370   .     S
C1000  H1032   1.084   .     S
C1000  C1002   1.397   .     A
C1003  H1033   1.082   .     S
C1003  N1038   1.366   .     A
C1004  H1034   1.082   .     S
C1004  N1037   1.366   .     A
C1004  C633    1.415   1_565 S
C1005  N1038   1.366   .     A
C1005  H1035   1.082   .     S
C1006  H1036   1.082   .     S
C1006  N1037   1.366   .     A
C1006  C631    1.415   1_565 S
C1007  C1012   1.439   .     S
C1007  O1043   1.286   .     A
C1007  O1046   1.286   .     A
C1008  C1011   1.439   .     S
C1008  O1044   1.286   .     A
C1008  O1045   1.286   .     A
C1009  H1023   1.085   .     S
C1009  C1011   1.395   .     A
C1009  C1019   1.382   .     A
C1010  H1024   1.085   .     S
C1010  C1020   1.382   .     A
C1010  C1012   1.395   .     A
C1011  C1013   1.397   .     A
C1012  C1014   1.397   .     A
C1013  C1015   1.390   .     A
C1013  H1025   1.083   .     S
C1014  C1016   1.389   .     A
C1014  H1026   1.083   .     S
C1015  C1021   1.412   .     A
C1015  C1017   1.417   .     A
C1016  C1018   1.416   .     A
C1016  C1022   1.411   .     A
C1017  C1019   1.411   .     A
C1017  C460    1.392   1_556 S
C1018  C1020   1.411   .     A
C1021  N1049   1.439   .     S
C1021  C437    1.396   1_556 S
C1022  N1052   1.439   .     S
N1037  Zn1047  2.005   .     S
N1038  Zn1048  2.005   .     S
O1039  Zn1047  2.000   .     S
O1040  Zn1048  2.000   .     S
O1041  Zn1047  2.000   .     S
O1042  Zn1048  2.000   .     S
O1043  Zn1047  2.020   .     S
O1044  Zn1048  2.020   .     S
O1045  Zn1047  2.019   .     S
O1046  Zn1048  2.019   .     S
N1049  H1050   1.046   .     S
N1049  H1051   1.046   .     S
N1052  H1054   1.046   .     S
N1052  H1053   1.046   .     S
C1055  O1104   1.281   .     A
C1055  O1101   1.281   .     A
C1055  C1064   1.419   .     S
C1056  O1103   1.281   .     A
C1056  O1102   1.281   .     A
C1056  C1063   1.419   .     S
C1057  H1089   1.084   .     S
C1057  C1082   1.397   .     A
C1058  H1090   1.084   .     S
C1058  C1081   1.397   .     A
C1058  C526    1.396   1_556 S
C1059  H1091   1.084   .     S
C1059  C1064   1.397   .     A
C1060  C1063   1.397   .     A
C1060  H1092   1.084   .     S
C1060  C938    1.370   1_655 S
C1061  C1063   1.397   .     A
C1061  H1093   1.084   .     S
C1061  C935    1.370   1_655 S
C1062  H1094   1.084   .     S
C1062  C1064   1.397   .     A
C1065  H1095   1.082   .     S
C1065  N1100   1.366   .     A
C1066  H1096   1.082   .     S
C1066  N1099   1.366   .     A
C1066  C695    1.415   1_565 S
C1067  N1100   1.366   .     A
C1067  H1097   1.082   .     S
C1068  H1098   1.082   .     S
C1068  N1099   1.366   .     A
C1068  C693    1.415   1_565 S
C1069  C1074   1.439   .     S
C1069  O1105   1.286   .     A
C1069  O1108   1.286   .     A
C1070  C1073   1.439   .     S
C1070  O1106   1.286   .     A
C1070  O1107   1.286   .     A
C1071  H1085   1.085   .     S
C1071  C1073   1.395   .     A
C1071  C1081   1.382   .     A
C1072  H1086   1.085   .     S
C1072  C1082   1.382   .     A
C1072  C1074   1.395   .     A
C1073  C1075   1.397   .     A
C1074  C1076   1.397   .     A
C1075  C1077   1.390   .     A
C1075  H1087   1.083   .     S
C1076  C1078   1.389   .     A
C1076  H1088   1.083   .     S
C1077  C1083   1.412   .     A
C1077  C1079   1.417   .     A
C1078  C1080   1.416   .     A
C1078  C1084   1.411   .     A
C1079  C1081   1.411   .     A
C1079  C522    1.392   1_556 S
C1080  C1082   1.411   .     A
C1083  N1111   1.439   .     S
C1083  C499    1.396   1_556 S
C1084  N1114   1.439   .     S
N1099  Zn1109  2.005   .     S
N1100  Zn1110  2.005   .     S
O1101  Zn1109  2.000   .     S
O1102  Zn1110  2.000   .     S
O1103  Zn1109  2.000   .     S
O1104  Zn1110  2.000   .     S
O1105  Zn1109  2.020   .     S
O1106  Zn1110  2.020   .     S
O1107  Zn1109  2.019   .     S
O1108  Zn1110  2.019   .     S
N1111  H1112   1.046   .     S
N1111  H1113   1.046   .     S
N1114  H1116   1.046   .     S
N1114  H1115   1.046   .     S
