data_str_m3_o1_o1_pcu_sym.10
_audit_creation_date              2020-01-03
_audit_creation_method            'Materials Studio'
_symmetry_space_group_name_H-M    'P1'
_symmetry_Int_Tables_number       1
_symmetry_cell_setting            triclinic
loop_
_symmetry_equiv_pos_as_xyz
  x,y,z
_cell_length_a                    31.7681
_cell_length_b                    29.3214
_cell_length_c                    30.0160
_cell_angle_alpha                 90.4831
_cell_angle_beta                  88.9334
_cell_angle_gamma                 89.2233
loop_
_atom_site_label
_atom_site_type_symbol
_atom_site_fract_x
_atom_site_fract_y
_atom_site_fract_z
_atom_site_U_iso_or_equiv
_atom_site_adp_type
_atom_site_occupancy
C1     C     0.05879   0.18894   0.16612   0.00000  Uiso   1.00
C2     C     0.00593   0.21052   0.30925   0.00000  Uiso   1.00
C3     C     0.00751   0.21082   0.02299   0.00000  Uiso   1.00
C4     C     0.49607   0.28977   0.31010   0.00000  Uiso   1.00
C5     C     0.24475   0.03960   0.02391   0.00000  Uiso   1.00
C6     C     0.25593   0.46052   0.30926   0.00000  Uiso   1.00
C7     C     0.25751   0.46082   0.02299   0.00000  Uiso   1.00
C8     C     0.24607   0.03977   0.31010   0.00000  Uiso   1.00
C9     C     0.40122   0.12877   0.12861   0.00000  Uiso   1.00
C10    C     0.11336   0.35460   0.20711   0.00000  Uiso   1.00
C11    C     0.11235   0.35883   0.12651   0.00000  Uiso   1.00
C12    C     0.43859   0.30860   0.16709   0.00000  Uiso   1.00
C13    C     0.38636   0.14437   0.20674   0.00000  Uiso   1.00
C14    C     0.08778   0.11933   0.19847   0.00000  Uiso   1.00
C15    C     0.38879   0.35566   0.12585   0.00000  Uiso   1.00
C16    C     0.37544   0.34663   0.20524   0.00000  Uiso   1.00
C17    C     0.11694   0.14657   0.12852   0.00000  Uiso   1.00
C18    C     0.15121   0.37877   0.12861   0.00000  Uiso   1.00
C19    C     0.36336   0.10460   0.20711   0.00000  Uiso   1.00
C20    C     0.36235   0.10883   0.12651   0.00000  Uiso   1.00
C21    C     0.13635   0.39437   0.20674   0.00000  Uiso   1.00
C22    C     0.33778   0.36933   0.19847   0.00000  Uiso   1.00
C23    C     0.44088   0.18916   0.16685   0.00000  Uiso   1.00
C24    C     0.13880   0.10566   0.12585   0.00000  Uiso   1.00
C25    C     0.12544   0.09663   0.20524   0.00000  Uiso   1.00
C26    C     0.36694   0.39657   0.12852   0.00000  Uiso   1.00
C27    C     0.09517   0.34134   0.16652   0.00000  Uiso   1.00
C28    C     0.40976   0.15365   0.16756   0.00000  Uiso   1.00
C29    C     0.40099   0.33717   0.16688   0.00000  Uiso   1.00
C30    C     0.08811   0.15169   0.16436   0.00000  Uiso   1.00
C31    C     0.34517   0.09133   0.16652   0.00000  Uiso   1.00
C32    C     0.15976   0.40365   0.16756   0.00000  Uiso   1.00
C33    C     0.15099   0.08717   0.16688   0.00000  Uiso   1.00
C34    C     0.06030   0.30974   0.16651   0.00000  Uiso   1.00
C35    C     0.33811   0.40169   0.16436   0.00000  Uiso   1.00
C36    C     0.30879   0.43894   0.16612   0.00000  Uiso   1.00
C37    C     0.18859   0.05860   0.16709   0.00000  Uiso   1.00
C38    C     0.19088   0.43916   0.16685   0.00000  Uiso   1.00
C39    C     0.31030   0.05974   0.16651   0.00000  Uiso   1.00
C40    C     0.49475   0.28960   0.02391   0.00000  Uiso   1.00
H41    H     0.49587   0.32657   0.07633   0.00000  Uiso   1.00
H42    H     0.08668   0.34861   0.30339   0.00000  Uiso   1.00
H43    H     0.10766   0.30698   0.04411   0.00000  Uiso   1.00
H44    H     0.40990   0.16158   0.30096   0.00000  Uiso   1.00
H45    H     0.01284   0.06174   0.27241   0.00000  Uiso   1.00
H46    H     0.40690   0.35941   0.03219   0.00000  Uiso   1.00
H47    H     0.37972   0.28650   0.29364   0.00000  Uiso   1.00
H48    H     0.10322   0.16876   0.03476   0.00000  Uiso   1.00
H49    H     0.18260   0.41831   0.05210   0.00000  Uiso   1.00
H50    H     0.33670   0.09860   0.30339   0.00000  Uiso   1.00
H51    H     0.35766   0.05697   0.04412   0.00000  Uiso   1.00
H52    H     0.49860   0.17269   0.25837   0.00000  Uiso   1.00
H53    H     0.15985   0.41161   0.30100   0.00000  Uiso   1.00
H54    H     0.26290   0.31164   0.27239   0.00000  Uiso   1.00
H55    H     0.15690   0.10941   0.03219   0.00000  Uiso   1.00
H56    H     0.12973   0.03650   0.29365   0.00000  Uiso   1.00
H57    H     0.35322   0.41876   0.03476   0.00000  Uiso   1.00
H58    H     0.00791   0.17370   0.07411   0.00000  Uiso   1.00
H59    H     0.49986   0.32709   0.25788   0.00000  Uiso   1.00
H60    H     0.24587   0.07657   0.07633   0.00000  Uiso   1.00
H61    H     0.24860   0.42269   0.25837   0.00000  Uiso   1.00
H62    H     0.25791   0.42370   0.07411   0.00000  Uiso   1.00
H63    H     0.24986   0.07709   0.25788   0.00000  Uiso   1.00
H64    H     0.43260   0.16832   0.05210   0.00000  Uiso   1.00
N65    N     0.00000   0.25000   0.28573   0.00000  Uiso   1.00
N66    N     0.00000   0.25000   0.04760   0.00000  Uiso   1.00
N67    N     0.25000   0.00000   0.28573   0.00000  Uiso   1.00
N68    N     0.25000   0.00000   0.04760   0.00000  Uiso   1.00
O69    O     0.04581   0.20419   0.20487   0.00000  Uiso   1.00
O70    O     0.20420   0.04581   0.12846   0.00000  Uiso   1.00
O71    O     0.20420   0.04581   0.20487   0.00000  Uiso   1.00
O72    O     0.29581   0.45419   0.12846   0.00000  Uiso   1.00
O73    O     0.20420   0.45419   0.12846   0.00000  Uiso   1.00
O74    O     0.29581   0.04581   0.20487   0.00000  Uiso   1.00
O75    O     0.29581   0.04581   0.12846   0.00000  Uiso   1.00
O76    O     0.20420   0.45419   0.20487   0.00000  Uiso   1.00
O77    O     0.49017   0.33113   0.04479   0.00000  Uiso   1.00
O78    O     0.01028   0.16913   0.28814   0.00000  Uiso   1.00
O79    O     0.01707   0.17035   0.04299   0.00000  Uiso   1.00
O80    O     0.45420   0.29581   0.12846   0.00000  Uiso   1.00
O81    O     0.49544   0.33162   0.29004   0.00000  Uiso   1.00
O82    O     0.24017   0.08113   0.04479   0.00000  Uiso   1.00
O83    O     0.26028   0.41913   0.28814   0.00000  Uiso   1.00
O84    O     0.26707   0.42035   0.04299   0.00000  Uiso   1.00
O85    O     0.24544   0.08162   0.29004   0.00000  Uiso   1.00
O86    O     0.48320   0.10918   0.11189   0.00000  Uiso   1.00
O87    O     0.43152   0.05840   0.08048   0.00000  Uiso   1.00
O88    O     0.44001   0.13653   0.04341   0.00000  Uiso   1.00
O89    O     0.12596   0.26783   0.23246   0.00000  Uiso   1.00
O90    O     0.16359   0.32660   0.27307   0.00000  Uiso   1.00
O91    O     0.45420   0.29581   0.20487   0.00000  Uiso   1.00
O92    O     0.08364   0.31856   0.28873   0.00000  Uiso   1.00
O93    O     0.04142   0.38763   0.09096   0.00000  Uiso   1.00
O94    O     0.10491   0.40110   0.04719   0.00000  Uiso   1.00
O95    O     0.07854   0.31793   0.05035   0.00000  Uiso   1.00
O96    O     0.36847   0.23197   0.22359   0.00000  Uiso   1.00
O97    O     0.33171   0.17663   0.26966   0.00000  Uiso   1.00
O98    O     0.41053   0.19108   0.28528   0.00000  Uiso   1.00
O99    O     0.00259   0.11552   0.19978   0.00000  Uiso   1.00
O100   O     0.04253   0.04471   0.18810   0.00000  Uiso   1.00
O101   O     0.03921   0.07884   0.26772   0.00000  Uiso   1.00
O102   O     0.04581   0.20419   0.12846   0.00000  Uiso   1.00
O103   O     0.37711   0.26986   0.09559   0.00000  Uiso   1.00
O104   O     0.33040   0.32959   0.06779   0.00000  Uiso   1.00
O105   O     0.40686   0.32616   0.03735   0.00000  Uiso   1.00
O106   O     0.43239   0.37891   0.25970   0.00000  Uiso   1.00
O107   O     0.36169   0.37168   0.29058   0.00000  Uiso   1.00
O108   O     0.40605   0.29733   0.27933   0.00000  Uiso   1.00
O109   O     0.13263   0.23572   0.12111   0.00000  Uiso   1.00
O110   O     0.17778   0.18341   0.07738   0.00000  Uiso   1.00
O111   O     0.10175   0.19844   0.05065   0.00000  Uiso   1.00
O112   O     0.23320   0.35918   0.11189   0.00000  Uiso   1.00
O113   O     0.45420   0.20419   0.12846   0.00000  Uiso   1.00
O114   O     0.18152   0.30839   0.08048   0.00000  Uiso   1.00
O115   O     0.19001   0.38652   0.04341   0.00000  Uiso   1.00
O116   O     0.37596   0.01782   0.23245   0.00000  Uiso   1.00
O117   O     0.41360   0.07658   0.27306   0.00000  Uiso   1.00
O118   O     0.33365   0.06855   0.28873   0.00000  Uiso   1.00
O119   O     0.29142   0.13763   0.09096   0.00000  Uiso   1.00
O120   O     0.35491   0.15110   0.04718   0.00000  Uiso   1.00
O121   O     0.32853   0.06793   0.05035   0.00000  Uiso   1.00
O122   O     0.11848   0.48198   0.22358   0.00000  Uiso   1.00
O123   O     0.08171   0.42665   0.26965   0.00000  Uiso   1.00
O124   O     0.04581   0.29581   0.20487   0.00000  Uiso   1.00
O125   O     0.16052   0.44108   0.28528   0.00000  Uiso   1.00
O126   O     0.25259   0.36551   0.19978   0.00000  Uiso   1.00
O127   O     0.29253   0.29471   0.18810   0.00000  Uiso   1.00
O128   O     0.28921   0.32884   0.26773   0.00000  Uiso   1.00
O129   O     0.12711   0.01986   0.09559   0.00000  Uiso   1.00
O130   O     0.08040   0.07959   0.06779   0.00000  Uiso   1.00
O131   O     0.15686   0.07616   0.03735   0.00000  Uiso   1.00
O132   O     0.18239   0.12891   0.25970   0.00000  Uiso   1.00
O133   O     0.11169   0.12168   0.29058   0.00000  Uiso   1.00
O134   O     0.15605   0.04733   0.27934   0.00000  Uiso   1.00
O135   O     0.04581   0.29581   0.12846   0.00000  Uiso   1.00
O136   O     0.38263   0.48572   0.12111   0.00000  Uiso   1.00
O137   O     0.42778   0.43340   0.07738   0.00000  Uiso   1.00
O138   O     0.35175   0.44843   0.05065   0.00000  Uiso   1.00
O139   O     0.45420   0.20419   0.20487   0.00000  Uiso   1.00
O140   O     0.29581   0.45419   0.20487   0.00000  Uiso   1.00
S141   S     0.44061   0.10736   0.09125   0.00000  Uiso   1.00
S142   S     0.37290   0.06563   0.25080   0.00000  Uiso   1.00
S143   S     0.33362   0.11777   0.07756   0.00000  Uiso   1.00
S144   S     0.12296   0.43708   0.24689   0.00000  Uiso   1.00
S145   S     0.29135   0.33953   0.21281   0.00000  Uiso   1.00
S146   S     0.12473   0.06889   0.08146   0.00000  Uiso   1.00
S147   S     0.14413   0.09947   0.26009   0.00000  Uiso   1.00
S148   S     0.38354   0.44221   0.09428   0.00000  Uiso   1.00
S149   S     0.12290   0.31565   0.25081   0.00000  Uiso   1.00
S150   S     0.08362   0.36777   0.07756   0.00000  Uiso   1.00
S151   S     0.37296   0.18707   0.24690   0.00000  Uiso   1.00
S152   S     0.04135   0.08953   0.21281   0.00000  Uiso   1.00
S153   S     0.37473   0.31889   0.08146   0.00000  Uiso   1.00
S154   S     0.39413   0.34947   0.26009   0.00000  Uiso   1.00
S155   S     0.13355   0.19221   0.09428   0.00000  Uiso   1.00
S156   S     0.19061   0.35736   0.09125   0.00000  Uiso   1.00
Zn157  Zn    0.00000   0.25000   0.21771   0.00000  Uiso   1.00
Zn158  Zn    0.00000   0.25000   0.11563   0.00000  Uiso   1.00
Zn159  Zn    0.25000   0.00000   0.21771   0.00000  Uiso   1.00
Zn160  Zn    0.25000   0.00000   0.11563   0.00000  Uiso   1.00
C161   C     0.55879   0.18894   0.16612   0.00000  Uiso   1.00
C162   C     0.50593   0.21052   0.30925   0.00000  Uiso   1.00
C163   C     0.50751   0.21082   0.02299   0.00000  Uiso   1.00
C164   C     0.99607   0.28977   0.31010   0.00000  Uiso   1.00
C165   C     0.74475   0.03960   0.02391   0.00000  Uiso   1.00
C166   C     0.75593   0.46052   0.30926   0.00000  Uiso   1.00
C167   C     0.75751   0.46082   0.02299   0.00000  Uiso   1.00
C168   C     0.74607   0.03977   0.31010   0.00000  Uiso   1.00
C169   C     0.90122   0.12877   0.12861   0.00000  Uiso   1.00
C170   C     0.61336   0.35460   0.20711   0.00000  Uiso   1.00
C171   C     0.61235   0.35883   0.12651   0.00000  Uiso   1.00
C172   C     0.93859   0.30860   0.16709   0.00000  Uiso   1.00
C173   C     0.88636   0.14437   0.20674   0.00000  Uiso   1.00
C174   C     0.58778   0.11933   0.19847   0.00000  Uiso   1.00
C175   C     0.88879   0.35566   0.12585   0.00000  Uiso   1.00
C176   C     0.87544   0.34663   0.20524   0.00000  Uiso   1.00
C177   C     0.61694   0.14657   0.12852   0.00000  Uiso   1.00
C178   C     0.65121   0.37877   0.12861   0.00000  Uiso   1.00
C179   C     0.86336   0.10460   0.20711   0.00000  Uiso   1.00
C180   C     0.86235   0.10883   0.12651   0.00000  Uiso   1.00
C181   C     0.63635   0.39437   0.20674   0.00000  Uiso   1.00
C182   C     0.83778   0.36933   0.19847   0.00000  Uiso   1.00
C183   C     0.94088   0.18916   0.16685   0.00000  Uiso   1.00
C184   C     0.63880   0.10566   0.12585   0.00000  Uiso   1.00
C185   C     0.62544   0.09663   0.20524   0.00000  Uiso   1.00
C186   C     0.86694   0.39657   0.12852   0.00000  Uiso   1.00
C187   C     0.59517   0.34134   0.16652   0.00000  Uiso   1.00
C188   C     0.90976   0.15365   0.16756   0.00000  Uiso   1.00
C189   C     0.90099   0.33717   0.16688   0.00000  Uiso   1.00
C190   C     0.58811   0.15169   0.16436   0.00000  Uiso   1.00
C191   C     0.84517   0.09133   0.16652   0.00000  Uiso   1.00
C192   C     0.65976   0.40365   0.16756   0.00000  Uiso   1.00
C193   C     0.65099   0.08717   0.16688   0.00000  Uiso   1.00
C194   C     0.56030   0.30974   0.16651   0.00000  Uiso   1.00
C195   C     0.83811   0.40169   0.16436   0.00000  Uiso   1.00
C196   C     0.80879   0.43894   0.16612   0.00000  Uiso   1.00
C197   C     0.68859   0.05860   0.16709   0.00000  Uiso   1.00
C198   C     0.69088   0.43916   0.16685   0.00000  Uiso   1.00
C199   C     0.81030   0.05974   0.16651   0.00000  Uiso   1.00
C200   C     0.99475   0.28960   0.02391   0.00000  Uiso   1.00
H201   H     0.99587   0.32657   0.07633   0.00000  Uiso   1.00
H202   H     0.58668   0.34861   0.30339   0.00000  Uiso   1.00
H203   H     0.60766   0.30698   0.04411   0.00000  Uiso   1.00
H204   H     0.90990   0.16158   0.30096   0.00000  Uiso   1.00
H205   H     0.51284   0.06174   0.27241   0.00000  Uiso   1.00
H206   H     0.90690   0.35941   0.03219   0.00000  Uiso   1.00
H207   H     0.87972   0.28650   0.29364   0.00000  Uiso   1.00
H208   H     0.60322   0.16876   0.03476   0.00000  Uiso   1.00
H209   H     0.68260   0.41831   0.05210   0.00000  Uiso   1.00
H210   H     0.83670   0.09860   0.30339   0.00000  Uiso   1.00
H211   H     0.85766   0.05697   0.04412   0.00000  Uiso   1.00
H212   H     0.99860   0.17269   0.25837   0.00000  Uiso   1.00
H213   H     0.65985   0.41161   0.30100   0.00000  Uiso   1.00
H214   H     0.76290   0.31164   0.27239   0.00000  Uiso   1.00
H215   H     0.65690   0.10941   0.03219   0.00000  Uiso   1.00
H216   H     0.62973   0.03650   0.29365   0.00000  Uiso   1.00
H217   H     0.85322   0.41876   0.03476   0.00000  Uiso   1.00
H218   H     0.50791   0.17370   0.07411   0.00000  Uiso   1.00
H219   H     0.99986   0.32709   0.25788   0.00000  Uiso   1.00
H220   H     0.74587   0.07657   0.07633   0.00000  Uiso   1.00
H221   H     0.74860   0.42269   0.25837   0.00000  Uiso   1.00
H222   H     0.75791   0.42370   0.07411   0.00000  Uiso   1.00
H223   H     0.74986   0.07709   0.25788   0.00000  Uiso   1.00
H224   H     0.93260   0.16832   0.05210   0.00000  Uiso   1.00
N225   N     0.50000   0.25000   0.28573   0.00000  Uiso   1.00
N226   N     0.50000   0.25000   0.04760   0.00000  Uiso   1.00
N227   N     0.75000   0.00000   0.28573   0.00000  Uiso   1.00
N228   N     0.75000   0.00000   0.04760   0.00000  Uiso   1.00
O229   O     0.54581   0.20419   0.20487   0.00000  Uiso   1.00
O230   O     0.70420   0.04581   0.12846   0.00000  Uiso   1.00
O231   O     0.70420   0.04581   0.20487   0.00000  Uiso   1.00
O232   O     0.79581   0.45419   0.12846   0.00000  Uiso   1.00
O233   O     0.70420   0.45419   0.12846   0.00000  Uiso   1.00
O234   O     0.79581   0.04581   0.20487   0.00000  Uiso   1.00
O235   O     0.79581   0.04581   0.12846   0.00000  Uiso   1.00
O236   O     0.70420   0.45419   0.20487   0.00000  Uiso   1.00
O237   O     0.99017   0.33113   0.04479   0.00000  Uiso   1.00
O238   O     0.51028   0.16913   0.28814   0.00000  Uiso   1.00
O239   O     0.51707   0.17035   0.04299   0.00000  Uiso   1.00
O240   O     0.95420   0.29581   0.12846   0.00000  Uiso   1.00
O241   O     0.99544   0.33162   0.29004   0.00000  Uiso   1.00
O242   O     0.74017   0.08113   0.04479   0.00000  Uiso   1.00
O243   O     0.76028   0.41913   0.28814   0.00000  Uiso   1.00
O244   O     0.76707   0.42035   0.04299   0.00000  Uiso   1.00
O245   O     0.74544   0.08162   0.29004   0.00000  Uiso   1.00
O246   O     0.98320   0.10918   0.11189   0.00000  Uiso   1.00
O247   O     0.93152   0.05840   0.08048   0.00000  Uiso   1.00
O248   O     0.94001   0.13653   0.04341   0.00000  Uiso   1.00
O249   O     0.62596   0.26783   0.23246   0.00000  Uiso   1.00
O250   O     0.66359   0.32660   0.27307   0.00000  Uiso   1.00
O251   O     0.95420   0.29581   0.20487   0.00000  Uiso   1.00
O252   O     0.58364   0.31856   0.28873   0.00000  Uiso   1.00
O253   O     0.54142   0.38763   0.09096   0.00000  Uiso   1.00
O254   O     0.60491   0.40110   0.04719   0.00000  Uiso   1.00
O255   O     0.57854   0.31793   0.05035   0.00000  Uiso   1.00
O256   O     0.86847   0.23197   0.22359   0.00000  Uiso   1.00
O257   O     0.83171   0.17663   0.26966   0.00000  Uiso   1.00
O258   O     0.91053   0.19108   0.28528   0.00000  Uiso   1.00
O259   O     0.50259   0.11552   0.19978   0.00000  Uiso   1.00
O260   O     0.54253   0.04471   0.18810   0.00000  Uiso   1.00
O261   O     0.53921   0.07884   0.26772   0.00000  Uiso   1.00
O262   O     0.54581   0.20419   0.12846   0.00000  Uiso   1.00
O263   O     0.87711   0.26986   0.09559   0.00000  Uiso   1.00
O264   O     0.83040   0.32959   0.06779   0.00000  Uiso   1.00
O265   O     0.90686   0.32616   0.03735   0.00000  Uiso   1.00
O266   O     0.93239   0.37891   0.25970   0.00000  Uiso   1.00
O267   O     0.86169   0.37168   0.29058   0.00000  Uiso   1.00
O268   O     0.90605   0.29733   0.27933   0.00000  Uiso   1.00
O269   O     0.63263   0.23572   0.12111   0.00000  Uiso   1.00
O270   O     0.67778   0.18341   0.07738   0.00000  Uiso   1.00
O271   O     0.60175   0.19844   0.05065   0.00000  Uiso   1.00
O272   O     0.73320   0.35918   0.11189   0.00000  Uiso   1.00
O273   O     0.95420   0.20419   0.12846   0.00000  Uiso   1.00
O274   O     0.68152   0.30839   0.08048   0.00000  Uiso   1.00
O275   O     0.69001   0.38652   0.04341   0.00000  Uiso   1.00
O276   O     0.87596   0.01782   0.23245   0.00000  Uiso   1.00
O277   O     0.91360   0.07658   0.27306   0.00000  Uiso   1.00
O278   O     0.83365   0.06855   0.28873   0.00000  Uiso   1.00
O279   O     0.79142   0.13763   0.09096   0.00000  Uiso   1.00
O280   O     0.85491   0.15110   0.04718   0.00000  Uiso   1.00
O281   O     0.82853   0.06793   0.05035   0.00000  Uiso   1.00
O282   O     0.61848   0.48198   0.22358   0.00000  Uiso   1.00
O283   O     0.58171   0.42665   0.26965   0.00000  Uiso   1.00
O284   O     0.54581   0.29581   0.20487   0.00000  Uiso   1.00
O285   O     0.66052   0.44108   0.28528   0.00000  Uiso   1.00
O286   O     0.75259   0.36551   0.19978   0.00000  Uiso   1.00
O287   O     0.79253   0.29471   0.18810   0.00000  Uiso   1.00
O288   O     0.78921   0.32884   0.26773   0.00000  Uiso   1.00
O289   O     0.62711   0.01986   0.09559   0.00000  Uiso   1.00
O290   O     0.58040   0.07959   0.06779   0.00000  Uiso   1.00
O291   O     0.65686   0.07616   0.03735   0.00000  Uiso   1.00
O292   O     0.68239   0.12891   0.25970   0.00000  Uiso   1.00
O293   O     0.61169   0.12168   0.29058   0.00000  Uiso   1.00
O294   O     0.65605   0.04733   0.27934   0.00000  Uiso   1.00
O295   O     0.54581   0.29581   0.12846   0.00000  Uiso   1.00
O296   O     0.88263   0.48572   0.12111   0.00000  Uiso   1.00
O297   O     0.92778   0.43340   0.07738   0.00000  Uiso   1.00
O298   O     0.85175   0.44843   0.05065   0.00000  Uiso   1.00
O299   O     0.95420   0.20419   0.20487   0.00000  Uiso   1.00
O300   O     0.79581   0.45419   0.20487   0.00000  Uiso   1.00
S301   S     0.94061   0.10736   0.09125   0.00000  Uiso   1.00
S302   S     0.87290   0.06563   0.25080   0.00000  Uiso   1.00
S303   S     0.83362   0.11777   0.07756   0.00000  Uiso   1.00
S304   S     0.62296   0.43708   0.24689   0.00000  Uiso   1.00
S305   S     0.79135   0.33953   0.21281   0.00000  Uiso   1.00
S306   S     0.62473   0.06889   0.08146   0.00000  Uiso   1.00
S307   S     0.64413   0.09947   0.26009   0.00000  Uiso   1.00
S308   S     0.88354   0.44221   0.09428   0.00000  Uiso   1.00
S309   S     0.62290   0.31565   0.25081   0.00000  Uiso   1.00
S310   S     0.58362   0.36777   0.07756   0.00000  Uiso   1.00
S311   S     0.87296   0.18707   0.24690   0.00000  Uiso   1.00
S312   S     0.54135   0.08953   0.21281   0.00000  Uiso   1.00
S313   S     0.87473   0.31889   0.08146   0.00000  Uiso   1.00
S314   S     0.89413   0.34947   0.26009   0.00000  Uiso   1.00
S315   S     0.63355   0.19221   0.09428   0.00000  Uiso   1.00
S316   S     0.69061   0.35736   0.09125   0.00000  Uiso   1.00
Zn317  Zn    0.50000   0.25000   0.21771   0.00000  Uiso   1.00
Zn318  Zn    0.50000   0.25000   0.11563   0.00000  Uiso   1.00
Zn319  Zn    0.75000   0.00000   0.21771   0.00000  Uiso   1.00
Zn320  Zn    0.75000   0.00000   0.11563   0.00000  Uiso   1.00
C321   C     0.05879   0.68894   0.16612   0.00000  Uiso   1.00
C322   C     0.00593   0.71052   0.30925   0.00000  Uiso   1.00
C323   C     0.00751   0.71082   0.02299   0.00000  Uiso   1.00
C324   C     0.49607   0.78977   0.31010   0.00000  Uiso   1.00
C325   C     0.24475   0.53960   0.02391   0.00000  Uiso   1.00
C326   C     0.25593   0.96052   0.30926   0.00000  Uiso   1.00
C327   C     0.25751   0.96082   0.02299   0.00000  Uiso   1.00
C328   C     0.24607   0.53977   0.31010   0.00000  Uiso   1.00
C329   C     0.40122   0.62877   0.12861   0.00000  Uiso   1.00
C330   C     0.11336   0.85460   0.20711   0.00000  Uiso   1.00
C331   C     0.11235   0.85883   0.12651   0.00000  Uiso   1.00
C332   C     0.43859   0.80860   0.16709   0.00000  Uiso   1.00
C333   C     0.38636   0.64437   0.20674   0.00000  Uiso   1.00
C334   C     0.08778   0.61933   0.19847   0.00000  Uiso   1.00
C335   C     0.38879   0.85566   0.12585   0.00000  Uiso   1.00
C336   C     0.37544   0.84663   0.20524   0.00000  Uiso   1.00
C337   C     0.11694   0.64657   0.12852   0.00000  Uiso   1.00
C338   C     0.15121   0.87877   0.12861   0.00000  Uiso   1.00
C339   C     0.36336   0.60460   0.20711   0.00000  Uiso   1.00
C340   C     0.36235   0.60883   0.12651   0.00000  Uiso   1.00
C341   C     0.13635   0.89437   0.20674   0.00000  Uiso   1.00
C342   C     0.33778   0.86933   0.19847   0.00000  Uiso   1.00
C343   C     0.44088   0.68916   0.16685   0.00000  Uiso   1.00
C344   C     0.13880   0.60566   0.12585   0.00000  Uiso   1.00
C345   C     0.12544   0.59663   0.20524   0.00000  Uiso   1.00
C346   C     0.36694   0.89657   0.12852   0.00000  Uiso   1.00
C347   C     0.09517   0.84134   0.16652   0.00000  Uiso   1.00
C348   C     0.40976   0.65365   0.16756   0.00000  Uiso   1.00
C349   C     0.40099   0.83717   0.16688   0.00000  Uiso   1.00
C350   C     0.08811   0.65169   0.16436   0.00000  Uiso   1.00
C351   C     0.34517   0.59133   0.16652   0.00000  Uiso   1.00
C352   C     0.15976   0.90365   0.16756   0.00000  Uiso   1.00
C353   C     0.15099   0.58717   0.16688   0.00000  Uiso   1.00
C354   C     0.06030   0.80974   0.16651   0.00000  Uiso   1.00
C355   C     0.33811   0.90169   0.16436   0.00000  Uiso   1.00
C356   C     0.30879   0.93894   0.16612   0.00000  Uiso   1.00
C357   C     0.18859   0.55860   0.16709   0.00000  Uiso   1.00
C358   C     0.19088   0.93916   0.16685   0.00000  Uiso   1.00
C359   C     0.31030   0.55974   0.16651   0.00000  Uiso   1.00
C360   C     0.49475   0.78960   0.02391   0.00000  Uiso   1.00
H361   H     0.49587   0.82657   0.07633   0.00000  Uiso   1.00
H362   H     0.08668   0.84861   0.30339   0.00000  Uiso   1.00
H363   H     0.10766   0.80698   0.04411   0.00000  Uiso   1.00
H364   H     0.40990   0.66158   0.30096   0.00000  Uiso   1.00
H365   H     0.01284   0.56174   0.27241   0.00000  Uiso   1.00
H366   H     0.40690   0.85941   0.03219   0.00000  Uiso   1.00
H367   H     0.37972   0.78650   0.29364   0.00000  Uiso   1.00
H368   H     0.10322   0.66876   0.03476   0.00000  Uiso   1.00
H369   H     0.18260   0.91831   0.05210   0.00000  Uiso   1.00
H370   H     0.33670   0.59860   0.30339   0.00000  Uiso   1.00
H371   H     0.35766   0.55697   0.04412   0.00000  Uiso   1.00
H372   H     0.49860   0.67269   0.25837   0.00000  Uiso   1.00
H373   H     0.15985   0.91161   0.30100   0.00000  Uiso   1.00
H374   H     0.26290   0.81164   0.27239   0.00000  Uiso   1.00
H375   H     0.15690   0.60941   0.03219   0.00000  Uiso   1.00
H376   H     0.12973   0.53650   0.29365   0.00000  Uiso   1.00
H377   H     0.35322   0.91876   0.03476   0.00000  Uiso   1.00
H378   H     0.00791   0.67370   0.07411   0.00000  Uiso   1.00
H379   H     0.49986   0.82709   0.25788   0.00000  Uiso   1.00
H380   H     0.24587   0.57657   0.07633   0.00000  Uiso   1.00
H381   H     0.24860   0.92269   0.25837   0.00000  Uiso   1.00
H382   H     0.25791   0.92370   0.07411   0.00000  Uiso   1.00
H383   H     0.24986   0.57709   0.25788   0.00000  Uiso   1.00
H384   H     0.43260   0.66832   0.05210   0.00000  Uiso   1.00
N385   N     0.00000   0.75000   0.28573   0.00000  Uiso   1.00
N386   N     0.00000   0.75000   0.04760   0.00000  Uiso   1.00
N387   N     0.25000   0.50000   0.28573   0.00000  Uiso   1.00
N388   N     0.25000   0.50000   0.04760   0.00000  Uiso   1.00
O389   O     0.04581   0.70419   0.20487   0.00000  Uiso   1.00
O390   O     0.20420   0.54581   0.12846   0.00000  Uiso   1.00
O391   O     0.20420   0.54581   0.20487   0.00000  Uiso   1.00
O392   O     0.29581   0.95419   0.12846   0.00000  Uiso   1.00
O393   O     0.20420   0.95419   0.12846   0.00000  Uiso   1.00
O394   O     0.29581   0.54581   0.20487   0.00000  Uiso   1.00
O395   O     0.29581   0.54581   0.12846   0.00000  Uiso   1.00
O396   O     0.20420   0.95419   0.20487   0.00000  Uiso   1.00
O397   O     0.49017   0.83113   0.04479   0.00000  Uiso   1.00
O398   O     0.01028   0.66913   0.28814   0.00000  Uiso   1.00
O399   O     0.01707   0.67035   0.04299   0.00000  Uiso   1.00
O400   O     0.45420   0.79581   0.12846   0.00000  Uiso   1.00
O401   O     0.49544   0.83162   0.29004   0.00000  Uiso   1.00
O402   O     0.24017   0.58113   0.04479   0.00000  Uiso   1.00
O403   O     0.26028   0.91913   0.28814   0.00000  Uiso   1.00
O404   O     0.26707   0.92035   0.04299   0.00000  Uiso   1.00
O405   O     0.24544   0.58162   0.29004   0.00000  Uiso   1.00
O406   O     0.48320   0.60918   0.11189   0.00000  Uiso   1.00
O407   O     0.43152   0.55840   0.08048   0.00000  Uiso   1.00
O408   O     0.44001   0.63653   0.04341   0.00000  Uiso   1.00
O409   O     0.12596   0.76783   0.23246   0.00000  Uiso   1.00
O410   O     0.16359   0.82660   0.27307   0.00000  Uiso   1.00
O411   O     0.45420   0.79581   0.20487   0.00000  Uiso   1.00
O412   O     0.08364   0.81856   0.28873   0.00000  Uiso   1.00
O413   O     0.04142   0.88763   0.09096   0.00000  Uiso   1.00
O414   O     0.10491   0.90110   0.04719   0.00000  Uiso   1.00
O415   O     0.07854   0.81793   0.05035   0.00000  Uiso   1.00
O416   O     0.36847   0.73197   0.22359   0.00000  Uiso   1.00
O417   O     0.33171   0.67663   0.26966   0.00000  Uiso   1.00
O418   O     0.41053   0.69108   0.28528   0.00000  Uiso   1.00
O419   O     0.00259   0.61552   0.19978   0.00000  Uiso   1.00
O420   O     0.04253   0.54471   0.18810   0.00000  Uiso   1.00
O421   O     0.03921   0.57884   0.26772   0.00000  Uiso   1.00
O422   O     0.04581   0.70419   0.12846   0.00000  Uiso   1.00
O423   O     0.37711   0.76986   0.09559   0.00000  Uiso   1.00
O424   O     0.33040   0.82959   0.06779   0.00000  Uiso   1.00
O425   O     0.40686   0.82616   0.03735   0.00000  Uiso   1.00
O426   O     0.43239   0.87891   0.25970   0.00000  Uiso   1.00
O427   O     0.36169   0.87168   0.29058   0.00000  Uiso   1.00
O428   O     0.40605   0.79733   0.27933   0.00000  Uiso   1.00
O429   O     0.13263   0.73572   0.12111   0.00000  Uiso   1.00
O430   O     0.17778   0.68341   0.07738   0.00000  Uiso   1.00
O431   O     0.10175   0.69844   0.05065   0.00000  Uiso   1.00
O432   O     0.23320   0.85918   0.11189   0.00000  Uiso   1.00
O433   O     0.45420   0.70419   0.12846   0.00000  Uiso   1.00
O434   O     0.18152   0.80839   0.08048   0.00000  Uiso   1.00
O435   O     0.19001   0.88652   0.04341   0.00000  Uiso   1.00
O436   O     0.37596   0.51782   0.23245   0.00000  Uiso   1.00
O437   O     0.41360   0.57658   0.27306   0.00000  Uiso   1.00
O438   O     0.33365   0.56855   0.28873   0.00000  Uiso   1.00
O439   O     0.29142   0.63763   0.09096   0.00000  Uiso   1.00
O440   O     0.35491   0.65110   0.04718   0.00000  Uiso   1.00
O441   O     0.32853   0.56793   0.05035   0.00000  Uiso   1.00
O442   O     0.11848   0.98198   0.22358   0.00000  Uiso   1.00
O443   O     0.08171   0.92665   0.26965   0.00000  Uiso   1.00
O444   O     0.04581   0.79581   0.20487   0.00000  Uiso   1.00
O445   O     0.16052   0.94108   0.28528   0.00000  Uiso   1.00
O446   O     0.25259   0.86551   0.19978   0.00000  Uiso   1.00
O447   O     0.29253   0.79471   0.18810   0.00000  Uiso   1.00
O448   O     0.28921   0.82884   0.26773   0.00000  Uiso   1.00
O449   O     0.12711   0.51986   0.09559   0.00000  Uiso   1.00
O450   O     0.08040   0.57959   0.06779   0.00000  Uiso   1.00
O451   O     0.15686   0.57616   0.03735   0.00000  Uiso   1.00
O452   O     0.18239   0.62891   0.25970   0.00000  Uiso   1.00
O453   O     0.11169   0.62168   0.29058   0.00000  Uiso   1.00
O454   O     0.15605   0.54733   0.27934   0.00000  Uiso   1.00
O455   O     0.04581   0.79581   0.12846   0.00000  Uiso   1.00
O456   O     0.38263   0.98572   0.12111   0.00000  Uiso   1.00
O457   O     0.42778   0.93340   0.07738   0.00000  Uiso   1.00
O458   O     0.35175   0.94843   0.05065   0.00000  Uiso   1.00
O459   O     0.45420   0.70419   0.20487   0.00000  Uiso   1.00
O460   O     0.29581   0.95419   0.20487   0.00000  Uiso   1.00
S461   S     0.44061   0.60736   0.09125   0.00000  Uiso   1.00
S462   S     0.37290   0.56563   0.25080   0.00000  Uiso   1.00
S463   S     0.33362   0.61777   0.07756   0.00000  Uiso   1.00
S464   S     0.12296   0.93708   0.24689   0.00000  Uiso   1.00
S465   S     0.29135   0.83953   0.21281   0.00000  Uiso   1.00
S466   S     0.12473   0.56889   0.08146   0.00000  Uiso   1.00
S467   S     0.14413   0.59947   0.26009   0.00000  Uiso   1.00
S468   S     0.38354   0.94221   0.09428   0.00000  Uiso   1.00
S469   S     0.12290   0.81565   0.25081   0.00000  Uiso   1.00
S470   S     0.08362   0.86777   0.07756   0.00000  Uiso   1.00
S471   S     0.37296   0.68707   0.24690   0.00000  Uiso   1.00
S472   S     0.04135   0.58953   0.21281   0.00000  Uiso   1.00
S473   S     0.37473   0.81889   0.08146   0.00000  Uiso   1.00
S474   S     0.39413   0.84947   0.26009   0.00000  Uiso   1.00
S475   S     0.13355   0.69221   0.09428   0.00000  Uiso   1.00
S476   S     0.19061   0.85736   0.09125   0.00000  Uiso   1.00
Zn477  Zn    0.00000   0.75000   0.21771   0.00000  Uiso   1.00
Zn478  Zn    0.00000   0.75000   0.11563   0.00000  Uiso   1.00
Zn479  Zn    0.25000   0.50000   0.21771   0.00000  Uiso   1.00
Zn480  Zn    0.25000   0.50000   0.11563   0.00000  Uiso   1.00
C481   C     0.55879   0.68894   0.16612   0.00000  Uiso   1.00
C482   C     0.50593   0.71052   0.30925   0.00000  Uiso   1.00
C483   C     0.50751   0.71082   0.02299   0.00000  Uiso   1.00
C484   C     0.99607   0.78977   0.31010   0.00000  Uiso   1.00
C485   C     0.74475   0.53960   0.02391   0.00000  Uiso   1.00
C486   C     0.75593   0.96052   0.30926   0.00000  Uiso   1.00
C487   C     0.75751   0.96082   0.02299   0.00000  Uiso   1.00
C488   C     0.74607   0.53977   0.31010   0.00000  Uiso   1.00
C489   C     0.90122   0.62877   0.12861   0.00000  Uiso   1.00
C490   C     0.61336   0.85460   0.20711   0.00000  Uiso   1.00
C491   C     0.61235   0.85883   0.12651   0.00000  Uiso   1.00
C492   C     0.93859   0.80860   0.16709   0.00000  Uiso   1.00
C493   C     0.88636   0.64437   0.20674   0.00000  Uiso   1.00
C494   C     0.58778   0.61933   0.19847   0.00000  Uiso   1.00
C495   C     0.88879   0.85566   0.12585   0.00000  Uiso   1.00
C496   C     0.87544   0.84663   0.20524   0.00000  Uiso   1.00
C497   C     0.61694   0.64657   0.12852   0.00000  Uiso   1.00
C498   C     0.65121   0.87877   0.12861   0.00000  Uiso   1.00
C499   C     0.86336   0.60460   0.20711   0.00000  Uiso   1.00
C500   C     0.86235   0.60883   0.12651   0.00000  Uiso   1.00
C501   C     0.63635   0.89437   0.20674   0.00000  Uiso   1.00
C502   C     0.83778   0.86933   0.19847   0.00000  Uiso   1.00
C503   C     0.94088   0.68916   0.16685   0.00000  Uiso   1.00
C504   C     0.63880   0.60566   0.12585   0.00000  Uiso   1.00
C505   C     0.62544   0.59663   0.20524   0.00000  Uiso   1.00
C506   C     0.86694   0.89657   0.12852   0.00000  Uiso   1.00
C507   C     0.59517   0.84134   0.16652   0.00000  Uiso   1.00
C508   C     0.90976   0.65365   0.16756   0.00000  Uiso   1.00
C509   C     0.90099   0.83717   0.16688   0.00000  Uiso   1.00
C510   C     0.58811   0.65169   0.16436   0.00000  Uiso   1.00
C511   C     0.84517   0.59133   0.16652   0.00000  Uiso   1.00
C512   C     0.65976   0.90365   0.16756   0.00000  Uiso   1.00
C513   C     0.65099   0.58717   0.16688   0.00000  Uiso   1.00
C514   C     0.56030   0.80974   0.16651   0.00000  Uiso   1.00
C515   C     0.83811   0.90169   0.16436   0.00000  Uiso   1.00
C516   C     0.80879   0.93894   0.16612   0.00000  Uiso   1.00
C517   C     0.68859   0.55860   0.16709   0.00000  Uiso   1.00
C518   C     0.69088   0.93916   0.16685   0.00000  Uiso   1.00
C519   C     0.81030   0.55974   0.16651   0.00000  Uiso   1.00
C520   C     0.99475   0.78960   0.02391   0.00000  Uiso   1.00
H521   H     0.99587   0.82657   0.07633   0.00000  Uiso   1.00
H522   H     0.58668   0.84861   0.30339   0.00000  Uiso   1.00
H523   H     0.60766   0.80698   0.04411   0.00000  Uiso   1.00
H524   H     0.90990   0.66158   0.30096   0.00000  Uiso   1.00
H525   H     0.51284   0.56174   0.27241   0.00000  Uiso   1.00
H526   H     0.90690   0.85941   0.03219   0.00000  Uiso   1.00
H527   H     0.87972   0.78650   0.29364   0.00000  Uiso   1.00
H528   H     0.60322   0.66876   0.03476   0.00000  Uiso   1.00
H529   H     0.68260   0.91831   0.05210   0.00000  Uiso   1.00
H530   H     0.83670   0.59860   0.30339   0.00000  Uiso   1.00
H531   H     0.85766   0.55697   0.04412   0.00000  Uiso   1.00
H532   H     0.99860   0.67269   0.25837   0.00000  Uiso   1.00
H533   H     0.65985   0.91161   0.30100   0.00000  Uiso   1.00
H534   H     0.76290   0.81164   0.27239   0.00000  Uiso   1.00
H535   H     0.65690   0.60941   0.03219   0.00000  Uiso   1.00
H536   H     0.62973   0.53650   0.29365   0.00000  Uiso   1.00
H537   H     0.85322   0.91876   0.03476   0.00000  Uiso   1.00
H538   H     0.50791   0.67370   0.07411   0.00000  Uiso   1.00
H539   H     0.99986   0.82709   0.25788   0.00000  Uiso   1.00
H540   H     0.74587   0.57657   0.07633   0.00000  Uiso   1.00
H541   H     0.74860   0.92269   0.25837   0.00000  Uiso   1.00
H542   H     0.75791   0.92370   0.07411   0.00000  Uiso   1.00
H543   H     0.74986   0.57709   0.25788   0.00000  Uiso   1.00
H544   H     0.93260   0.66832   0.05210   0.00000  Uiso   1.00
N545   N     0.50000   0.75000   0.28573   0.00000  Uiso   1.00
N546   N     0.50000   0.75000   0.04760   0.00000  Uiso   1.00
N547   N     0.75000   0.50000   0.28573   0.00000  Uiso   1.00
N548   N     0.75000   0.50000   0.04760   0.00000  Uiso   1.00
O549   O     0.54581   0.70419   0.20487   0.00000  Uiso   1.00
O550   O     0.70420   0.54581   0.12846   0.00000  Uiso   1.00
O551   O     0.70420   0.54581   0.20487   0.00000  Uiso   1.00
O552   O     0.79581   0.95419   0.12846   0.00000  Uiso   1.00
O553   O     0.70420   0.95419   0.12846   0.00000  Uiso   1.00
O554   O     0.79581   0.54581   0.20487   0.00000  Uiso   1.00
O555   O     0.79581   0.54581   0.12846   0.00000  Uiso   1.00
O556   O     0.70420   0.95419   0.20487   0.00000  Uiso   1.00
O557   O     0.99017   0.83113   0.04479   0.00000  Uiso   1.00
O558   O     0.51028   0.66913   0.28814   0.00000  Uiso   1.00
O559   O     0.51707   0.67035   0.04299   0.00000  Uiso   1.00
O560   O     0.95420   0.79581   0.12846   0.00000  Uiso   1.00
O561   O     0.99544   0.83162   0.29004   0.00000  Uiso   1.00
O562   O     0.74017   0.58113   0.04479   0.00000  Uiso   1.00
O563   O     0.76028   0.91913   0.28814   0.00000  Uiso   1.00
O564   O     0.76707   0.92035   0.04299   0.00000  Uiso   1.00
O565   O     0.74544   0.58162   0.29004   0.00000  Uiso   1.00
O566   O     0.98320   0.60918   0.11189   0.00000  Uiso   1.00
O567   O     0.93152   0.55840   0.08048   0.00000  Uiso   1.00
O568   O     0.94001   0.63653   0.04341   0.00000  Uiso   1.00
O569   O     0.62596   0.76783   0.23246   0.00000  Uiso   1.00
O570   O     0.66359   0.82660   0.27307   0.00000  Uiso   1.00
O571   O     0.95420   0.79581   0.20487   0.00000  Uiso   1.00
O572   O     0.58364   0.81856   0.28873   0.00000  Uiso   1.00
O573   O     0.54142   0.88763   0.09096   0.00000  Uiso   1.00
O574   O     0.60491   0.90110   0.04719   0.00000  Uiso   1.00
O575   O     0.57854   0.81793   0.05035   0.00000  Uiso   1.00
O576   O     0.86847   0.73197   0.22359   0.00000  Uiso   1.00
O577   O     0.83171   0.67663   0.26966   0.00000  Uiso   1.00
O578   O     0.91053   0.69108   0.28528   0.00000  Uiso   1.00
O579   O     0.50259   0.61552   0.19978   0.00000  Uiso   1.00
O580   O     0.54253   0.54471   0.18810   0.00000  Uiso   1.00
O581   O     0.53921   0.57884   0.26772   0.00000  Uiso   1.00
O582   O     0.54581   0.70419   0.12846   0.00000  Uiso   1.00
O583   O     0.87711   0.76986   0.09559   0.00000  Uiso   1.00
O584   O     0.83040   0.82959   0.06779   0.00000  Uiso   1.00
O585   O     0.90686   0.82616   0.03735   0.00000  Uiso   1.00
O586   O     0.93239   0.87891   0.25970   0.00000  Uiso   1.00
O587   O     0.86169   0.87168   0.29058   0.00000  Uiso   1.00
O588   O     0.90605   0.79733   0.27933   0.00000  Uiso   1.00
O589   O     0.63263   0.73572   0.12111   0.00000  Uiso   1.00
O590   O     0.67778   0.68341   0.07738   0.00000  Uiso   1.00
O591   O     0.60175   0.69844   0.05065   0.00000  Uiso   1.00
O592   O     0.73320   0.85918   0.11189   0.00000  Uiso   1.00
O593   O     0.95420   0.70419   0.12846   0.00000  Uiso   1.00
O594   O     0.68152   0.80839   0.08048   0.00000  Uiso   1.00
O595   O     0.69001   0.88652   0.04341   0.00000  Uiso   1.00
O596   O     0.87596   0.51782   0.23245   0.00000  Uiso   1.00
O597   O     0.91360   0.57658   0.27306   0.00000  Uiso   1.00
O598   O     0.83365   0.56855   0.28873   0.00000  Uiso   1.00
O599   O     0.79142   0.63763   0.09096   0.00000  Uiso   1.00
O600   O     0.85491   0.65110   0.04718   0.00000  Uiso   1.00
O601   O     0.82853   0.56793   0.05035   0.00000  Uiso   1.00
O602   O     0.61848   0.98198   0.22358   0.00000  Uiso   1.00
O603   O     0.58171   0.92665   0.26965   0.00000  Uiso   1.00
O604   O     0.54581   0.79581   0.20487   0.00000  Uiso   1.00
O605   O     0.66052   0.94108   0.28528   0.00000  Uiso   1.00
O606   O     0.75259   0.86551   0.19978   0.00000  Uiso   1.00
O607   O     0.79253   0.79471   0.18810   0.00000  Uiso   1.00
O608   O     0.78921   0.82884   0.26773   0.00000  Uiso   1.00
O609   O     0.62711   0.51986   0.09559   0.00000  Uiso   1.00
O610   O     0.58040   0.57959   0.06779   0.00000  Uiso   1.00
O611   O     0.65686   0.57616   0.03735   0.00000  Uiso   1.00
O612   O     0.68239   0.62891   0.25970   0.00000  Uiso   1.00
O613   O     0.61169   0.62168   0.29058   0.00000  Uiso   1.00
O614   O     0.65605   0.54733   0.27934   0.00000  Uiso   1.00
O615   O     0.54581   0.79581   0.12846   0.00000  Uiso   1.00
O616   O     0.88263   0.98572   0.12111   0.00000  Uiso   1.00
O617   O     0.92778   0.93340   0.07738   0.00000  Uiso   1.00
O618   O     0.85175   0.94843   0.05065   0.00000  Uiso   1.00
O619   O     0.95420   0.70419   0.20487   0.00000  Uiso   1.00
O620   O     0.79581   0.95419   0.20487   0.00000  Uiso   1.00
S621   S     0.94061   0.60736   0.09125   0.00000  Uiso   1.00
S622   S     0.87290   0.56563   0.25080   0.00000  Uiso   1.00
S623   S     0.83362   0.61777   0.07756   0.00000  Uiso   1.00
S624   S     0.62296   0.93708   0.24689   0.00000  Uiso   1.00
S625   S     0.79135   0.83953   0.21281   0.00000  Uiso   1.00
S626   S     0.62473   0.56889   0.08146   0.00000  Uiso   1.00
S627   S     0.64413   0.59947   0.26009   0.00000  Uiso   1.00
S628   S     0.88354   0.94221   0.09428   0.00000  Uiso   1.00
S629   S     0.62290   0.81565   0.25081   0.00000  Uiso   1.00
S630   S     0.58362   0.86777   0.07756   0.00000  Uiso   1.00
S631   S     0.87296   0.68707   0.24690   0.00000  Uiso   1.00
S632   S     0.54135   0.58953   0.21281   0.00000  Uiso   1.00
S633   S     0.87473   0.81889   0.08146   0.00000  Uiso   1.00
S634   S     0.89413   0.84947   0.26009   0.00000  Uiso   1.00
S635   S     0.63355   0.69221   0.09428   0.00000  Uiso   1.00
S636   S     0.69061   0.85736   0.09125   0.00000  Uiso   1.00
Zn637  Zn    0.50000   0.75000   0.21771   0.00000  Uiso   1.00
Zn638  Zn    0.50000   0.75000   0.11563   0.00000  Uiso   1.00
Zn639  Zn    0.75000   0.50000   0.21771   0.00000  Uiso   1.00
Zn640  Zn    0.75000   0.50000   0.11563   0.00000  Uiso   1.00
C641   C     0.05879   0.18894   0.49946   0.00000  Uiso   1.00
C642   C     0.00593   0.21052   0.64259   0.00000  Uiso   1.00
C643   C     0.00751   0.21082   0.35633   0.00000  Uiso   1.00
C644   C     0.49607   0.28977   0.64344   0.00000  Uiso   1.00
C645   C     0.24475   0.03960   0.35724   0.00000  Uiso   1.00
C646   C     0.25593   0.46052   0.64259   0.00000  Uiso   1.00
C647   C     0.25751   0.46082   0.35633   0.00000  Uiso   1.00
C648   C     0.24607   0.03977   0.64344   0.00000  Uiso   1.00
C649   C     0.40122   0.12877   0.46194   0.00000  Uiso   1.00
C650   C     0.11336   0.35460   0.54044   0.00000  Uiso   1.00
C651   C     0.11235   0.35883   0.45985   0.00000  Uiso   1.00
C652   C     0.43859   0.30860   0.50043   0.00000  Uiso   1.00
C653   C     0.38636   0.14437   0.54007   0.00000  Uiso   1.00
C654   C     0.08778   0.11933   0.53180   0.00000  Uiso   1.00
C655   C     0.38879   0.35566   0.45919   0.00000  Uiso   1.00
C656   C     0.37544   0.34663   0.53857   0.00000  Uiso   1.00
C657   C     0.11694   0.14657   0.46185   0.00000  Uiso   1.00
C658   C     0.15121   0.37877   0.46195   0.00000  Uiso   1.00
C659   C     0.36336   0.10460   0.54044   0.00000  Uiso   1.00
C660   C     0.36235   0.10883   0.45985   0.00000  Uiso   1.00
C661   C     0.13635   0.39437   0.54007   0.00000  Uiso   1.00
C662   C     0.33778   0.36933   0.53180   0.00000  Uiso   1.00
C663   C     0.44088   0.18916   0.50019   0.00000  Uiso   1.00
C664   C     0.13880   0.10566   0.45919   0.00000  Uiso   1.00
C665   C     0.12544   0.09663   0.53857   0.00000  Uiso   1.00
C666   C     0.36694   0.39657   0.46185   0.00000  Uiso   1.00
C667   C     0.09517   0.34134   0.49985   0.00000  Uiso   1.00
C668   C     0.40976   0.15365   0.50089   0.00000  Uiso   1.00
C669   C     0.40099   0.33717   0.50021   0.00000  Uiso   1.00
C670   C     0.08811   0.15169   0.49769   0.00000  Uiso   1.00
C671   C     0.34517   0.09133   0.49985   0.00000  Uiso   1.00
C672   C     0.15976   0.40365   0.50089   0.00000  Uiso   1.00
C673   C     0.15099   0.08717   0.50021   0.00000  Uiso   1.00
C674   C     0.06030   0.30974   0.49984   0.00000  Uiso   1.00
C675   C     0.33811   0.40169   0.49769   0.00000  Uiso   1.00
C676   C     0.30879   0.43894   0.49946   0.00000  Uiso   1.00
C677   C     0.18859   0.05860   0.50043   0.00000  Uiso   1.00
C678   C     0.19088   0.43916   0.50019   0.00000  Uiso   1.00
C679   C     0.31030   0.05974   0.49984   0.00000  Uiso   1.00
C680   C     0.49475   0.28960   0.35724   0.00000  Uiso   1.00
H681   H     0.49587   0.32657   0.40966   0.00000  Uiso   1.00
H682   H     0.08668   0.34861   0.63672   0.00000  Uiso   1.00
H683   H     0.10766   0.30698   0.37744   0.00000  Uiso   1.00
H684   H     0.40990   0.16158   0.63429   0.00000  Uiso   1.00
H685   H     0.01284   0.06174   0.60574   0.00000  Uiso   1.00
H686   H     0.40690   0.35941   0.36552   0.00000  Uiso   1.00
H687   H     0.37972   0.28650   0.62698   0.00000  Uiso   1.00
H688   H     0.10322   0.16876   0.36809   0.00000  Uiso   1.00
H689   H     0.18260   0.41831   0.38543   0.00000  Uiso   1.00
H690   H     0.33670   0.09860   0.63672   0.00000  Uiso   1.00
H691   H     0.35766   0.05697   0.37745   0.00000  Uiso   1.00
H692   H     0.49860   0.17269   0.59171   0.00000  Uiso   1.00
H693   H     0.15985   0.41161   0.63433   0.00000  Uiso   1.00
H694   H     0.26290   0.31164   0.60573   0.00000  Uiso   1.00
H695   H     0.15690   0.10941   0.36552   0.00000  Uiso   1.00
H696   H     0.12973   0.03650   0.62698   0.00000  Uiso   1.00
H697   H     0.35322   0.41876   0.36809   0.00000  Uiso   1.00
H698   H     0.00791   0.17370   0.40744   0.00000  Uiso   1.00
H699   H     0.49986   0.32709   0.59122   0.00000  Uiso   1.00
H700   H     0.24587   0.07657   0.40966   0.00000  Uiso   1.00
H701   H     0.24860   0.42269   0.59171   0.00000  Uiso   1.00
H702   H     0.25791   0.42370   0.40744   0.00000  Uiso   1.00
H703   H     0.24986   0.07709   0.59122   0.00000  Uiso   1.00
H704   H     0.43260   0.16832   0.38544   0.00000  Uiso   1.00
N705   N     0.00000   0.25000   0.61907   0.00000  Uiso   1.00
N706   N     0.00000   0.25000   0.38093   0.00000  Uiso   1.00
N707   N     0.25000   0.00000   0.61907   0.00000  Uiso   1.00
N708   N     0.25000   0.00000   0.38093   0.00000  Uiso   1.00
O709   O     0.04581   0.20419   0.53821   0.00000  Uiso   1.00
O710   O     0.20420   0.04581   0.46179   0.00000  Uiso   1.00
O711   O     0.20420   0.04581   0.53821   0.00000  Uiso   1.00
O712   O     0.29581   0.45419   0.46179   0.00000  Uiso   1.00
O713   O     0.20420   0.45419   0.46179   0.00000  Uiso   1.00
O714   O     0.29581   0.04581   0.53821   0.00000  Uiso   1.00
O715   O     0.29581   0.04581   0.46179   0.00000  Uiso   1.00
O716   O     0.20420   0.45419   0.53821   0.00000  Uiso   1.00
O717   O     0.49017   0.33113   0.37812   0.00000  Uiso   1.00
O718   O     0.01028   0.16913   0.62147   0.00000  Uiso   1.00
O719   O     0.01707   0.17035   0.37633   0.00000  Uiso   1.00
O720   O     0.45420   0.29581   0.46179   0.00000  Uiso   1.00
O721   O     0.49544   0.33162   0.62337   0.00000  Uiso   1.00
O722   O     0.24017   0.08113   0.37812   0.00000  Uiso   1.00
O723   O     0.26028   0.41913   0.62147   0.00000  Uiso   1.00
O724   O     0.26707   0.42035   0.37633   0.00000  Uiso   1.00
O725   O     0.24544   0.08162   0.62337   0.00000  Uiso   1.00
O726   O     0.48320   0.10918   0.44522   0.00000  Uiso   1.00
O727   O     0.43152   0.05840   0.41381   0.00000  Uiso   1.00
O728   O     0.44001   0.13653   0.37674   0.00000  Uiso   1.00
O729   O     0.12596   0.26783   0.56580   0.00000  Uiso   1.00
O730   O     0.16359   0.32660   0.60640   0.00000  Uiso   1.00
O731   O     0.45420   0.29581   0.53821   0.00000  Uiso   1.00
O732   O     0.08364   0.31856   0.62206   0.00000  Uiso   1.00
O733   O     0.04142   0.38763   0.42429   0.00000  Uiso   1.00
O734   O     0.10491   0.40110   0.38052   0.00000  Uiso   1.00
O735   O     0.07854   0.31793   0.38368   0.00000  Uiso   1.00
O736   O     0.36847   0.23197   0.55692   0.00000  Uiso   1.00
O737   O     0.33171   0.17663   0.60299   0.00000  Uiso   1.00
O738   O     0.41053   0.19108   0.61861   0.00000  Uiso   1.00
O739   O     0.00259   0.11552   0.53311   0.00000  Uiso   1.00
O740   O     0.04253   0.04471   0.52143   0.00000  Uiso   1.00
O741   O     0.03921   0.07884   0.60106   0.00000  Uiso   1.00
O742   O     0.04581   0.20419   0.46179   0.00000  Uiso   1.00
O743   O     0.37711   0.26986   0.42892   0.00000  Uiso   1.00
O744   O     0.33040   0.32959   0.40113   0.00000  Uiso   1.00
O745   O     0.40686   0.32616   0.37069   0.00000  Uiso   1.00
O746   O     0.43239   0.37891   0.59303   0.00000  Uiso   1.00
O747   O     0.36169   0.37168   0.62391   0.00000  Uiso   1.00
O748   O     0.40605   0.29733   0.61267   0.00000  Uiso   1.00
O749   O     0.13263   0.23572   0.45444   0.00000  Uiso   1.00
O750   O     0.17778   0.18341   0.41071   0.00000  Uiso   1.00
O751   O     0.10175   0.19844   0.38399   0.00000  Uiso   1.00
O752   O     0.23320   0.35918   0.44523   0.00000  Uiso   1.00
O753   O     0.45420   0.20419   0.46179   0.00000  Uiso   1.00
O754   O     0.18152   0.30839   0.41382   0.00000  Uiso   1.00
O755   O     0.19001   0.38652   0.37674   0.00000  Uiso   1.00
O756   O     0.37596   0.01782   0.56578   0.00000  Uiso   1.00
O757   O     0.41360   0.07658   0.60639   0.00000  Uiso   1.00
O758   O     0.33365   0.06855   0.62206   0.00000  Uiso   1.00
O759   O     0.29142   0.13763   0.42429   0.00000  Uiso   1.00
O760   O     0.35491   0.15110   0.38052   0.00000  Uiso   1.00
O761   O     0.32853   0.06793   0.38368   0.00000  Uiso   1.00
O762   O     0.11848   0.48198   0.55691   0.00000  Uiso   1.00
O763   O     0.08171   0.42665   0.60298   0.00000  Uiso   1.00
O764   O     0.04581   0.29581   0.53821   0.00000  Uiso   1.00
O765   O     0.16052   0.44108   0.61861   0.00000  Uiso   1.00
O766   O     0.25259   0.36551   0.53311   0.00000  Uiso   1.00
O767   O     0.29253   0.29471   0.52143   0.00000  Uiso   1.00
O768   O     0.28921   0.32884   0.60106   0.00000  Uiso   1.00
O769   O     0.12711   0.01986   0.42892   0.00000  Uiso   1.00
O770   O     0.08040   0.07959   0.40113   0.00000  Uiso   1.00
O771   O     0.15686   0.07616   0.37069   0.00000  Uiso   1.00
O772   O     0.18239   0.12891   0.59303   0.00000  Uiso   1.00
O773   O     0.11169   0.12168   0.62391   0.00000  Uiso   1.00
O774   O     0.15605   0.04733   0.61267   0.00000  Uiso   1.00
O775   O     0.04581   0.29581   0.46179   0.00000  Uiso   1.00
O776   O     0.38263   0.48572   0.45444   0.00000  Uiso   1.00
O777   O     0.42778   0.43340   0.41071   0.00000  Uiso   1.00
O778   O     0.35175   0.44843   0.38398   0.00000  Uiso   1.00
O779   O     0.45420   0.20419   0.53821   0.00000  Uiso   1.00
O780   O     0.29581   0.45419   0.53821   0.00000  Uiso   1.00
S781   S     0.44061   0.10736   0.42458   0.00000  Uiso   1.00
S782   S     0.37290   0.06563   0.58413   0.00000  Uiso   1.00
S783   S     0.33362   0.11777   0.41089   0.00000  Uiso   1.00
S784   S     0.12296   0.43708   0.58022   0.00000  Uiso   1.00
S785   S     0.29135   0.33953   0.54614   0.00000  Uiso   1.00
S786   S     0.12473   0.06889   0.41479   0.00000  Uiso   1.00
S787   S     0.14413   0.09947   0.59342   0.00000  Uiso   1.00
S788   S     0.38354   0.44221   0.42761   0.00000  Uiso   1.00
S789   S     0.12290   0.31565   0.58414   0.00000  Uiso   1.00
S790   S     0.08362   0.36777   0.41089   0.00000  Uiso   1.00
S791   S     0.37296   0.18707   0.58023   0.00000  Uiso   1.00
S792   S     0.04135   0.08953   0.54614   0.00000  Uiso   1.00
S793   S     0.37473   0.31889   0.41479   0.00000  Uiso   1.00
S794   S     0.39413   0.34947   0.59342   0.00000  Uiso   1.00
S795   S     0.13355   0.19221   0.42762   0.00000  Uiso   1.00
S796   S     0.19061   0.35736   0.42459   0.00000  Uiso   1.00
Zn797  Zn    0.00000   0.25000   0.55104   0.00000  Uiso   1.00
Zn798  Zn    0.00000   0.25000   0.44896   0.00000  Uiso   1.00
Zn799  Zn    0.25000   0.00000   0.55104   0.00000  Uiso   1.00
Zn800  Zn    0.25000   0.00000   0.44896   0.00000  Uiso   1.00
C801   C     0.55879   0.18894   0.49946   0.00000  Uiso   1.00
C802   C     0.50593   0.21052   0.64259   0.00000  Uiso   1.00
C803   C     0.50751   0.21082   0.35633   0.00000  Uiso   1.00
C804   C     0.99607   0.28977   0.64344   0.00000  Uiso   1.00
C805   C     0.74475   0.03960   0.35724   0.00000  Uiso   1.00
C806   C     0.75593   0.46052   0.64259   0.00000  Uiso   1.00
C807   C     0.75751   0.46082   0.35633   0.00000  Uiso   1.00
C808   C     0.74607   0.03977   0.64344   0.00000  Uiso   1.00
C809   C     0.90122   0.12877   0.46194   0.00000  Uiso   1.00
C810   C     0.61336   0.35460   0.54044   0.00000  Uiso   1.00
C811   C     0.61235   0.35883   0.45985   0.00000  Uiso   1.00
C812   C     0.93859   0.30860   0.50043   0.00000  Uiso   1.00
C813   C     0.88636   0.14437   0.54007   0.00000  Uiso   1.00
C814   C     0.58778   0.11933   0.53180   0.00000  Uiso   1.00
C815   C     0.88879   0.35566   0.45919   0.00000  Uiso   1.00
C816   C     0.87544   0.34663   0.53857   0.00000  Uiso   1.00
C817   C     0.61694   0.14657   0.46185   0.00000  Uiso   1.00
C818   C     0.65121   0.37877   0.46195   0.00000  Uiso   1.00
C819   C     0.86336   0.10460   0.54044   0.00000  Uiso   1.00
C820   C     0.86235   0.10883   0.45985   0.00000  Uiso   1.00
C821   C     0.63635   0.39437   0.54007   0.00000  Uiso   1.00
C822   C     0.83778   0.36933   0.53180   0.00000  Uiso   1.00
C823   C     0.94088   0.18916   0.50019   0.00000  Uiso   1.00
C824   C     0.63880   0.10566   0.45919   0.00000  Uiso   1.00
C825   C     0.62544   0.09663   0.53857   0.00000  Uiso   1.00
C826   C     0.86694   0.39657   0.46185   0.00000  Uiso   1.00
C827   C     0.59517   0.34134   0.49985   0.00000  Uiso   1.00
C828   C     0.90976   0.15365   0.50089   0.00000  Uiso   1.00
C829   C     0.90099   0.33717   0.50021   0.00000  Uiso   1.00
C830   C     0.58811   0.15169   0.49769   0.00000  Uiso   1.00
C831   C     0.84517   0.09133   0.49985   0.00000  Uiso   1.00
C832   C     0.65976   0.40365   0.50089   0.00000  Uiso   1.00
C833   C     0.65099   0.08717   0.50021   0.00000  Uiso   1.00
C834   C     0.56030   0.30974   0.49984   0.00000  Uiso   1.00
C835   C     0.83811   0.40169   0.49769   0.00000  Uiso   1.00
C836   C     0.80879   0.43894   0.49946   0.00000  Uiso   1.00
C837   C     0.68859   0.05860   0.50043   0.00000  Uiso   1.00
C838   C     0.69088   0.43916   0.50019   0.00000  Uiso   1.00
C839   C     0.81030   0.05974   0.49984   0.00000  Uiso   1.00
C840   C     0.99475   0.28960   0.35724   0.00000  Uiso   1.00
H841   H     0.99587   0.32657   0.40966   0.00000  Uiso   1.00
H842   H     0.58668   0.34861   0.63672   0.00000  Uiso   1.00
H843   H     0.60766   0.30698   0.37744   0.00000  Uiso   1.00
H844   H     0.90990   0.16158   0.63429   0.00000  Uiso   1.00
H845   H     0.51284   0.06174   0.60574   0.00000  Uiso   1.00
H846   H     0.90690   0.35941   0.36552   0.00000  Uiso   1.00
H847   H     0.87972   0.28650   0.62698   0.00000  Uiso   1.00
H848   H     0.60322   0.16876   0.36809   0.00000  Uiso   1.00
H849   H     0.68260   0.41831   0.38543   0.00000  Uiso   1.00
H850   H     0.83670   0.09860   0.63672   0.00000  Uiso   1.00
H851   H     0.85766   0.05697   0.37745   0.00000  Uiso   1.00
H852   H     0.99860   0.17269   0.59171   0.00000  Uiso   1.00
H853   H     0.65985   0.41161   0.63433   0.00000  Uiso   1.00
H854   H     0.76290   0.31164   0.60573   0.00000  Uiso   1.00
H855   H     0.65690   0.10941   0.36552   0.00000  Uiso   1.00
H856   H     0.62973   0.03650   0.62698   0.00000  Uiso   1.00
H857   H     0.85322   0.41876   0.36809   0.00000  Uiso   1.00
H858   H     0.50791   0.17370   0.40744   0.00000  Uiso   1.00
H859   H     0.99986   0.32709   0.59122   0.00000  Uiso   1.00
H860   H     0.74587   0.07657   0.40966   0.00000  Uiso   1.00
H861   H     0.74860   0.42269   0.59171   0.00000  Uiso   1.00
H862   H     0.75791   0.42370   0.40744   0.00000  Uiso   1.00
H863   H     0.74986   0.07709   0.59122   0.00000  Uiso   1.00
H864   H     0.93260   0.16832   0.38544   0.00000  Uiso   1.00
N865   N     0.50000   0.25000   0.61907   0.00000  Uiso   1.00
N866   N     0.50000   0.25000   0.38093   0.00000  Uiso   1.00
N867   N     0.75000   0.00000   0.61907   0.00000  Uiso   1.00
N868   N     0.75000   0.00000   0.38093   0.00000  Uiso   1.00
O869   O     0.54581   0.20419   0.53821   0.00000  Uiso   1.00
O870   O     0.70420   0.04581   0.46179   0.00000  Uiso   1.00
O871   O     0.70420   0.04581   0.53821   0.00000  Uiso   1.00
O872   O     0.79581   0.45419   0.46179   0.00000  Uiso   1.00
O873   O     0.70420   0.45419   0.46179   0.00000  Uiso   1.00
O874   O     0.79581   0.04581   0.53821   0.00000  Uiso   1.00
O875   O     0.79581   0.04581   0.46179   0.00000  Uiso   1.00
O876   O     0.70420   0.45419   0.53821   0.00000  Uiso   1.00
O877   O     0.99017   0.33113   0.37812   0.00000  Uiso   1.00
O878   O     0.51028   0.16913   0.62147   0.00000  Uiso   1.00
O879   O     0.51707   0.17035   0.37633   0.00000  Uiso   1.00
O880   O     0.95420   0.29581   0.46179   0.00000  Uiso   1.00
O881   O     0.99544   0.33162   0.62337   0.00000  Uiso   1.00
O882   O     0.74017   0.08113   0.37812   0.00000  Uiso   1.00
O883   O     0.76028   0.41913   0.62147   0.00000  Uiso   1.00
O884   O     0.76707   0.42035   0.37633   0.00000  Uiso   1.00
O885   O     0.74544   0.08162   0.62337   0.00000  Uiso   1.00
O886   O     0.98320   0.10918   0.44522   0.00000  Uiso   1.00
O887   O     0.93152   0.05840   0.41381   0.00000  Uiso   1.00
O888   O     0.94001   0.13653   0.37674   0.00000  Uiso   1.00
O889   O     0.62596   0.26783   0.56580   0.00000  Uiso   1.00
O890   O     0.66359   0.32660   0.60640   0.00000  Uiso   1.00
O891   O     0.95420   0.29581   0.53821   0.00000  Uiso   1.00
O892   O     0.58364   0.31856   0.62206   0.00000  Uiso   1.00
O893   O     0.54142   0.38763   0.42429   0.00000  Uiso   1.00
O894   O     0.60491   0.40110   0.38052   0.00000  Uiso   1.00
O895   O     0.57854   0.31793   0.38368   0.00000  Uiso   1.00
O896   O     0.86847   0.23197   0.55692   0.00000  Uiso   1.00
O897   O     0.83171   0.17663   0.60299   0.00000  Uiso   1.00
O898   O     0.91053   0.19108   0.61861   0.00000  Uiso   1.00
O899   O     0.50259   0.11552   0.53311   0.00000  Uiso   1.00
O900   O     0.54253   0.04471   0.52143   0.00000  Uiso   1.00
O901   O     0.53921   0.07884   0.60106   0.00000  Uiso   1.00
O902   O     0.54581   0.20419   0.46179   0.00000  Uiso   1.00
O903   O     0.87711   0.26986   0.42892   0.00000  Uiso   1.00
O904   O     0.83040   0.32959   0.40113   0.00000  Uiso   1.00
O905   O     0.90686   0.32616   0.37069   0.00000  Uiso   1.00
O906   O     0.93239   0.37891   0.59303   0.00000  Uiso   1.00
O907   O     0.86169   0.37168   0.62391   0.00000  Uiso   1.00
O908   O     0.90605   0.29733   0.61267   0.00000  Uiso   1.00
O909   O     0.63263   0.23572   0.45444   0.00000  Uiso   1.00
O910   O     0.67778   0.18341   0.41071   0.00000  Uiso   1.00
O911   O     0.60175   0.19844   0.38399   0.00000  Uiso   1.00
O912   O     0.73320   0.35918   0.44523   0.00000  Uiso   1.00
O913   O     0.95420   0.20419   0.46179   0.00000  Uiso   1.00
O914   O     0.68152   0.30839   0.41382   0.00000  Uiso   1.00
O915   O     0.69001   0.38652   0.37674   0.00000  Uiso   1.00
O916   O     0.87596   0.01782   0.56578   0.00000  Uiso   1.00
O917   O     0.91360   0.07658   0.60639   0.00000  Uiso   1.00
O918   O     0.83365   0.06855   0.62206   0.00000  Uiso   1.00
O919   O     0.79142   0.13763   0.42429   0.00000  Uiso   1.00
O920   O     0.85491   0.15110   0.38052   0.00000  Uiso   1.00
O921   O     0.82853   0.06793   0.38368   0.00000  Uiso   1.00
O922   O     0.61848   0.48198   0.55691   0.00000  Uiso   1.00
O923   O     0.58171   0.42665   0.60298   0.00000  Uiso   1.00
O924   O     0.54581   0.29581   0.53821   0.00000  Uiso   1.00
O925   O     0.66052   0.44108   0.61861   0.00000  Uiso   1.00
O926   O     0.75259   0.36551   0.53311   0.00000  Uiso   1.00
O927   O     0.79253   0.29471   0.52143   0.00000  Uiso   1.00
O928   O     0.78921   0.32884   0.60106   0.00000  Uiso   1.00
O929   O     0.62711   0.01986   0.42892   0.00000  Uiso   1.00
O930   O     0.58040   0.07959   0.40113   0.00000  Uiso   1.00
O931   O     0.65686   0.07616   0.37069   0.00000  Uiso   1.00
O932   O     0.68239   0.12891   0.59303   0.00000  Uiso   1.00
O933   O     0.61169   0.12168   0.62391   0.00000  Uiso   1.00
O934   O     0.65605   0.04733   0.61267   0.00000  Uiso   1.00
O935   O     0.54581   0.29581   0.46179   0.00000  Uiso   1.00
O936   O     0.88263   0.48572   0.45444   0.00000  Uiso   1.00
O937   O     0.92778   0.43340   0.41071   0.00000  Uiso   1.00
O938   O     0.85175   0.44843   0.38398   0.00000  Uiso   1.00
O939   O     0.95420   0.20419   0.53821   0.00000  Uiso   1.00
O940   O     0.79581   0.45419   0.53821   0.00000  Uiso   1.00
S941   S     0.94061   0.10736   0.42458   0.00000  Uiso   1.00
S942   S     0.87290   0.06563   0.58413   0.00000  Uiso   1.00
S943   S     0.83362   0.11777   0.41089   0.00000  Uiso   1.00
S944   S     0.62296   0.43708   0.58022   0.00000  Uiso   1.00
S945   S     0.79135   0.33953   0.54614   0.00000  Uiso   1.00
S946   S     0.62473   0.06889   0.41479   0.00000  Uiso   1.00
S947   S     0.64413   0.09947   0.59342   0.00000  Uiso   1.00
S948   S     0.88354   0.44221   0.42761   0.00000  Uiso   1.00
S949   S     0.62290   0.31565   0.58414   0.00000  Uiso   1.00
S950   S     0.58362   0.36777   0.41089   0.00000  Uiso   1.00
S951   S     0.87296   0.18707   0.58023   0.00000  Uiso   1.00
S952   S     0.54135   0.08953   0.54614   0.00000  Uiso   1.00
S953   S     0.87473   0.31889   0.41479   0.00000  Uiso   1.00
S954   S     0.89413   0.34947   0.59342   0.00000  Uiso   1.00
S955   S     0.63355   0.19221   0.42762   0.00000  Uiso   1.00
S956   S     0.69061   0.35736   0.42459   0.00000  Uiso   1.00
Zn957  Zn    0.50000   0.25000   0.55104   0.00000  Uiso   1.00
Zn958  Zn    0.50000   0.25000   0.44896   0.00000  Uiso   1.00
Zn959  Zn    0.75000   0.00000   0.55104   0.00000  Uiso   1.00
Zn960  Zn    0.75000   0.00000   0.44896   0.00000  Uiso   1.00
C961   C     0.05879   0.68894   0.49946   0.00000  Uiso   1.00
C962   C     0.00593   0.71052   0.64259   0.00000  Uiso   1.00
C963   C     0.00751   0.71082   0.35633   0.00000  Uiso   1.00
C964   C     0.49607   0.78977   0.64344   0.00000  Uiso   1.00
C965   C     0.24475   0.53960   0.35724   0.00000  Uiso   1.00
C966   C     0.25593   0.96052   0.64259   0.00000  Uiso   1.00
C967   C     0.25751   0.96082   0.35633   0.00000  Uiso   1.00
C968   C     0.24607   0.53977   0.64344   0.00000  Uiso   1.00
C969   C     0.40122   0.62877   0.46194   0.00000  Uiso   1.00
C970   C     0.11336   0.85460   0.54044   0.00000  Uiso   1.00
C971   C     0.11235   0.85883   0.45985   0.00000  Uiso   1.00
C972   C     0.43859   0.80860   0.50043   0.00000  Uiso   1.00
C973   C     0.38636   0.64437   0.54007   0.00000  Uiso   1.00
C974   C     0.08778   0.61933   0.53180   0.00000  Uiso   1.00
C975   C     0.38879   0.85566   0.45919   0.00000  Uiso   1.00
C976   C     0.37544   0.84663   0.53857   0.00000  Uiso   1.00
C977   C     0.11694   0.64657   0.46185   0.00000  Uiso   1.00
C978   C     0.15121   0.87877   0.46195   0.00000  Uiso   1.00
C979   C     0.36336   0.60460   0.54044   0.00000  Uiso   1.00
C980   C     0.36235   0.60883   0.45985   0.00000  Uiso   1.00
C981   C     0.13635   0.89437   0.54007   0.00000  Uiso   1.00
C982   C     0.33778   0.86933   0.53180   0.00000  Uiso   1.00
C983   C     0.44088   0.68916   0.50019   0.00000  Uiso   1.00
C984   C     0.13880   0.60566   0.45919   0.00000  Uiso   1.00
C985   C     0.12544   0.59663   0.53857   0.00000  Uiso   1.00
C986   C     0.36694   0.89657   0.46185   0.00000  Uiso   1.00
C987   C     0.09517   0.84134   0.49985   0.00000  Uiso   1.00
C988   C     0.40976   0.65365   0.50089   0.00000  Uiso   1.00
C989   C     0.40099   0.83717   0.50021   0.00000  Uiso   1.00
C990   C     0.08811   0.65169   0.49769   0.00000  Uiso   1.00
C991   C     0.34517   0.59133   0.49985   0.00000  Uiso   1.00
C992   C     0.15976   0.90365   0.50089   0.00000  Uiso   1.00
C993   C     0.15099   0.58717   0.50021   0.00000  Uiso   1.00
C994   C     0.06030   0.80974   0.49984   0.00000  Uiso   1.00
C995   C     0.33811   0.90169   0.49769   0.00000  Uiso   1.00
C996   C     0.30879   0.93894   0.49946   0.00000  Uiso   1.00
C997   C     0.18859   0.55860   0.50043   0.00000  Uiso   1.00
C998   C     0.19088   0.93916   0.50019   0.00000  Uiso   1.00
C999   C     0.31030   0.55974   0.49984   0.00000  Uiso   1.00
C1000  C     0.49475   0.78960   0.35724   0.00000  Uiso   1.00
H1001  H     0.49587   0.82657   0.40966   0.00000  Uiso   1.00
H1002  H     0.08668   0.84861   0.63672   0.00000  Uiso   1.00
H1003  H     0.10766   0.80698   0.37744   0.00000  Uiso   1.00
H1004  H     0.40990   0.66158   0.63429   0.00000  Uiso   1.00
H1005  H     0.01284   0.56174   0.60574   0.00000  Uiso   1.00
H1006  H     0.40690   0.85941   0.36552   0.00000  Uiso   1.00
H1007  H     0.37972   0.78650   0.62698   0.00000  Uiso   1.00
H1008  H     0.10322   0.66876   0.36809   0.00000  Uiso   1.00
H1009  H     0.18260   0.91831   0.38543   0.00000  Uiso   1.00
H1010  H     0.33670   0.59860   0.63672   0.00000  Uiso   1.00
H1011  H     0.35766   0.55697   0.37745   0.00000  Uiso   1.00
H1012  H     0.49860   0.67269   0.59171   0.00000  Uiso   1.00
H1013  H     0.15985   0.91161   0.63433   0.00000  Uiso   1.00
H1014  H     0.26290   0.81164   0.60573   0.00000  Uiso   1.00
H1015  H     0.15690   0.60941   0.36552   0.00000  Uiso   1.00
H1016  H     0.12973   0.53650   0.62698   0.00000  Uiso   1.00
H1017  H     0.35322   0.91876   0.36809   0.00000  Uiso   1.00
H1018  H     0.00791   0.67370   0.40744   0.00000  Uiso   1.00
H1019  H     0.49986   0.82709   0.59122   0.00000  Uiso   1.00
H1020  H     0.24587   0.57657   0.40966   0.00000  Uiso   1.00
H1021  H     0.24860   0.92269   0.59171   0.00000  Uiso   1.00
H1022  H     0.25791   0.92370   0.40744   0.00000  Uiso   1.00
H1023  H     0.24986   0.57709   0.59122   0.00000  Uiso   1.00
H1024  H     0.43260   0.66832   0.38544   0.00000  Uiso   1.00
N1025  N     0.00000   0.75000   0.61907   0.00000  Uiso   1.00
N1026  N     0.00000   0.75000   0.38093   0.00000  Uiso   1.00
N1027  N     0.25000   0.50000   0.61907   0.00000  Uiso   1.00
N1028  N     0.25000   0.50000   0.38093   0.00000  Uiso   1.00
O1029  O     0.04581   0.70419   0.53821   0.00000  Uiso   1.00
O1030  O     0.20420   0.54581   0.46179   0.00000  Uiso   1.00
O1031  O     0.20420   0.54581   0.53821   0.00000  Uiso   1.00
O1032  O     0.29581   0.95419   0.46179   0.00000  Uiso   1.00
O1033  O     0.20420   0.95419   0.46179   0.00000  Uiso   1.00
O1034  O     0.29581   0.54581   0.53821   0.00000  Uiso   1.00
O1035  O     0.29581   0.54581   0.46179   0.00000  Uiso   1.00
O1036  O     0.20420   0.95419   0.53821   0.00000  Uiso   1.00
O1037  O     0.49017   0.83113   0.37812   0.00000  Uiso   1.00
O1038  O     0.01028   0.66913   0.62147   0.00000  Uiso   1.00
O1039  O     0.01707   0.67035   0.37633   0.00000  Uiso   1.00
O1040  O     0.45420   0.79581   0.46179   0.00000  Uiso   1.00
O1041  O     0.49544   0.83162   0.62337   0.00000  Uiso   1.00
O1042  O     0.24017   0.58113   0.37812   0.00000  Uiso   1.00
O1043  O     0.26028   0.91913   0.62147   0.00000  Uiso   1.00
O1044  O     0.26707   0.92035   0.37633   0.00000  Uiso   1.00
O1045  O     0.24544   0.58162   0.62337   0.00000  Uiso   1.00
O1046  O     0.48320   0.60918   0.44522   0.00000  Uiso   1.00
O1047  O     0.43152   0.55840   0.41381   0.00000  Uiso   1.00
O1048  O     0.44001   0.63653   0.37674   0.00000  Uiso   1.00
O1049  O     0.12596   0.76783   0.56580   0.00000  Uiso   1.00
O1050  O     0.16359   0.82660   0.60640   0.00000  Uiso   1.00
O1051  O     0.45420   0.79581   0.53821   0.00000  Uiso   1.00
O1052  O     0.08364   0.81856   0.62206   0.00000  Uiso   1.00
O1053  O     0.04142   0.88763   0.42429   0.00000  Uiso   1.00
O1054  O     0.10491   0.90110   0.38052   0.00000  Uiso   1.00
O1055  O     0.07854   0.81793   0.38368   0.00000  Uiso   1.00
O1056  O     0.36847   0.73197   0.55692   0.00000  Uiso   1.00
O1057  O     0.33171   0.67663   0.60299   0.00000  Uiso   1.00
O1058  O     0.41053   0.69108   0.61861   0.00000  Uiso   1.00
O1059  O     0.00259   0.61552   0.53311   0.00000  Uiso   1.00
O1060  O     0.04253   0.54471   0.52143   0.00000  Uiso   1.00
O1061  O     0.03921   0.57884   0.60106   0.00000  Uiso   1.00
O1062  O     0.04581   0.70419   0.46179   0.00000  Uiso   1.00
O1063  O     0.37711   0.76986   0.42892   0.00000  Uiso   1.00
O1064  O     0.33040   0.82959   0.40113   0.00000  Uiso   1.00
O1065  O     0.40686   0.82616   0.37069   0.00000  Uiso   1.00
O1066  O     0.43239   0.87891   0.59303   0.00000  Uiso   1.00
O1067  O     0.36169   0.87168   0.62391   0.00000  Uiso   1.00
O1068  O     0.40605   0.79733   0.61267   0.00000  Uiso   1.00
O1069  O     0.13263   0.73572   0.45444   0.00000  Uiso   1.00
O1070  O     0.17778   0.68341   0.41071   0.00000  Uiso   1.00
O1071  O     0.10175   0.69844   0.38399   0.00000  Uiso   1.00
O1072  O     0.23320   0.85918   0.44523   0.00000  Uiso   1.00
O1073  O     0.45420   0.70419   0.46179   0.00000  Uiso   1.00
O1074  O     0.18152   0.80839   0.41382   0.00000  Uiso   1.00
O1075  O     0.19001   0.88652   0.37674   0.00000  Uiso   1.00
O1076  O     0.37596   0.51782   0.56578   0.00000  Uiso   1.00
O1077  O     0.41360   0.57658   0.60639   0.00000  Uiso   1.00
O1078  O     0.33365   0.56855   0.62206   0.00000  Uiso   1.00
O1079  O     0.29142   0.63763   0.42429   0.00000  Uiso   1.00
O1080  O     0.35491   0.65110   0.38052   0.00000  Uiso   1.00
O1081  O     0.32853   0.56793   0.38368   0.00000  Uiso   1.00
O1082  O     0.11848   0.98198   0.55691   0.00000  Uiso   1.00
O1083  O     0.08171   0.92665   0.60298   0.00000  Uiso   1.00
O1084  O     0.04581   0.79581   0.53821   0.00000  Uiso   1.00
O1085  O     0.16052   0.94108   0.61861   0.00000  Uiso   1.00
O1086  O     0.25259   0.86551   0.53311   0.00000  Uiso   1.00
O1087  O     0.29253   0.79471   0.52143   0.00000  Uiso   1.00
O1088  O     0.28921   0.82884   0.60106   0.00000  Uiso   1.00
O1089  O     0.12711   0.51986   0.42892   0.00000  Uiso   1.00
O1090  O     0.08040   0.57959   0.40113   0.00000  Uiso   1.00
O1091  O     0.15686   0.57616   0.37069   0.00000  Uiso   1.00
O1092  O     0.18239   0.62891   0.59303   0.00000  Uiso   1.00
O1093  O     0.11169   0.62168   0.62391   0.00000  Uiso   1.00
O1094  O     0.15605   0.54733   0.61267   0.00000  Uiso   1.00
O1095  O     0.04581   0.79581   0.46179   0.00000  Uiso   1.00
O1096  O     0.38263   0.98572   0.45444   0.00000  Uiso   1.00
O1097  O     0.42778   0.93340   0.41071   0.00000  Uiso   1.00
O1098  O     0.35175   0.94843   0.38398   0.00000  Uiso   1.00
O1099  O     0.45420   0.70419   0.53821   0.00000  Uiso   1.00
O1100  O     0.29581   0.95419   0.53821   0.00000  Uiso   1.00
S1101  S     0.44061   0.60736   0.42458   0.00000  Uiso   1.00
S1102  S     0.37290   0.56563   0.58413   0.00000  Uiso   1.00
S1103  S     0.33362   0.61777   0.41089   0.00000  Uiso   1.00
S1104  S     0.12296   0.93708   0.58022   0.00000  Uiso   1.00
S1105  S     0.29135   0.83953   0.54614   0.00000  Uiso   1.00
S1106  S     0.12473   0.56889   0.41479   0.00000  Uiso   1.00
S1107  S     0.14413   0.59947   0.59342   0.00000  Uiso   1.00
S1108  S     0.38354   0.94221   0.42761   0.00000  Uiso   1.00
S1109  S     0.12290   0.81565   0.58414   0.00000  Uiso   1.00
S1110  S     0.08362   0.86777   0.41089   0.00000  Uiso   1.00
S1111  S     0.37296   0.68707   0.58023   0.00000  Uiso   1.00
S1112  S     0.04135   0.58953   0.54614   0.00000  Uiso   1.00
S1113  S     0.37473   0.81889   0.41479   0.00000  Uiso   1.00
S1114  S     0.39413   0.84947   0.59342   0.00000  Uiso   1.00
S1115  S     0.13355   0.69221   0.42762   0.00000  Uiso   1.00
S1116  S     0.19061   0.85736   0.42459   0.00000  Uiso   1.00
Zn1117 Zn    0.00000   0.75000   0.55104   0.00000  Uiso   1.00
Zn1118 Zn    0.00000   0.75000   0.44896   0.00000  Uiso   1.00
Zn1119 Zn    0.25000   0.50000   0.55104   0.00000  Uiso   1.00
Zn1120 Zn    0.25000   0.50000   0.44896   0.00000  Uiso   1.00
C1121  C     0.55879   0.68894   0.49946   0.00000  Uiso   1.00
C1122  C     0.50593   0.71052   0.64259   0.00000  Uiso   1.00
C1123  C     0.50751   0.71082   0.35633   0.00000  Uiso   1.00
C1124  C     0.99607   0.78977   0.64344   0.00000  Uiso   1.00
C1125  C     0.74475   0.53960   0.35724   0.00000  Uiso   1.00
C1126  C     0.75593   0.96052   0.64259   0.00000  Uiso   1.00
C1127  C     0.75751   0.96082   0.35633   0.00000  Uiso   1.00
C1128  C     0.74607   0.53977   0.64344   0.00000  Uiso   1.00
C1129  C     0.90122   0.62877   0.46194   0.00000  Uiso   1.00
C1130  C     0.61336   0.85460   0.54044   0.00000  Uiso   1.00
C1131  C     0.61235   0.85883   0.45985   0.00000  Uiso   1.00
C1132  C     0.93859   0.80860   0.50043   0.00000  Uiso   1.00
C1133  C     0.88636   0.64437   0.54007   0.00000  Uiso   1.00
C1134  C     0.58778   0.61933   0.53180   0.00000  Uiso   1.00
C1135  C     0.88879   0.85566   0.45919   0.00000  Uiso   1.00
C1136  C     0.87544   0.84663   0.53857   0.00000  Uiso   1.00
C1137  C     0.61694   0.64657   0.46185   0.00000  Uiso   1.00
C1138  C     0.65121   0.87877   0.46195   0.00000  Uiso   1.00
C1139  C     0.86336   0.60460   0.54044   0.00000  Uiso   1.00
C1140  C     0.86235   0.60883   0.45985   0.00000  Uiso   1.00
C1141  C     0.63635   0.89437   0.54007   0.00000  Uiso   1.00
C1142  C     0.83778   0.86933   0.53180   0.00000  Uiso   1.00
C1143  C     0.94088   0.68916   0.50019   0.00000  Uiso   1.00
C1144  C     0.63880   0.60566   0.45919   0.00000  Uiso   1.00
C1145  C     0.62544   0.59663   0.53857   0.00000  Uiso   1.00
C1146  C     0.86694   0.89657   0.46185   0.00000  Uiso   1.00
C1147  C     0.59517   0.84134   0.49985   0.00000  Uiso   1.00
C1148  C     0.90976   0.65365   0.50089   0.00000  Uiso   1.00
C1149  C     0.90099   0.83717   0.50021   0.00000  Uiso   1.00
C1150  C     0.58811   0.65169   0.49769   0.00000  Uiso   1.00
C1151  C     0.84517   0.59133   0.49985   0.00000  Uiso   1.00
C1152  C     0.65976   0.90365   0.50089   0.00000  Uiso   1.00
C1153  C     0.65099   0.58717   0.50021   0.00000  Uiso   1.00
C1154  C     0.56030   0.80974   0.49984   0.00000  Uiso   1.00
C1155  C     0.83811   0.90169   0.49769   0.00000  Uiso   1.00
C1156  C     0.80879   0.93894   0.49946   0.00000  Uiso   1.00
C1157  C     0.68859   0.55860   0.50043   0.00000  Uiso   1.00
C1158  C     0.69088   0.93916   0.50019   0.00000  Uiso   1.00
C1159  C     0.81030   0.55974   0.49984   0.00000  Uiso   1.00
C1160  C     0.99475   0.78960   0.35724   0.00000  Uiso   1.00
H1161  H     0.99587   0.82657   0.40966   0.00000  Uiso   1.00
H1162  H     0.58668   0.84861   0.63672   0.00000  Uiso   1.00
H1163  H     0.60766   0.80698   0.37744   0.00000  Uiso   1.00
H1164  H     0.90990   0.66158   0.63429   0.00000  Uiso   1.00
H1165  H     0.51284   0.56174   0.60574   0.00000  Uiso   1.00
H1166  H     0.90690   0.85941   0.36552   0.00000  Uiso   1.00
H1167  H     0.87972   0.78650   0.62698   0.00000  Uiso   1.00
H1168  H     0.60322   0.66876   0.36809   0.00000  Uiso   1.00
H1169  H     0.68260   0.91831   0.38543   0.00000  Uiso   1.00
H1170  H     0.83670   0.59860   0.63672   0.00000  Uiso   1.00
H1171  H     0.85766   0.55697   0.37745   0.00000  Uiso   1.00
H1172  H     0.99860   0.67269   0.59171   0.00000  Uiso   1.00
H1173  H     0.65985   0.91161   0.63433   0.00000  Uiso   1.00
H1174  H     0.76290   0.81164   0.60573   0.00000  Uiso   1.00
H1175  H     0.65690   0.60941   0.36552   0.00000  Uiso   1.00
H1176  H     0.62973   0.53650   0.62698   0.00000  Uiso   1.00
H1177  H     0.85322   0.91876   0.36809   0.00000  Uiso   1.00
H1178  H     0.50791   0.67370   0.40744   0.00000  Uiso   1.00
H1179  H     0.99986   0.82709   0.59122   0.00000  Uiso   1.00
H1180  H     0.74587   0.57657   0.40966   0.00000  Uiso   1.00
H1181  H     0.74860   0.92269   0.59171   0.00000  Uiso   1.00
H1182  H     0.75791   0.92370   0.40744   0.00000  Uiso   1.00
H1183  H     0.74986   0.57709   0.59122   0.00000  Uiso   1.00
H1184  H     0.93260   0.66832   0.38544   0.00000  Uiso   1.00
N1185  N     0.50000   0.75000   0.61907   0.00000  Uiso   1.00
N1186  N     0.50000   0.75000   0.38093   0.00000  Uiso   1.00
N1187  N     0.75000   0.50000   0.61907   0.00000  Uiso   1.00
N1188  N     0.75000   0.50000   0.38093   0.00000  Uiso   1.00
O1189  O     0.54581   0.70419   0.53821   0.00000  Uiso   1.00
O1190  O     0.70420   0.54581   0.46179   0.00000  Uiso   1.00
O1191  O     0.70420   0.54581   0.53821   0.00000  Uiso   1.00
O1192  O     0.79581   0.95419   0.46179   0.00000  Uiso   1.00
O1193  O     0.70420   0.95419   0.46179   0.00000  Uiso   1.00
O1194  O     0.79581   0.54581   0.53821   0.00000  Uiso   1.00
O1195  O     0.79581   0.54581   0.46179   0.00000  Uiso   1.00
O1196  O     0.70420   0.95419   0.53821   0.00000  Uiso   1.00
O1197  O     0.99017   0.83113   0.37812   0.00000  Uiso   1.00
O1198  O     0.51028   0.66913   0.62147   0.00000  Uiso   1.00
O1199  O     0.51707   0.67035   0.37633   0.00000  Uiso   1.00
O1200  O     0.95420   0.79581   0.46179   0.00000  Uiso   1.00
O1201  O     0.99544   0.83162   0.62337   0.00000  Uiso   1.00
O1202  O     0.74017   0.58113   0.37812   0.00000  Uiso   1.00
O1203  O     0.76028   0.91913   0.62147   0.00000  Uiso   1.00
O1204  O     0.76707   0.92035   0.37633   0.00000  Uiso   1.00
O1205  O     0.74544   0.58162   0.62337   0.00000  Uiso   1.00
O1206  O     0.98320   0.60918   0.44522   0.00000  Uiso   1.00
O1207  O     0.93152   0.55840   0.41381   0.00000  Uiso   1.00
O1208  O     0.94001   0.63653   0.37674   0.00000  Uiso   1.00
O1209  O     0.62596   0.76783   0.56580   0.00000  Uiso   1.00
O1210  O     0.66359   0.82660   0.60640   0.00000  Uiso   1.00
O1211  O     0.95420   0.79581   0.53821   0.00000  Uiso   1.00
O1212  O     0.58364   0.81856   0.62206   0.00000  Uiso   1.00
O1213  O     0.54142   0.88763   0.42429   0.00000  Uiso   1.00
O1214  O     0.60491   0.90110   0.38052   0.00000  Uiso   1.00
O1215  O     0.57854   0.81793   0.38368   0.00000  Uiso   1.00
O1216  O     0.86847   0.73197   0.55692   0.00000  Uiso   1.00
O1217  O     0.83171   0.67663   0.60299   0.00000  Uiso   1.00
O1218  O     0.91053   0.69108   0.61861   0.00000  Uiso   1.00
O1219  O     0.50259   0.61552   0.53311   0.00000  Uiso   1.00
O1220  O     0.54253   0.54471   0.52143   0.00000  Uiso   1.00
O1221  O     0.53921   0.57884   0.60106   0.00000  Uiso   1.00
O1222  O     0.54581   0.70419   0.46179   0.00000  Uiso   1.00
O1223  O     0.87711   0.76986   0.42892   0.00000  Uiso   1.00
O1224  O     0.83040   0.82959   0.40113   0.00000  Uiso   1.00
O1225  O     0.90686   0.82616   0.37069   0.00000  Uiso   1.00
O1226  O     0.93239   0.87891   0.59303   0.00000  Uiso   1.00
O1227  O     0.86169   0.87168   0.62391   0.00000  Uiso   1.00
O1228  O     0.90605   0.79733   0.61267   0.00000  Uiso   1.00
O1229  O     0.63263   0.73572   0.45444   0.00000  Uiso   1.00
O1230  O     0.67778   0.68341   0.41071   0.00000  Uiso   1.00
O1231  O     0.60175   0.69844   0.38399   0.00000  Uiso   1.00
O1232  O     0.73320   0.85918   0.44523   0.00000  Uiso   1.00
O1233  O     0.95420   0.70419   0.46179   0.00000  Uiso   1.00
O1234  O     0.68152   0.80839   0.41382   0.00000  Uiso   1.00
O1235  O     0.69001   0.88652   0.37674   0.00000  Uiso   1.00
O1236  O     0.87596   0.51782   0.56578   0.00000  Uiso   1.00
O1237  O     0.91360   0.57658   0.60639   0.00000  Uiso   1.00
O1238  O     0.83365   0.56855   0.62206   0.00000  Uiso   1.00
O1239  O     0.79142   0.63763   0.42429   0.00000  Uiso   1.00
O1240  O     0.85491   0.65110   0.38052   0.00000  Uiso   1.00
O1241  O     0.82853   0.56793   0.38368   0.00000  Uiso   1.00
O1242  O     0.61848   0.98198   0.55691   0.00000  Uiso   1.00
O1243  O     0.58171   0.92665   0.60298   0.00000  Uiso   1.00
O1244  O     0.54581   0.79581   0.53821   0.00000  Uiso   1.00
O1245  O     0.66052   0.94108   0.61861   0.00000  Uiso   1.00
O1246  O     0.75259   0.86551   0.53311   0.00000  Uiso   1.00
O1247  O     0.79253   0.79471   0.52143   0.00000  Uiso   1.00
O1248  O     0.78921   0.82884   0.60106   0.00000  Uiso   1.00
O1249  O     0.62711   0.51986   0.42892   0.00000  Uiso   1.00
O1250  O     0.58040   0.57959   0.40113   0.00000  Uiso   1.00
O1251  O     0.65686   0.57616   0.37069   0.00000  Uiso   1.00
O1252  O     0.68239   0.62891   0.59303   0.00000  Uiso   1.00
O1253  O     0.61169   0.62168   0.62391   0.00000  Uiso   1.00
O1254  O     0.65605   0.54733   0.61267   0.00000  Uiso   1.00
O1255  O     0.54581   0.79581   0.46179   0.00000  Uiso   1.00
O1256  O     0.88263   0.98572   0.45444   0.00000  Uiso   1.00
O1257  O     0.92778   0.93340   0.41071   0.00000  Uiso   1.00
O1258  O     0.85175   0.94843   0.38398   0.00000  Uiso   1.00
O1259  O     0.95420   0.70419   0.53821   0.00000  Uiso   1.00
O1260  O     0.79581   0.95419   0.53821   0.00000  Uiso   1.00
S1261  S     0.94061   0.60736   0.42458   0.00000  Uiso   1.00
S1262  S     0.87290   0.56563   0.58413   0.00000  Uiso   1.00
S1263  S     0.83362   0.61777   0.41089   0.00000  Uiso   1.00
S1264  S     0.62296   0.93708   0.58022   0.00000  Uiso   1.00
S1265  S     0.79135   0.83953   0.54614   0.00000  Uiso   1.00
S1266  S     0.62473   0.56889   0.41479   0.00000  Uiso   1.00
S1267  S     0.64413   0.59947   0.59342   0.00000  Uiso   1.00
S1268  S     0.88354   0.94221   0.42761   0.00000  Uiso   1.00
S1269  S     0.62290   0.81565   0.58414   0.00000  Uiso   1.00
S1270  S     0.58362   0.86777   0.41089   0.00000  Uiso   1.00
S1271  S     0.87296   0.68707   0.58023   0.00000  Uiso   1.00
S1272  S     0.54135   0.58953   0.54614   0.00000  Uiso   1.00
S1273  S     0.87473   0.81889   0.41479   0.00000  Uiso   1.00
S1274  S     0.89413   0.84947   0.59342   0.00000  Uiso   1.00
S1275  S     0.63355   0.69221   0.42762   0.00000  Uiso   1.00
S1276  S     0.69061   0.85736   0.42459   0.00000  Uiso   1.00
Zn1277 Zn    0.50000   0.75000   0.55104   0.00000  Uiso   1.00
Zn1278 Zn    0.50000   0.75000   0.44896   0.00000  Uiso   1.00
Zn1279 Zn    0.75000   0.50000   0.55104   0.00000  Uiso   1.00
Zn1280 Zn    0.75000   0.50000   0.44896   0.00000  Uiso   1.00
C1281  C     0.05879   0.18894   0.83279   0.00000  Uiso   1.00
C1282  C     0.00593   0.21052   0.97592   0.00000  Uiso   1.00
C1283  C     0.00751   0.21082   0.68966   0.00000  Uiso   1.00
C1284  C     0.49607   0.28977   0.97677   0.00000  Uiso   1.00
C1285  C     0.24475   0.03960   0.69058   0.00000  Uiso   1.00
C1286  C     0.25593   0.46052   0.97592   0.00000  Uiso   1.00
C1287  C     0.25751   0.46082   0.68966   0.00000  Uiso   1.00
C1288  C     0.24607   0.03977   0.97677   0.00000  Uiso   1.00
C1289  C     0.40122   0.12877   0.79528   0.00000  Uiso   1.00
C1290  C     0.11336   0.35460   0.87377   0.00000  Uiso   1.00
C1291  C     0.11235   0.35883   0.79318   0.00000  Uiso   1.00
C1292  C     0.43859   0.30860   0.83376   0.00000  Uiso   1.00
C1293  C     0.38636   0.14437   0.87341   0.00000  Uiso   1.00
C1294  C     0.08778   0.11933   0.86514   0.00000  Uiso   1.00
C1295  C     0.38879   0.35566   0.79252   0.00000  Uiso   1.00
C1296  C     0.37544   0.34663   0.87190   0.00000  Uiso   1.00
C1297  C     0.11694   0.14657   0.79518   0.00000  Uiso   1.00
C1298  C     0.15121   0.37877   0.79528   0.00000  Uiso   1.00
C1299  C     0.36336   0.10460   0.87377   0.00000  Uiso   1.00
C1300  C     0.36235   0.10883   0.79318   0.00000  Uiso   1.00
C1301  C     0.13635   0.39437   0.87341   0.00000  Uiso   1.00
C1302  C     0.33778   0.36933   0.86514   0.00000  Uiso   1.00
C1303  C     0.44088   0.18916   0.83352   0.00000  Uiso   1.00
C1304  C     0.13880   0.10566   0.79252   0.00000  Uiso   1.00
C1305  C     0.12544   0.09663   0.87190   0.00000  Uiso   1.00
C1306  C     0.36694   0.39657   0.79518   0.00000  Uiso   1.00
C1307  C     0.09517   0.34134   0.83318   0.00000  Uiso   1.00
C1308  C     0.40976   0.15365   0.83423   0.00000  Uiso   1.00
C1309  C     0.40099   0.33717   0.83354   0.00000  Uiso   1.00
C1310  C     0.08811   0.15169   0.83102   0.00000  Uiso   1.00
C1311  C     0.34517   0.09133   0.83318   0.00000  Uiso   1.00
C1312  C     0.15976   0.40365   0.83423   0.00000  Uiso   1.00
C1313  C     0.15099   0.08717   0.83354   0.00000  Uiso   1.00
C1314  C     0.06030   0.30974   0.83318   0.00000  Uiso   1.00
C1315  C     0.33811   0.40169   0.83102   0.00000  Uiso   1.00
C1316  C     0.30879   0.43894   0.83279   0.00000  Uiso   1.00
C1317  C     0.18859   0.05860   0.83376   0.00000  Uiso   1.00
C1318  C     0.19088   0.43916   0.83352   0.00000  Uiso   1.00
C1319  C     0.31030   0.05974   0.83318   0.00000  Uiso   1.00
C1320  C     0.49475   0.28960   0.69058   0.00000  Uiso   1.00
H1321  H     0.49587   0.32657   0.74300   0.00000  Uiso   1.00
H1322  H     0.08668   0.34861   0.97005   0.00000  Uiso   1.00
H1323  H     0.10766   0.30698   0.71077   0.00000  Uiso   1.00
H1324  H     0.40990   0.16158   0.96763   0.00000  Uiso   1.00
H1325  H     0.01284   0.06174   0.93908   0.00000  Uiso   1.00
H1326  H     0.40690   0.35941   0.69886   0.00000  Uiso   1.00
H1327  H     0.37972   0.28650   0.96031   0.00000  Uiso   1.00
H1328  H     0.10322   0.16876   0.70142   0.00000  Uiso   1.00
H1329  H     0.18260   0.41831   0.71877   0.00000  Uiso   1.00
H1330  H     0.33670   0.09860   0.97006   0.00000  Uiso   1.00
H1331  H     0.35766   0.05697   0.71079   0.00000  Uiso   1.00
H1332  H     0.49860   0.17269   0.92504   0.00000  Uiso   1.00
H1333  H     0.15985   0.41161   0.96767   0.00000  Uiso   1.00
H1334  H     0.26290   0.31164   0.93906   0.00000  Uiso   1.00
H1335  H     0.15690   0.10941   0.69885   0.00000  Uiso   1.00
H1336  H     0.12973   0.03650   0.96031   0.00000  Uiso   1.00
H1337  H     0.35322   0.41876   0.70142   0.00000  Uiso   1.00
H1338  H     0.00791   0.17370   0.74078   0.00000  Uiso   1.00
H1339  H     0.49986   0.32709   0.92455   0.00000  Uiso   1.00
H1340  H     0.24587   0.07657   0.74300   0.00000  Uiso   1.00
H1341  H     0.24860   0.42269   0.92504   0.00000  Uiso   1.00
H1342  H     0.25791   0.42370   0.74078   0.00000  Uiso   1.00
H1343  H     0.24986   0.07709   0.92455   0.00000  Uiso   1.00
H1344  H     0.43260   0.16832   0.71877   0.00000  Uiso   1.00
N1345  N     0.00000   0.25000   0.95240   0.00000  Uiso   1.00
N1346  N     0.00000   0.25000   0.71427   0.00000  Uiso   1.00
N1347  N     0.25000   0.00000   0.95240   0.00000  Uiso   1.00
N1348  N     0.25000   0.00000   0.71427   0.00000  Uiso   1.00
O1349  O     0.04581   0.20419   0.87154   0.00000  Uiso   1.00
O1350  O     0.20420   0.04581   0.79513   0.00000  Uiso   1.00
O1351  O     0.20420   0.04581   0.87154   0.00000  Uiso   1.00
O1352  O     0.29581   0.45419   0.79513   0.00000  Uiso   1.00
O1353  O     0.20420   0.45419   0.79513   0.00000  Uiso   1.00
O1354  O     0.29581   0.04581   0.87154   0.00000  Uiso   1.00
O1355  O     0.29581   0.04581   0.79513   0.00000  Uiso   1.00
O1356  O     0.20420   0.45419   0.87154   0.00000  Uiso   1.00
O1357  O     0.49017   0.33113   0.71146   0.00000  Uiso   1.00
O1358  O     0.01028   0.16913   0.95480   0.00000  Uiso   1.00
O1359  O     0.01707   0.17035   0.70966   0.00000  Uiso   1.00
O1360  O     0.45420   0.29581   0.79513   0.00000  Uiso   1.00
O1361  O     0.49544   0.33162   0.95670   0.00000  Uiso   1.00
O1362  O     0.24017   0.08113   0.71146   0.00000  Uiso   1.00
O1363  O     0.26028   0.41913   0.95480   0.00000  Uiso   1.00
O1364  O     0.26707   0.42035   0.70966   0.00000  Uiso   1.00
O1365  O     0.24544   0.08162   0.95670   0.00000  Uiso   1.00
O1366  O     0.48320   0.10918   0.77856   0.00000  Uiso   1.00
O1367  O     0.43152   0.05840   0.74714   0.00000  Uiso   1.00
O1368  O     0.44001   0.13653   0.71007   0.00000  Uiso   1.00
O1369  O     0.12596   0.26783   0.89913   0.00000  Uiso   1.00
O1370  O     0.16359   0.32660   0.93974   0.00000  Uiso   1.00
O1371  O     0.45420   0.29581   0.87154   0.00000  Uiso   1.00
O1372  O     0.08364   0.31856   0.95540   0.00000  Uiso   1.00
O1373  O     0.04142   0.38763   0.75762   0.00000  Uiso   1.00
O1374  O     0.10491   0.40110   0.71385   0.00000  Uiso   1.00
O1375  O     0.07854   0.31793   0.71701   0.00000  Uiso   1.00
O1376  O     0.36847   0.23197   0.89025   0.00000  Uiso   1.00
O1377  O     0.33171   0.17663   0.93632   0.00000  Uiso   1.00
O1378  O     0.41053   0.19108   0.95195   0.00000  Uiso   1.00
O1379  O     0.00259   0.11552   0.86644   0.00000  Uiso   1.00
O1380  O     0.04253   0.04471   0.85477   0.00000  Uiso   1.00
O1381  O     0.03921   0.07884   0.93439   0.00000  Uiso   1.00
O1382  O     0.04581   0.20419   0.79513   0.00000  Uiso   1.00
O1383  O     0.37711   0.26986   0.76226   0.00000  Uiso   1.00
O1384  O     0.33040   0.32959   0.73446   0.00000  Uiso   1.00
O1385  O     0.40686   0.32616   0.70402   0.00000  Uiso   1.00
O1386  O     0.43239   0.37891   0.92637   0.00000  Uiso   1.00
O1387  O     0.36169   0.37168   0.95725   0.00000  Uiso   1.00
O1388  O     0.40605   0.29733   0.94600   0.00000  Uiso   1.00
O1389  O     0.13263   0.23572   0.78778   0.00000  Uiso   1.00
O1390  O     0.17778   0.18341   0.74405   0.00000  Uiso   1.00
O1391  O     0.10175   0.19844   0.71732   0.00000  Uiso   1.00
O1392  O     0.23320   0.35918   0.77856   0.00000  Uiso   1.00
O1393  O     0.45420   0.20419   0.79513   0.00000  Uiso   1.00
O1394  O     0.18152   0.30839   0.74715   0.00000  Uiso   1.00
O1395  O     0.19001   0.38652   0.71007   0.00000  Uiso   1.00
O1396  O     0.37596   0.01782   0.89912   0.00000  Uiso   1.00
O1397  O     0.41360   0.07658   0.93973   0.00000  Uiso   1.00
O1398  O     0.33365   0.06855   0.95540   0.00000  Uiso   1.00
O1399  O     0.29142   0.13763   0.75762   0.00000  Uiso   1.00
O1400  O     0.35491   0.15110   0.71385   0.00000  Uiso   1.00
O1401  O     0.32853   0.06793   0.71701   0.00000  Uiso   1.00
O1402  O     0.11848   0.48198   0.89025   0.00000  Uiso   1.00
O1403  O     0.08171   0.42665   0.93631   0.00000  Uiso   1.00
O1404  O     0.04581   0.29581   0.87154   0.00000  Uiso   1.00
O1405  O     0.16052   0.44108   0.95195   0.00000  Uiso   1.00
O1406  O     0.25259   0.36551   0.86644   0.00000  Uiso   1.00
O1407  O     0.29253   0.29471   0.85477   0.00000  Uiso   1.00
O1408  O     0.28921   0.32884   0.93439   0.00000  Uiso   1.00
O1409  O     0.12711   0.01986   0.76225   0.00000  Uiso   1.00
O1410  O     0.08040   0.07959   0.73446   0.00000  Uiso   1.00
O1411  O     0.15686   0.07616   0.70402   0.00000  Uiso   1.00
O1412  O     0.18239   0.12891   0.92637   0.00000  Uiso   1.00
O1413  O     0.11169   0.12168   0.95725   0.00000  Uiso   1.00
O1414  O     0.15605   0.04733   0.94600   0.00000  Uiso   1.00
O1415  O     0.04581   0.29581   0.79513   0.00000  Uiso   1.00
O1416  O     0.38263   0.48572   0.78777   0.00000  Uiso   1.00
O1417  O     0.42778   0.43340   0.74405   0.00000  Uiso   1.00
O1418  O     0.35175   0.44843   0.71732   0.00000  Uiso   1.00
O1419  O     0.45420   0.20419   0.87154   0.00000  Uiso   1.00
O1420  O     0.29581   0.45419   0.87154   0.00000  Uiso   1.00
S1421  S     0.44061   0.10736   0.75792   0.00000  Uiso   1.00
S1422  S     0.37290   0.06563   0.91747   0.00000  Uiso   1.00
S1423  S     0.33362   0.11777   0.74422   0.00000  Uiso   1.00
S1424  S     0.12296   0.43708   0.91356   0.00000  Uiso   1.00
S1425  S     0.29135   0.33953   0.87948   0.00000  Uiso   1.00
S1426  S     0.12473   0.06889   0.74812   0.00000  Uiso   1.00
S1427  S     0.14413   0.09947   0.92676   0.00000  Uiso   1.00
S1428  S     0.38354   0.44221   0.76095   0.00000  Uiso   1.00
S1429  S     0.12290   0.31565   0.91747   0.00000  Uiso   1.00
S1430  S     0.08362   0.36777   0.74422   0.00000  Uiso   1.00
S1431  S     0.37296   0.18707   0.91356   0.00000  Uiso   1.00
S1432  S     0.04135   0.08953   0.87948   0.00000  Uiso   1.00
S1433  S     0.37473   0.31889   0.74812   0.00000  Uiso   1.00
S1434  S     0.39413   0.34947   0.92676   0.00000  Uiso   1.00
S1435  S     0.13355   0.19221   0.76095   0.00000  Uiso   1.00
S1436  S     0.19061   0.35736   0.75792   0.00000  Uiso   1.00
Zn1437 Zn    0.00000   0.25000   0.88437   0.00000  Uiso   1.00
Zn1438 Zn    0.00000   0.25000   0.78229   0.00000  Uiso   1.00
Zn1439 Zn    0.25000   0.00000   0.88437   0.00000  Uiso   1.00
Zn1440 Zn    0.25000   0.00000   0.78229   0.00000  Uiso   1.00
C1441  C     0.55879   0.18894   0.83279   0.00000  Uiso   1.00
C1442  C     0.50593   0.21052   0.97592   0.00000  Uiso   1.00
C1443  C     0.50751   0.21082   0.68966   0.00000  Uiso   1.00
C1444  C     0.99607   0.28977   0.97677   0.00000  Uiso   1.00
C1445  C     0.74475   0.03960   0.69058   0.00000  Uiso   1.00
C1446  C     0.75593   0.46052   0.97592   0.00000  Uiso   1.00
C1447  C     0.75751   0.46082   0.68966   0.00000  Uiso   1.00
C1448  C     0.74607   0.03977   0.97677   0.00000  Uiso   1.00
C1449  C     0.90122   0.12877   0.79528   0.00000  Uiso   1.00
C1450  C     0.61336   0.35460   0.87377   0.00000  Uiso   1.00
C1451  C     0.61235   0.35883   0.79318   0.00000  Uiso   1.00
C1452  C     0.93859   0.30860   0.83376   0.00000  Uiso   1.00
C1453  C     0.88636   0.14437   0.87341   0.00000  Uiso   1.00
C1454  C     0.58778   0.11933   0.86514   0.00000  Uiso   1.00
C1455  C     0.88879   0.35566   0.79252   0.00000  Uiso   1.00
C1456  C     0.87544   0.34663   0.87190   0.00000  Uiso   1.00
C1457  C     0.61694   0.14657   0.79518   0.00000  Uiso   1.00
C1458  C     0.65121   0.37877   0.79528   0.00000  Uiso   1.00
C1459  C     0.86336   0.10460   0.87377   0.00000  Uiso   1.00
C1460  C     0.86235   0.10883   0.79318   0.00000  Uiso   1.00
C1461  C     0.63635   0.39437   0.87341   0.00000  Uiso   1.00
C1462  C     0.83778   0.36933   0.86514   0.00000  Uiso   1.00
C1463  C     0.94088   0.18916   0.83352   0.00000  Uiso   1.00
C1464  C     0.63880   0.10566   0.79252   0.00000  Uiso   1.00
C1465  C     0.62544   0.09663   0.87190   0.00000  Uiso   1.00
C1466  C     0.86694   0.39657   0.79518   0.00000  Uiso   1.00
C1467  C     0.59517   0.34134   0.83318   0.00000  Uiso   1.00
C1468  C     0.90976   0.15365   0.83423   0.00000  Uiso   1.00
C1469  C     0.90099   0.33717   0.83354   0.00000  Uiso   1.00
C1470  C     0.58811   0.15169   0.83102   0.00000  Uiso   1.00
C1471  C     0.84517   0.09133   0.83318   0.00000  Uiso   1.00
C1472  C     0.65976   0.40365   0.83423   0.00000  Uiso   1.00
C1473  C     0.65099   0.08717   0.83354   0.00000  Uiso   1.00
C1474  C     0.56030   0.30974   0.83318   0.00000  Uiso   1.00
C1475  C     0.83811   0.40169   0.83102   0.00000  Uiso   1.00
C1476  C     0.80879   0.43894   0.83279   0.00000  Uiso   1.00
C1477  C     0.68859   0.05860   0.83376   0.00000  Uiso   1.00
C1478  C     0.69088   0.43916   0.83352   0.00000  Uiso   1.00
C1479  C     0.81030   0.05974   0.83318   0.00000  Uiso   1.00
C1480  C     0.99475   0.28960   0.69058   0.00000  Uiso   1.00
H1481  H     0.99587   0.32657   0.74300   0.00000  Uiso   1.00
H1482  H     0.58668   0.34861   0.97005   0.00000  Uiso   1.00
H1483  H     0.60766   0.30698   0.71077   0.00000  Uiso   1.00
H1484  H     0.90990   0.16158   0.96763   0.00000  Uiso   1.00
H1485  H     0.51284   0.06174   0.93908   0.00000  Uiso   1.00
H1486  H     0.90690   0.35941   0.69886   0.00000  Uiso   1.00
H1487  H     0.87972   0.28650   0.96031   0.00000  Uiso   1.00
H1488  H     0.60322   0.16876   0.70142   0.00000  Uiso   1.00
H1489  H     0.68260   0.41831   0.71877   0.00000  Uiso   1.00
H1490  H     0.83670   0.09860   0.97006   0.00000  Uiso   1.00
H1491  H     0.85766   0.05697   0.71079   0.00000  Uiso   1.00
H1492  H     0.99860   0.17269   0.92504   0.00000  Uiso   1.00
H1493  H     0.65985   0.41161   0.96767   0.00000  Uiso   1.00
H1494  H     0.76290   0.31164   0.93906   0.00000  Uiso   1.00
H1495  H     0.65690   0.10941   0.69885   0.00000  Uiso   1.00
H1496  H     0.62973   0.03650   0.96031   0.00000  Uiso   1.00
H1497  H     0.85322   0.41876   0.70142   0.00000  Uiso   1.00
H1498  H     0.50791   0.17370   0.74078   0.00000  Uiso   1.00
H1499  H     0.99986   0.32709   0.92455   0.00000  Uiso   1.00
H1500  H     0.74587   0.07657   0.74300   0.00000  Uiso   1.00
H1501  H     0.74860   0.42269   0.92504   0.00000  Uiso   1.00
H1502  H     0.75791   0.42370   0.74078   0.00000  Uiso   1.00
H1503  H     0.74986   0.07709   0.92455   0.00000  Uiso   1.00
H1504  H     0.93260   0.16832   0.71877   0.00000  Uiso   1.00
N1505  N     0.50000   0.25000   0.95240   0.00000  Uiso   1.00
N1506  N     0.50000   0.25000   0.71427   0.00000  Uiso   1.00
N1507  N     0.75000   0.00000   0.95240   0.00000  Uiso   1.00
N1508  N     0.75000   0.00000   0.71427   0.00000  Uiso   1.00
O1509  O     0.54581   0.20419   0.87154   0.00000  Uiso   1.00
O1510  O     0.70420   0.04581   0.79513   0.00000  Uiso   1.00
O1511  O     0.70420   0.04581   0.87154   0.00000  Uiso   1.00
O1512  O     0.79581   0.45419   0.79513   0.00000  Uiso   1.00
O1513  O     0.70420   0.45419   0.79513   0.00000  Uiso   1.00
O1514  O     0.79581   0.04581   0.87154   0.00000  Uiso   1.00
O1515  O     0.79581   0.04581   0.79513   0.00000  Uiso   1.00
O1516  O     0.70420   0.45419   0.87154   0.00000  Uiso   1.00
O1517  O     0.99017   0.33113   0.71146   0.00000  Uiso   1.00
O1518  O     0.51028   0.16913   0.95480   0.00000  Uiso   1.00
O1519  O     0.51707   0.17035   0.70966   0.00000  Uiso   1.00
O1520  O     0.95420   0.29581   0.79513   0.00000  Uiso   1.00
O1521  O     0.99544   0.33162   0.95670   0.00000  Uiso   1.00
O1522  O     0.74017   0.08113   0.71146   0.00000  Uiso   1.00
O1523  O     0.76028   0.41913   0.95480   0.00000  Uiso   1.00
O1524  O     0.76707   0.42035   0.70966   0.00000  Uiso   1.00
O1525  O     0.74544   0.08162   0.95670   0.00000  Uiso   1.00
O1526  O     0.98320   0.10918   0.77856   0.00000  Uiso   1.00
O1527  O     0.93152   0.05840   0.74714   0.00000  Uiso   1.00
O1528  O     0.94001   0.13653   0.71007   0.00000  Uiso   1.00
O1529  O     0.62596   0.26783   0.89913   0.00000  Uiso   1.00
O1530  O     0.66359   0.32660   0.93974   0.00000  Uiso   1.00
O1531  O     0.95420   0.29581   0.87154   0.00000  Uiso   1.00
O1532  O     0.58364   0.31856   0.95540   0.00000  Uiso   1.00
O1533  O     0.54142   0.38763   0.75762   0.00000  Uiso   1.00
O1534  O     0.60491   0.40110   0.71385   0.00000  Uiso   1.00
O1535  O     0.57854   0.31793   0.71701   0.00000  Uiso   1.00
O1536  O     0.86847   0.23197   0.89025   0.00000  Uiso   1.00
O1537  O     0.83171   0.17663   0.93632   0.00000  Uiso   1.00
O1538  O     0.91053   0.19108   0.95195   0.00000  Uiso   1.00
O1539  O     0.50259   0.11552   0.86644   0.00000  Uiso   1.00
O1540  O     0.54253   0.04471   0.85477   0.00000  Uiso   1.00
O1541  O     0.53921   0.07884   0.93439   0.00000  Uiso   1.00
O1542  O     0.54581   0.20419   0.79513   0.00000  Uiso   1.00
O1543  O     0.87711   0.26986   0.76226   0.00000  Uiso   1.00
O1544  O     0.83040   0.32959   0.73446   0.00000  Uiso   1.00
O1545  O     0.90686   0.32616   0.70402   0.00000  Uiso   1.00
O1546  O     0.93239   0.37891   0.92637   0.00000  Uiso   1.00
O1547  O     0.86169   0.37168   0.95725   0.00000  Uiso   1.00
O1548  O     0.90605   0.29733   0.94600   0.00000  Uiso   1.00
O1549  O     0.63263   0.23572   0.78778   0.00000  Uiso   1.00
O1550  O     0.67778   0.18341   0.74405   0.00000  Uiso   1.00
O1551  O     0.60175   0.19844   0.71732   0.00000  Uiso   1.00
O1552  O     0.73320   0.35918   0.77856   0.00000  Uiso   1.00
O1553  O     0.95420   0.20419   0.79513   0.00000  Uiso   1.00
O1554  O     0.68152   0.30839   0.74715   0.00000  Uiso   1.00
O1555  O     0.69001   0.38652   0.71007   0.00000  Uiso   1.00
O1556  O     0.87596   0.01782   0.89912   0.00000  Uiso   1.00
O1557  O     0.91360   0.07658   0.93973   0.00000  Uiso   1.00
O1558  O     0.83365   0.06855   0.95540   0.00000  Uiso   1.00
O1559  O     0.79142   0.13763   0.75762   0.00000  Uiso   1.00
O1560  O     0.85491   0.15110   0.71385   0.00000  Uiso   1.00
O1561  O     0.82853   0.06793   0.71701   0.00000  Uiso   1.00
O1562  O     0.61848   0.48198   0.89025   0.00000  Uiso   1.00
O1563  O     0.58171   0.42665   0.93631   0.00000  Uiso   1.00
O1564  O     0.54581   0.29581   0.87154   0.00000  Uiso   1.00
O1565  O     0.66052   0.44108   0.95195   0.00000  Uiso   1.00
O1566  O     0.75259   0.36551   0.86644   0.00000  Uiso   1.00
O1567  O     0.79253   0.29471   0.85477   0.00000  Uiso   1.00
O1568  O     0.78921   0.32884   0.93439   0.00000  Uiso   1.00
O1569  O     0.62711   0.01986   0.76225   0.00000  Uiso   1.00
O1570  O     0.58040   0.07959   0.73446   0.00000  Uiso   1.00
O1571  O     0.65686   0.07616   0.70402   0.00000  Uiso   1.00
O1572  O     0.68239   0.12891   0.92637   0.00000  Uiso   1.00
O1573  O     0.61169   0.12168   0.95725   0.00000  Uiso   1.00
O1574  O     0.65605   0.04733   0.94600   0.00000  Uiso   1.00
O1575  O     0.54581   0.29581   0.79513   0.00000  Uiso   1.00
O1576  O     0.88263   0.48572   0.78777   0.00000  Uiso   1.00
O1577  O     0.92778   0.43340   0.74405   0.00000  Uiso   1.00
O1578  O     0.85175   0.44843   0.71732   0.00000  Uiso   1.00
O1579  O     0.95420   0.20419   0.87154   0.00000  Uiso   1.00
O1580  O     0.79581   0.45419   0.87154   0.00000  Uiso   1.00
S1581  S     0.94061   0.10736   0.75792   0.00000  Uiso   1.00
S1582  S     0.87290   0.06563   0.91747   0.00000  Uiso   1.00
S1583  S     0.83362   0.11777   0.74422   0.00000  Uiso   1.00
S1584  S     0.62296   0.43708   0.91356   0.00000  Uiso   1.00
S1585  S     0.79135   0.33953   0.87948   0.00000  Uiso   1.00
S1586  S     0.62473   0.06889   0.74812   0.00000  Uiso   1.00
S1587  S     0.64413   0.09947   0.92676   0.00000  Uiso   1.00
S1588  S     0.88354   0.44221   0.76095   0.00000  Uiso   1.00
S1589  S     0.62290   0.31565   0.91747   0.00000  Uiso   1.00
S1590  S     0.58362   0.36777   0.74422   0.00000  Uiso   1.00
S1591  S     0.87296   0.18707   0.91356   0.00000  Uiso   1.00
S1592  S     0.54135   0.08953   0.87948   0.00000  Uiso   1.00
S1593  S     0.87473   0.31889   0.74812   0.00000  Uiso   1.00
S1594  S     0.89413   0.34947   0.92676   0.00000  Uiso   1.00
S1595  S     0.63355   0.19221   0.76095   0.00000  Uiso   1.00
S1596  S     0.69061   0.35736   0.75792   0.00000  Uiso   1.00
Zn1597 Zn    0.50000   0.25000   0.88437   0.00000  Uiso   1.00
Zn1598 Zn    0.50000   0.25000   0.78229   0.00000  Uiso   1.00
Zn1599 Zn    0.75000   0.00000   0.88437   0.00000  Uiso   1.00
Zn1600 Zn    0.75000   0.00000   0.78229   0.00000  Uiso   1.00
C1601  C     0.05879   0.68894   0.83279   0.00000  Uiso   1.00
C1602  C     0.00593   0.71052   0.97592   0.00000  Uiso   1.00
C1603  C     0.00751   0.71082   0.68966   0.00000  Uiso   1.00
C1604  C     0.49607   0.78977   0.97677   0.00000  Uiso   1.00
C1605  C     0.24475   0.53960   0.69058   0.00000  Uiso   1.00
C1606  C     0.25593   0.96052   0.97592   0.00000  Uiso   1.00
C1607  C     0.25751   0.96082   0.68966   0.00000  Uiso   1.00
C1608  C     0.24607   0.53977   0.97677   0.00000  Uiso   1.00
C1609  C     0.40122   0.62877   0.79528   0.00000  Uiso   1.00
C1610  C     0.11336   0.85460   0.87377   0.00000  Uiso   1.00
C1611  C     0.11235   0.85883   0.79318   0.00000  Uiso   1.00
C1612  C     0.43859   0.80860   0.83376   0.00000  Uiso   1.00
C1613  C     0.38636   0.64437   0.87341   0.00000  Uiso   1.00
C1614  C     0.08778   0.61933   0.86514   0.00000  Uiso   1.00
C1615  C     0.38879   0.85566   0.79252   0.00000  Uiso   1.00
C1616  C     0.37544   0.84663   0.87190   0.00000  Uiso   1.00
C1617  C     0.11694   0.64657   0.79518   0.00000  Uiso   1.00
C1618  C     0.15121   0.87877   0.79528   0.00000  Uiso   1.00
C1619  C     0.36336   0.60460   0.87377   0.00000  Uiso   1.00
C1620  C     0.36235   0.60883   0.79318   0.00000  Uiso   1.00
C1621  C     0.13635   0.89437   0.87341   0.00000  Uiso   1.00
C1622  C     0.33778   0.86933   0.86514   0.00000  Uiso   1.00
C1623  C     0.44088   0.68916   0.83352   0.00000  Uiso   1.00
C1624  C     0.13880   0.60566   0.79252   0.00000  Uiso   1.00
C1625  C     0.12544   0.59663   0.87190   0.00000  Uiso   1.00
C1626  C     0.36694   0.89657   0.79518   0.00000  Uiso   1.00
C1627  C     0.09517   0.84134   0.83318   0.00000  Uiso   1.00
C1628  C     0.40976   0.65365   0.83423   0.00000  Uiso   1.00
C1629  C     0.40099   0.83717   0.83354   0.00000  Uiso   1.00
C1630  C     0.08811   0.65169   0.83102   0.00000  Uiso   1.00
C1631  C     0.34517   0.59133   0.83318   0.00000  Uiso   1.00
C1632  C     0.15976   0.90365   0.83423   0.00000  Uiso   1.00
C1633  C     0.15099   0.58717   0.83354   0.00000  Uiso   1.00
C1634  C     0.06030   0.80974   0.83318   0.00000  Uiso   1.00
C1635  C     0.33811   0.90169   0.83102   0.00000  Uiso   1.00
C1636  C     0.30879   0.93894   0.83279   0.00000  Uiso   1.00
C1637  C     0.18859   0.55860   0.83376   0.00000  Uiso   1.00
C1638  C     0.19088   0.93916   0.83352   0.00000  Uiso   1.00
C1639  C     0.31030   0.55974   0.83318   0.00000  Uiso   1.00
C1640  C     0.49475   0.78960   0.69058   0.00000  Uiso   1.00
H1641  H     0.49587   0.82657   0.74300   0.00000  Uiso   1.00
H1642  H     0.08668   0.84861   0.97005   0.00000  Uiso   1.00
H1643  H     0.10766   0.80698   0.71077   0.00000  Uiso   1.00
H1644  H     0.40990   0.66158   0.96763   0.00000  Uiso   1.00
H1645  H     0.01284   0.56174   0.93908   0.00000  Uiso   1.00
H1646  H     0.40690   0.85941   0.69886   0.00000  Uiso   1.00
H1647  H     0.37972   0.78650   0.96031   0.00000  Uiso   1.00
H1648  H     0.10322   0.66876   0.70142   0.00000  Uiso   1.00
H1649  H     0.18260   0.91831   0.71877   0.00000  Uiso   1.00
H1650  H     0.33670   0.59860   0.97006   0.00000  Uiso   1.00
H1651  H     0.35766   0.55697   0.71079   0.00000  Uiso   1.00
H1652  H     0.49860   0.67269   0.92504   0.00000  Uiso   1.00
H1653  H     0.15985   0.91161   0.96767   0.00000  Uiso   1.00
H1654  H     0.26290   0.81164   0.93906   0.00000  Uiso   1.00
H1655  H     0.15690   0.60941   0.69885   0.00000  Uiso   1.00
H1656  H     0.12973   0.53650   0.96031   0.00000  Uiso   1.00
H1657  H     0.35322   0.91876   0.70142   0.00000  Uiso   1.00
H1658  H     0.00791   0.67370   0.74078   0.00000  Uiso   1.00
H1659  H     0.49986   0.82709   0.92455   0.00000  Uiso   1.00
H1660  H     0.24587   0.57657   0.74300   0.00000  Uiso   1.00
H1661  H     0.24860   0.92269   0.92504   0.00000  Uiso   1.00
H1662  H     0.25791   0.92370   0.74078   0.00000  Uiso   1.00
H1663  H     0.24986   0.57709   0.92455   0.00000  Uiso   1.00
H1664  H     0.43260   0.66832   0.71877   0.00000  Uiso   1.00
N1665  N     0.00000   0.75000   0.95240   0.00000  Uiso   1.00
N1666  N     0.00000   0.75000   0.71427   0.00000  Uiso   1.00
N1667  N     0.25000   0.50000   0.95240   0.00000  Uiso   1.00
N1668  N     0.25000   0.50000   0.71427   0.00000  Uiso   1.00
O1669  O     0.04581   0.70419   0.87154   0.00000  Uiso   1.00
O1670  O     0.20420   0.54581   0.79513   0.00000  Uiso   1.00
O1671  O     0.20420   0.54581   0.87154   0.00000  Uiso   1.00
O1672  O     0.29581   0.95419   0.79513   0.00000  Uiso   1.00
O1673  O     0.20420   0.95419   0.79513   0.00000  Uiso   1.00
O1674  O     0.29581   0.54581   0.87154   0.00000  Uiso   1.00
O1675  O     0.29581   0.54581   0.79513   0.00000  Uiso   1.00
O1676  O     0.20420   0.95419   0.87154   0.00000  Uiso   1.00
O1677  O     0.49017   0.83113   0.71146   0.00000  Uiso   1.00
O1678  O     0.01028   0.66913   0.95480   0.00000  Uiso   1.00
O1679  O     0.01707   0.67035   0.70966   0.00000  Uiso   1.00
O1680  O     0.45420   0.79581   0.79513   0.00000  Uiso   1.00
O1681  O     0.49544   0.83162   0.95670   0.00000  Uiso   1.00
O1682  O     0.24017   0.58113   0.71146   0.00000  Uiso   1.00
O1683  O     0.26028   0.91913   0.95480   0.00000  Uiso   1.00
O1684  O     0.26707   0.92035   0.70966   0.00000  Uiso   1.00
O1685  O     0.24544   0.58162   0.95670   0.00000  Uiso   1.00
O1686  O     0.48320   0.60918   0.77856   0.00000  Uiso   1.00
O1687  O     0.43152   0.55840   0.74714   0.00000  Uiso   1.00
O1688  O     0.44001   0.63653   0.71007   0.00000  Uiso   1.00
O1689  O     0.12596   0.76783   0.89913   0.00000  Uiso   1.00
O1690  O     0.16359   0.82660   0.93974   0.00000  Uiso   1.00
O1691  O     0.45420   0.79581   0.87154   0.00000  Uiso   1.00
O1692  O     0.08364   0.81856   0.95540   0.00000  Uiso   1.00
O1693  O     0.04142   0.88763   0.75762   0.00000  Uiso   1.00
O1694  O     0.10491   0.90110   0.71385   0.00000  Uiso   1.00
O1695  O     0.07854   0.81793   0.71701   0.00000  Uiso   1.00
O1696  O     0.36847   0.73197   0.89025   0.00000  Uiso   1.00
O1697  O     0.33171   0.67663   0.93632   0.00000  Uiso   1.00
O1698  O     0.41053   0.69108   0.95195   0.00000  Uiso   1.00
O1699  O     0.00259   0.61552   0.86644   0.00000  Uiso   1.00
O1700  O     0.04253   0.54471   0.85477   0.00000  Uiso   1.00
O1701  O     0.03921   0.57884   0.93439   0.00000  Uiso   1.00
O1702  O     0.04581   0.70419   0.79513   0.00000  Uiso   1.00
O1703  O     0.37711   0.76986   0.76226   0.00000  Uiso   1.00
O1704  O     0.33040   0.82959   0.73446   0.00000  Uiso   1.00
O1705  O     0.40686   0.82616   0.70402   0.00000  Uiso   1.00
O1706  O     0.43239   0.87891   0.92637   0.00000  Uiso   1.00
O1707  O     0.36169   0.87168   0.95725   0.00000  Uiso   1.00
O1708  O     0.40605   0.79733   0.94600   0.00000  Uiso   1.00
O1709  O     0.13263   0.73572   0.78778   0.00000  Uiso   1.00
O1710  O     0.17778   0.68341   0.74405   0.00000  Uiso   1.00
O1711  O     0.10175   0.69844   0.71732   0.00000  Uiso   1.00
O1712  O     0.23320   0.85918   0.77856   0.00000  Uiso   1.00
O1713  O     0.45420   0.70419   0.79513   0.00000  Uiso   1.00
O1714  O     0.18152   0.80839   0.74715   0.00000  Uiso   1.00
O1715  O     0.19001   0.88652   0.71007   0.00000  Uiso   1.00
O1716  O     0.37596   0.51782   0.89912   0.00000  Uiso   1.00
O1717  O     0.41360   0.57658   0.93973   0.00000  Uiso   1.00
O1718  O     0.33365   0.56855   0.95540   0.00000  Uiso   1.00
O1719  O     0.29142   0.63763   0.75762   0.00000  Uiso   1.00
O1720  O     0.35491   0.65110   0.71385   0.00000  Uiso   1.00
O1721  O     0.32853   0.56793   0.71701   0.00000  Uiso   1.00
O1722  O     0.11848   0.98198   0.89025   0.00000  Uiso   1.00
O1723  O     0.08171   0.92665   0.93631   0.00000  Uiso   1.00
O1724  O     0.04581   0.79581   0.87154   0.00000  Uiso   1.00
O1725  O     0.16052   0.94108   0.95195   0.00000  Uiso   1.00
O1726  O     0.25259   0.86551   0.86644   0.00000  Uiso   1.00
O1727  O     0.29253   0.79471   0.85477   0.00000  Uiso   1.00
O1728  O     0.28921   0.82884   0.93439   0.00000  Uiso   1.00
O1729  O     0.12711   0.51986   0.76225   0.00000  Uiso   1.00
O1730  O     0.08040   0.57959   0.73446   0.00000  Uiso   1.00
O1731  O     0.15686   0.57616   0.70402   0.00000  Uiso   1.00
O1732  O     0.18239   0.62891   0.92637   0.00000  Uiso   1.00
O1733  O     0.11169   0.62168   0.95725   0.00000  Uiso   1.00
O1734  O     0.15605   0.54733   0.94600   0.00000  Uiso   1.00
O1735  O     0.04581   0.79581   0.79513   0.00000  Uiso   1.00
O1736  O     0.38263   0.98572   0.78777   0.00000  Uiso   1.00
O1737  O     0.42778   0.93340   0.74405   0.00000  Uiso   1.00
O1738  O     0.35175   0.94843   0.71732   0.00000  Uiso   1.00
O1739  O     0.45420   0.70419   0.87154   0.00000  Uiso   1.00
O1740  O     0.29581   0.95419   0.87154   0.00000  Uiso   1.00
S1741  S     0.44061   0.60736   0.75792   0.00000  Uiso   1.00
S1742  S     0.37290   0.56563   0.91747   0.00000  Uiso   1.00
S1743  S     0.33362   0.61777   0.74422   0.00000  Uiso   1.00
S1744  S     0.12296   0.93708   0.91356   0.00000  Uiso   1.00
S1745  S     0.29135   0.83953   0.87948   0.00000  Uiso   1.00
S1746  S     0.12473   0.56889   0.74812   0.00000  Uiso   1.00
S1747  S     0.14413   0.59947   0.92676   0.00000  Uiso   1.00
S1748  S     0.38354   0.94221   0.76095   0.00000  Uiso   1.00
S1749  S     0.12290   0.81565   0.91747   0.00000  Uiso   1.00
S1750  S     0.08362   0.86777   0.74422   0.00000  Uiso   1.00
S1751  S     0.37296   0.68707   0.91356   0.00000  Uiso   1.00
S1752  S     0.04135   0.58953   0.87948   0.00000  Uiso   1.00
S1753  S     0.37473   0.81889   0.74812   0.00000  Uiso   1.00
S1754  S     0.39413   0.84947   0.92676   0.00000  Uiso   1.00
S1755  S     0.13355   0.69221   0.76095   0.00000  Uiso   1.00
S1756  S     0.19061   0.85736   0.75792   0.00000  Uiso   1.00
Zn1757 Zn    0.00000   0.75000   0.88437   0.00000  Uiso   1.00
Zn1758 Zn    0.00000   0.75000   0.78229   0.00000  Uiso   1.00
Zn1759 Zn    0.25000   0.50000   0.88437   0.00000  Uiso   1.00
Zn1760 Zn    0.25000   0.50000   0.78229   0.00000  Uiso   1.00
C1761  C     0.55879   0.68894   0.83279   0.00000  Uiso   1.00
C1762  C     0.50593   0.71052   0.97592   0.00000  Uiso   1.00
C1763  C     0.50751   0.71082   0.68966   0.00000  Uiso   1.00
C1764  C     0.99607   0.78977   0.97677   0.00000  Uiso   1.00
C1765  C     0.74475   0.53960   0.69058   0.00000  Uiso   1.00
C1766  C     0.75593   0.96052   0.97592   0.00000  Uiso   1.00
C1767  C     0.75751   0.96082   0.68966   0.00000  Uiso   1.00
C1768  C     0.74607   0.53977   0.97677   0.00000  Uiso   1.00
C1769  C     0.90122   0.62877   0.79528   0.00000  Uiso   1.00
C1770  C     0.61336   0.85460   0.87377   0.00000  Uiso   1.00
C1771  C     0.61235   0.85883   0.79318   0.00000  Uiso   1.00
C1772  C     0.93859   0.80860   0.83376   0.00000  Uiso   1.00
C1773  C     0.88636   0.64437   0.87341   0.00000  Uiso   1.00
C1774  C     0.58778   0.61933   0.86514   0.00000  Uiso   1.00
C1775  C     0.88879   0.85566   0.79252   0.00000  Uiso   1.00
C1776  C     0.87544   0.84663   0.87190   0.00000  Uiso   1.00
C1777  C     0.61694   0.64657   0.79518   0.00000  Uiso   1.00
C1778  C     0.65121   0.87877   0.79528   0.00000  Uiso   1.00
C1779  C     0.86336   0.60460   0.87377   0.00000  Uiso   1.00
C1780  C     0.86235   0.60883   0.79318   0.00000  Uiso   1.00
C1781  C     0.63635   0.89437   0.87341   0.00000  Uiso   1.00
C1782  C     0.83778   0.86933   0.86514   0.00000  Uiso   1.00
C1783  C     0.94088   0.68916   0.83352   0.00000  Uiso   1.00
C1784  C     0.63880   0.60566   0.79252   0.00000  Uiso   1.00
C1785  C     0.62544   0.59663   0.87190   0.00000  Uiso   1.00
C1786  C     0.86694   0.89657   0.79518   0.00000  Uiso   1.00
C1787  C     0.59517   0.84134   0.83318   0.00000  Uiso   1.00
C1788  C     0.90976   0.65365   0.83423   0.00000  Uiso   1.00
C1789  C     0.90099   0.83717   0.83354   0.00000  Uiso   1.00
C1790  C     0.58811   0.65169   0.83102   0.00000  Uiso   1.00
C1791  C     0.84517   0.59133   0.83318   0.00000  Uiso   1.00
C1792  C     0.65976   0.90365   0.83423   0.00000  Uiso   1.00
C1793  C     0.65099   0.58717   0.83354   0.00000  Uiso   1.00
C1794  C     0.56030   0.80974   0.83318   0.00000  Uiso   1.00
C1795  C     0.83811   0.90169   0.83102   0.00000  Uiso   1.00
C1796  C     0.80879   0.93894   0.83279   0.00000  Uiso   1.00
C1797  C     0.68859   0.55860   0.83376   0.00000  Uiso   1.00
C1798  C     0.69088   0.93916   0.83352   0.00000  Uiso   1.00
C1799  C     0.81030   0.55974   0.83318   0.00000  Uiso   1.00
C1800  C     0.99475   0.78960   0.69058   0.00000  Uiso   1.00
H1801  H     0.99587   0.82657   0.74300   0.00000  Uiso   1.00
H1802  H     0.58668   0.84861   0.97005   0.00000  Uiso   1.00
H1803  H     0.60766   0.80698   0.71077   0.00000  Uiso   1.00
H1804  H     0.90990   0.66158   0.96763   0.00000  Uiso   1.00
H1805  H     0.51284   0.56174   0.93908   0.00000  Uiso   1.00
H1806  H     0.90690   0.85941   0.69886   0.00000  Uiso   1.00
H1807  H     0.87972   0.78650   0.96031   0.00000  Uiso   1.00
H1808  H     0.60322   0.66876   0.70142   0.00000  Uiso   1.00
H1809  H     0.68260   0.91831   0.71877   0.00000  Uiso   1.00
H1810  H     0.83670   0.59860   0.97006   0.00000  Uiso   1.00
H1811  H     0.85766   0.55697   0.71079   0.00000  Uiso   1.00
H1812  H     0.99860   0.67269   0.92504   0.00000  Uiso   1.00
H1813  H     0.65985   0.91161   0.96767   0.00000  Uiso   1.00
H1814  H     0.76290   0.81164   0.93906   0.00000  Uiso   1.00
H1815  H     0.65690   0.60941   0.69885   0.00000  Uiso   1.00
H1816  H     0.62973   0.53650   0.96031   0.00000  Uiso   1.00
H1817  H     0.85322   0.91876   0.70142   0.00000  Uiso   1.00
H1818  H     0.50791   0.67370   0.74078   0.00000  Uiso   1.00
H1819  H     0.99986   0.82709   0.92455   0.00000  Uiso   1.00
H1820  H     0.74587   0.57657   0.74300   0.00000  Uiso   1.00
H1821  H     0.74860   0.92269   0.92504   0.00000  Uiso   1.00
H1822  H     0.75791   0.92370   0.74078   0.00000  Uiso   1.00
H1823  H     0.74986   0.57709   0.92455   0.00000  Uiso   1.00
H1824  H     0.93260   0.66832   0.71877   0.00000  Uiso   1.00
N1825  N     0.50000   0.75000   0.95240   0.00000  Uiso   1.00
N1826  N     0.50000   0.75000   0.71427   0.00000  Uiso   1.00
N1827  N     0.75000   0.50000   0.95240   0.00000  Uiso   1.00
N1828  N     0.75000   0.50000   0.71427   0.00000  Uiso   1.00
O1829  O     0.54581   0.70419   0.87154   0.00000  Uiso   1.00
O1830  O     0.70420   0.54581   0.79513   0.00000  Uiso   1.00
O1831  O     0.70420   0.54581   0.87154   0.00000  Uiso   1.00
O1832  O     0.79581   0.95419   0.79513   0.00000  Uiso   1.00
O1833  O     0.70420   0.95419   0.79513   0.00000  Uiso   1.00
O1834  O     0.79581   0.54581   0.87154   0.00000  Uiso   1.00
O1835  O     0.79581   0.54581   0.79513   0.00000  Uiso   1.00
O1836  O     0.70420   0.95419   0.87154   0.00000  Uiso   1.00
O1837  O     0.99017   0.83113   0.71146   0.00000  Uiso   1.00
O1838  O     0.51028   0.66913   0.95480   0.00000  Uiso   1.00
O1839  O     0.51707   0.67035   0.70966   0.00000  Uiso   1.00
O1840  O     0.95420   0.79581   0.79513   0.00000  Uiso   1.00
O1841  O     0.99544   0.83162   0.95670   0.00000  Uiso   1.00
O1842  O     0.74017   0.58113   0.71146   0.00000  Uiso   1.00
O1843  O     0.76028   0.91913   0.95480   0.00000  Uiso   1.00
O1844  O     0.76707   0.92035   0.70966   0.00000  Uiso   1.00
O1845  O     0.74544   0.58162   0.95670   0.00000  Uiso   1.00
O1846  O     0.98320   0.60918   0.77856   0.00000  Uiso   1.00
O1847  O     0.93152   0.55840   0.74714   0.00000  Uiso   1.00
O1848  O     0.94001   0.63653   0.71007   0.00000  Uiso   1.00
O1849  O     0.62596   0.76783   0.89913   0.00000  Uiso   1.00
O1850  O     0.66359   0.82660   0.93974   0.00000  Uiso   1.00
O1851  O     0.95420   0.79581   0.87154   0.00000  Uiso   1.00
O1852  O     0.58364   0.81856   0.95540   0.00000  Uiso   1.00
O1853  O     0.54142   0.88763   0.75762   0.00000  Uiso   1.00
O1854  O     0.60491   0.90110   0.71385   0.00000  Uiso   1.00
O1855  O     0.57854   0.81793   0.71701   0.00000  Uiso   1.00
O1856  O     0.86847   0.73197   0.89025   0.00000  Uiso   1.00
O1857  O     0.83171   0.67663   0.93632   0.00000  Uiso   1.00
O1858  O     0.91053   0.69108   0.95195   0.00000  Uiso   1.00
O1859  O     0.50259   0.61552   0.86644   0.00000  Uiso   1.00
O1860  O     0.54253   0.54471   0.85477   0.00000  Uiso   1.00
O1861  O     0.53921   0.57884   0.93439   0.00000  Uiso   1.00
O1862  O     0.54581   0.70419   0.79513   0.00000  Uiso   1.00
O1863  O     0.87711   0.76986   0.76226   0.00000  Uiso   1.00
O1864  O     0.83040   0.82959   0.73446   0.00000  Uiso   1.00
O1865  O     0.90686   0.82616   0.70402   0.00000  Uiso   1.00
O1866  O     0.93239   0.87891   0.92637   0.00000  Uiso   1.00
O1867  O     0.86169   0.87168   0.95725   0.00000  Uiso   1.00
O1868  O     0.90605   0.79733   0.94600   0.00000  Uiso   1.00
O1869  O     0.63263   0.73572   0.78778   0.00000  Uiso   1.00
O1870  O     0.67778   0.68341   0.74405   0.00000  Uiso   1.00
O1871  O     0.60175   0.69844   0.71732   0.00000  Uiso   1.00
O1872  O     0.73320   0.85918   0.77856   0.00000  Uiso   1.00
O1873  O     0.95420   0.70419   0.79513   0.00000  Uiso   1.00
O1874  O     0.68152   0.80839   0.74715   0.00000  Uiso   1.00
O1875  O     0.69001   0.88652   0.71007   0.00000  Uiso   1.00
O1876  O     0.87596   0.51782   0.89912   0.00000  Uiso   1.00
O1877  O     0.91360   0.57658   0.93973   0.00000  Uiso   1.00
O1878  O     0.83365   0.56855   0.95540   0.00000  Uiso   1.00
O1879  O     0.79142   0.63763   0.75762   0.00000  Uiso   1.00
O1880  O     0.85491   0.65110   0.71385   0.00000  Uiso   1.00
O1881  O     0.82853   0.56793   0.71701   0.00000  Uiso   1.00
O1882  O     0.61848   0.98198   0.89025   0.00000  Uiso   1.00
O1883  O     0.58171   0.92665   0.93631   0.00000  Uiso   1.00
O1884  O     0.54581   0.79581   0.87154   0.00000  Uiso   1.00
O1885  O     0.66052   0.94108   0.95195   0.00000  Uiso   1.00
O1886  O     0.75259   0.86551   0.86644   0.00000  Uiso   1.00
O1887  O     0.79253   0.79471   0.85477   0.00000  Uiso   1.00
O1888  O     0.78921   0.82884   0.93439   0.00000  Uiso   1.00
O1889  O     0.62711   0.51986   0.76225   0.00000  Uiso   1.00
O1890  O     0.58040   0.57959   0.73446   0.00000  Uiso   1.00
O1891  O     0.65686   0.57616   0.70402   0.00000  Uiso   1.00
O1892  O     0.68239   0.62891   0.92637   0.00000  Uiso   1.00
O1893  O     0.61169   0.62168   0.95725   0.00000  Uiso   1.00
O1894  O     0.65605   0.54733   0.94600   0.00000  Uiso   1.00
O1895  O     0.54581   0.79581   0.79513   0.00000  Uiso   1.00
O1896  O     0.88263   0.98572   0.78777   0.00000  Uiso   1.00
O1897  O     0.92778   0.93340   0.74405   0.00000  Uiso   1.00
O1898  O     0.85175   0.94843   0.71732   0.00000  Uiso   1.00
O1899  O     0.95420   0.70419   0.87154   0.00000  Uiso   1.00
O1900  O     0.79581   0.95419   0.87154   0.00000  Uiso   1.00
S1901  S     0.94061   0.60736   0.75792   0.00000  Uiso   1.00
S1902  S     0.87290   0.56563   0.91747   0.00000  Uiso   1.00
S1903  S     0.83362   0.61777   0.74422   0.00000  Uiso   1.00
S1904  S     0.62296   0.93708   0.91356   0.00000  Uiso   1.00
S1905  S     0.79135   0.83953   0.87948   0.00000  Uiso   1.00
S1906  S     0.62473   0.56889   0.74812   0.00000  Uiso   1.00
S1907  S     0.64413   0.59947   0.92676   0.00000  Uiso   1.00
S1908  S     0.88354   0.94221   0.76095   0.00000  Uiso   1.00
S1909  S     0.62290   0.81565   0.91747   0.00000  Uiso   1.00
S1910  S     0.58362   0.86777   0.74422   0.00000  Uiso   1.00
S1911  S     0.87296   0.68707   0.91356   0.00000  Uiso   1.00
S1912  S     0.54135   0.58953   0.87948   0.00000  Uiso   1.00
S1913  S     0.87473   0.81889   0.74812   0.00000  Uiso   1.00
S1914  S     0.89413   0.84947   0.92676   0.00000  Uiso   1.00
S1915  S     0.63355   0.69221   0.76095   0.00000  Uiso   1.00
S1916  S     0.69061   0.85736   0.75792   0.00000  Uiso   1.00
Zn1917 Zn    0.50000   0.75000   0.88437   0.00000  Uiso   1.00
Zn1918 Zn    0.50000   0.75000   0.78229   0.00000  Uiso   1.00
Zn1919 Zn    0.75000   0.50000   0.88437   0.00000  Uiso   1.00
Zn1920 Zn    0.75000   0.50000   0.78229   0.00000  Uiso   1.00
loop_
_geom_bond_atom_site_label_1
_geom_bond_atom_site_label_2
_geom_bond_distance
_geom_bond_site_symmetry_2
_ccdc_geom_bond_type
C1     O69     1.301   .     A
C1     C30     1.426   .     S
C1     O102    1.292   .     A
C2     O78     1.369   .     S
C2     C643    1.415   .     S
C2     N65     1.374   .     S
C3     O79     1.367   .     S
C3     C1282   1.415   1_554 S
C3     N66     1.376   .     S
C4     N225    1.374   .     A
C4     O81     1.372   .     S
C4     C680    1.415   .     S
C5     N68     1.377   .     A
C5     O82     1.370   .     S
C5     C1288   1.415   1_554 S
C6     O83     1.369   .     S
C6     C647    1.415   .     S
C6     N387    1.374   .     S
C7     O84     1.367   .     S
C7     C1286   1.415   1_554 S
C7     N388    1.376   .     S
C8     O85     1.372   .     S
C8     N67     1.374   .     A
C8     C645    1.415   .     S
C9     S141    1.770   .     S
C9     C20     1.376   .     A
C9     C28     1.406   .     A
C10    C27     1.412   .     A
C10    C21     1.384   .     A
C10    S149    1.774   .     S
C11    C18     1.376   .     A
C11    S150    1.764   .     S
C11    C27     1.413   .     A
C12    C29     1.450   .     S
C12    O91     1.302   .     A
C12    O80     1.303   .     A
C13    C28     1.410   .     A
C13    C19     1.384   .     A
C13    S151    1.773   .     S
C14    C30     1.402   .     A
C14    C25     1.380   .     A
C14    S152    1.773   .     S
C15    C29     1.408   .     A
C15    S153    1.775   .     S
C15    C26     1.379   .     A
C16    C29     1.420   .     A
C16    C22     1.380   .     A
C16    S154    1.762   .     S
C17    C30     1.405   .     A
C17    C24     1.379   .     A
C17    S155    1.774   .     S
C18    C32     1.406   .     A
C18    S156    1.770   .     S
C19    C31     1.412   .     A
C19    S142    1.774   .     S
C20    S143    1.764   .     S
C20    C31     1.413   .     A
C21    C32     1.410   .     A
C21    S144    1.773   .     S
C22    S145    1.773   .     S
C22    C35     1.402   .     A
C23    O139    1.300   .     A
C23    O113    1.303   .     A
C23    C28     1.445   .     S
C24    C33     1.408   .     A
C24    S146    1.775   .     S
C25    S147    1.762   .     S
C25    C33     1.420   .     A
C26    S148    1.774   .     S
C26    C35     1.405   .     A
C27    C34     1.454   .     S
C31    C39     1.454   .     S
C32    C38     1.445   .     S
C33    C37     1.450   .     S
C34    O124    1.303   .     A
C34    O135    1.304   .     A
C35    C36     1.426   .     S
C36    O140    1.301   .     A
C36    O72     1.292   .     A
C37    O70     1.303   .     A
C37    O71     1.302   .     A
C38    O76     1.300   .     A
C38    O73     1.303   .     A
C39    O74     1.303   .     A
C39    O75     1.304   .     A
C40    N226    1.377   .     A
C40    O77     1.370   .     S
C40    C1284   1.415   1_554 S
H41    O77     0.977   .     S
H42    O92     0.988   .     S
H43    O95     0.989   .     S
H44    O98     0.988   .     S
H45    O101    0.991   .     S
H46    O105    0.988   .     S
H47    O108    0.990   .     S
H48    O111    0.989   .     S
H49    O115    0.990   .     S
H50    O118    0.988   .     S
H51    O121    0.989   .     S
H52    O238    0.980   .     S
H53    O125    0.988   .     S
H54    O128    0.991   .     S
H55    O131    0.988   .     S
H56    O134    0.990   .     S
H57    O138    0.989   .     S
H58    O79     0.977   .     S
H59    O81     0.980   .     S
H60    O82     0.977   .     S
H61    O83     0.980   .     S
H62    O84     0.977   .     S
H63    O85     0.980   .     S
H64    O88     0.990   .     S
N65    C164    1.374   1_455 A
N65    Zn157   2.042   .     S
N66    C200    1.377   1_455 A
N66    Zn158   2.042   .     S
N67    Zn159   2.042   .     S
N67    C326    1.374   1_545 S
N68    Zn160   2.042   .     S
N68    C327    1.376   1_545 S
O69    Zn157   1.997   .     S
O70    Zn160   1.997   .     S
O71    Zn159   2.012   .     S
O72    Zn480   2.012   .     S
O73    Zn480   2.028   .     S
O74    Zn159   2.028   .     S
O75    Zn160   2.034   .     S
O76    Zn479   2.034   .     S
O78    H212    0.980   1_455 S
O80    Zn318   1.997   .     S
O86    S141    1.500   .     D
O87    S141    1.502   .     D
O88    S141    1.678   .     S
O89    S149    1.503   .     D
O90    S149    1.504   .     D
O91    Zn317   2.012   .     S
O92    S149    1.674   .     S
O93    S150    1.501   .     D
O94    S150    1.501   .     D
O95    S150    1.679   .     S
O96    S151    1.502   .     D
O97    S151    1.503   .     D
O98    S151    1.679   .     S
O99    S152    1.499   .     D
O100   S152    1.503   .     D
O101   S152    1.681   .     S
O102   Zn158   2.012   .     S
O103   S153    1.503   .     D
O104   S153    1.504   .     D
O105   S153    1.673   .     S
O106   S154    1.500   .     D
O107   S154    1.504   .     D
O108   S154    1.680   .     S
O109   S155    1.503   .     D
O110   S155    1.503   .     D
O111   S155    1.678   .     S
O112   S156    1.500   .     D
O113   Zn318   2.028   .     S
O114   S156    1.502   .     D
O115   S156    1.678   .     S
O116   S142    1.503   .     D
O117   S142    1.504   .     D
O118   S142    1.674   .     S
O119   S143    1.501   .     D
O120   S143    1.501   .     D
O121   S143    1.679   .     S
O122   S144    1.502   .     D
O123   S144    1.503   .     D
O124   Zn157   2.028   .     S
O125   S144    1.679   .     S
O126   S145    1.499   .     D
O127   S145    1.503   .     D
O128   S145    1.681   .     S
O129   S146    1.504   .     D
O130   S146    1.504   .     D
O131   S146    1.673   .     S
O132   S147    1.500   .     D
O133   S147    1.504   .     D
O134   S147    1.680   .     S
O135   Zn158   2.034   .     S
O136   S148    1.503   .     D
O137   S148    1.503   .     D
O138   S148    1.678   .     S
O139   Zn317   2.034   .     S
O140   Zn479   1.997   .     S
Zn157  O299    2.034   1_455 S
Zn157  O251    2.012   1_455 S
Zn158  O273    2.028   1_455 S
Zn158  O240    1.997   1_455 S
Zn159  O396    2.034   1_545 S
Zn159  O460    1.997   1_545 S
Zn160  O393    2.028   1_545 S
Zn160  O392    2.012   1_545 S
C161   O229    1.301   .     A
C161   C190    1.426   .     S
C161   O262    1.292   .     A
C162   O238    1.369   .     S
C162   C803    1.415   .     S
C162   N225    1.374   .     S
C163   O239    1.367   .     S
C163   C1442   1.415   1_554 S
C163   N226    1.376   .     S
C164   N65     1.374   1_655 A
C164   O241    1.372   .     S
C164   C840    1.415   .     S
C165   N228    1.377   .     A
C165   O242    1.370   .     S
C165   C1448   1.415   1_554 S
C166   O243    1.369   .     S
C166   C807    1.415   .     S
C166   N547    1.374   .     S
C167   O244    1.367   .     S
C167   C1446   1.415   1_554 S
C167   N548    1.376   .     S
C168   O245    1.372   .     S
C168   N227    1.374   .     A
C168   C805    1.415   .     S
C169   S301    1.770   .     S
C169   C180    1.376   .     A
C169   C188    1.406   .     A
C170   C187    1.412   .     A
C170   C181    1.384   .     A
C170   S309    1.774   .     S
C171   C178    1.376   .     A
C171   S310    1.764   .     S
C171   C187    1.413   .     A
C172   C189    1.450   .     S
C172   O251    1.302   .     A
C172   O240    1.303   .     A
C173   C188    1.410   .     A
C173   C179    1.384   .     A
C173   S311    1.773   .     S
C174   C190    1.402   .     A
C174   C185    1.380   .     A
C174   S312    1.773   .     S
C175   C189    1.408   .     A
C175   S313    1.775   .     S
C175   C186    1.379   .     A
C176   C189    1.420   .     A
C176   C182    1.380   .     A
C176   S314    1.762   .     S
C177   C190    1.405   .     A
C177   C184    1.379   .     A
C177   S315    1.774   .     S
C178   C192    1.406   .     A
C178   S316    1.770   .     S
C179   C191    1.412   .     A
C179   S302    1.774   .     S
C180   S303    1.764   .     S
C180   C191    1.413   .     A
C181   C192    1.410   .     A
C181   S304    1.773   .     S
C182   S305    1.773   .     S
C182   C195    1.402   .     A
C183   O299    1.300   .     A
C183   O273    1.303   .     A
C183   C188    1.445   .     S
C184   C193    1.408   .     A
C184   S306    1.775   .     S
C185   S307    1.762   .     S
C185   C193    1.420   .     A
C186   S308    1.774   .     S
C186   C195    1.405   .     A
C187   C194    1.454   .     S
C191   C199    1.454   .     S
C192   C198    1.445   .     S
C193   C197    1.450   .     S
C194   O284    1.303   .     A
C194   O295    1.304   .     A
C195   C196    1.426   .     S
C196   O300    1.301   .     A
C196   O232    1.292   .     A
C197   O230    1.303   .     A
C197   O231    1.302   .     A
C198   O236    1.300   .     A
C198   O233    1.303   .     A
C199   O234    1.303   .     A
C199   O235    1.304   .     A
C200   N66     1.377   1_655 A
C200   O237    1.370   .     S
C200   C1444   1.415   1_554 S
H201   O237    0.977   .     S
H202   O252    0.988   .     S
H203   O255    0.989   .     S
H204   O258    0.988   .     S
H205   O261    0.991   .     S
H206   O265    0.988   .     S
H207   O268    0.990   .     S
H208   O271    0.989   .     S
H209   O275    0.990   .     S
H210   O278    0.988   .     S
H211   O281    0.989   .     S
H212   O78     0.980   1_655 S
H213   O285    0.988   .     S
H214   O288    0.991   .     S
H215   O291    0.988   .     S
H216   O294    0.990   .     S
H217   O298    0.989   .     S
H218   O239    0.977   .     S
H219   O241    0.980   .     S
H220   O242    0.977   .     S
H221   O243    0.980   .     S
H222   O244    0.977   .     S
H223   O245    0.980   .     S
H224   O248    0.990   .     S
N225   Zn317   2.042   .     S
N226   Zn318   2.042   .     S
N227   Zn319   2.042   .     S
N227   C486    1.374   1_545 S
N228   Zn320   2.042   .     S
N228   C487    1.376   1_545 S
O229   Zn317   1.997   .     S
O230   Zn320   1.997   .     S
O231   Zn319   2.012   .     S
O232   Zn640   2.012   .     S
O233   Zn640   2.028   .     S
O234   Zn319   2.028   .     S
O235   Zn320   2.034   .     S
O236   Zn639   2.034   .     S
O240   Zn158   1.997   1_655 S
O246   S301    1.500   .     D
O247   S301    1.502   .     D
O248   S301    1.678   .     S
O249   S309    1.503   .     D
O250   S309    1.504   .     D
O251   Zn157   2.012   1_655 S
O252   S309    1.674   .     S
O253   S310    1.501   .     D
O254   S310    1.501   .     D
O255   S310    1.679   .     S
O256   S311    1.502   .     D
O257   S311    1.503   .     D
O258   S311    1.679   .     S
O259   S312    1.499   .     D
O260   S312    1.503   .     D
O261   S312    1.681   .     S
O262   Zn318   2.012   .     S
O263   S313    1.503   .     D
O264   S313    1.504   .     D
O265   S313    1.673   .     S
O266   S314    1.500   .     D
O267   S314    1.504   .     D
O268   S314    1.680   .     S
O269   S315    1.503   .     D
O270   S315    1.503   .     D
O271   S315    1.678   .     S
O272   S316    1.500   .     D
O273   Zn158   2.028   1_655 S
O274   S316    1.502   .     D
O275   S316    1.678   .     S
O276   S302    1.503   .     D
O277   S302    1.504   .     D
O278   S302    1.674   .     S
O279   S303    1.501   .     D
O280   S303    1.501   .     D
O281   S303    1.679   .     S
O282   S304    1.502   .     D
O283   S304    1.503   .     D
O284   Zn317   2.028   .     S
O285   S304    1.679   .     S
O286   S305    1.499   .     D
O287   S305    1.503   .     D
O288   S305    1.681   .     S
O289   S306    1.504   .     D
O290   S306    1.504   .     D
O291   S306    1.673   .     S
O292   S307    1.500   .     D
O293   S307    1.504   .     D
O294   S307    1.680   .     S
O295   Zn318   2.034   .     S
O296   S308    1.503   .     D
O297   S308    1.503   .     D
O298   S308    1.678   .     S
O299   Zn157   2.034   1_655 S
O300   Zn639   1.997   .     S
Zn319  O556    2.034   1_545 S
Zn319  O620    1.997   1_545 S
Zn320  O553    2.028   1_545 S
Zn320  O552    2.012   1_545 S
C321   O389    1.301   .     A
C321   C350    1.426   .     S
C321   O422    1.292   .     A
C322   O398    1.369   .     S
C322   C963    1.415   .     S
C322   N385    1.374   .     S
C323   O399    1.367   .     S
C323   C1602   1.415   1_554 S
C323   N386    1.376   .     S
C324   N545    1.374   .     A
C324   O401    1.372   .     S
C324   C1000   1.415   .     S
C325   N388    1.377   .     A
C325   O402    1.370   .     S
C325   C1608   1.415   1_554 S
C326   O403    1.369   .     S
C326   C967    1.415   .     S
C326   N67     1.374   1_565 S
C327   O404    1.367   .     S
C327   C1606   1.415   1_554 S
C327   N68     1.376   1_565 S
C328   O405    1.372   .     S
C328   N387    1.374   .     A
C328   C965    1.415   .     S
C329   S461    1.770   .     S
C329   C340    1.376   .     A
C329   C348    1.406   .     A
C330   C347    1.412   .     A
C330   C341    1.384   .     A
C330   S469    1.774   .     S
C331   C338    1.376   .     A
C331   S470    1.764   .     S
C331   C347    1.413   .     A
C332   C349    1.450   .     S
C332   O411    1.302   .     A
C332   O400    1.303   .     A
C333   C348    1.410   .     A
C333   C339    1.384   .     A
C333   S471    1.773   .     S
C334   C350    1.402   .     A
C334   C345    1.380   .     A
C334   S472    1.773   .     S
C335   C349    1.408   .     A
C335   S473    1.775   .     S
C335   C346    1.379   .     A
C336   C349    1.420   .     A
C336   C342    1.380   .     A
C336   S474    1.762   .     S
C337   C350    1.405   .     A
C337   C344    1.379   .     A
C337   S475    1.774   .     S
C338   C352    1.406   .     A
C338   S476    1.770   .     S
C339   C351    1.412   .     A
C339   S462    1.774   .     S
C340   S463    1.764   .     S
C340   C351    1.413   .     A
C341   C352    1.410   .     A
C341   S464    1.773   .     S
C342   S465    1.773   .     S
C342   C355    1.402   .     A
C343   O459    1.300   .     A
C343   O433    1.303   .     A
C343   C348    1.445   .     S
C344   C353    1.408   .     A
C344   S466    1.775   .     S
C345   S467    1.762   .     S
C345   C353    1.420   .     A
C346   S468    1.774   .     S
C346   C355    1.405   .     A
C347   C354    1.454   .     S
C351   C359    1.454   .     S
C352   C358    1.445   .     S
C353   C357    1.450   .     S
C354   O444    1.303   .     A
C354   O455    1.304   .     A
C355   C356    1.426   .     S
C356   O460    1.301   .     A
C356   O392    1.292   .     A
C357   O390    1.303   .     A
C357   O391    1.302   .     A
C358   O396    1.300   .     A
C358   O393    1.303   .     A
C359   O394    1.303   .     A
C359   O395    1.304   .     A
C360   N546    1.377   .     A
C360   O397    1.370   .     S
C360   C1604   1.415   1_554 S
H361   O397    0.977   .     S
H362   O412    0.988   .     S
H363   O415    0.989   .     S
H364   O418    0.988   .     S
H365   O421    0.991   .     S
H366   O425    0.988   .     S
H367   O428    0.990   .     S
H368   O431    0.989   .     S
H369   O435    0.990   .     S
H370   O438    0.988   .     S
H371   O441    0.989   .     S
H372   O558    0.980   .     S
H373   O445    0.988   .     S
H374   O448    0.991   .     S
H375   O451    0.988   .     S
H376   O454    0.990   .     S
H377   O458    0.989   .     S
H378   O399    0.977   .     S
H379   O401    0.980   .     S
H380   O402    0.977   .     S
H381   O403    0.980   .     S
H382   O404    0.977   .     S
H383   O405    0.980   .     S
H384   O408    0.990   .     S
N385   C484    1.374   1_455 A
N385   Zn477   2.042   .     S
N386   C520    1.377   1_455 A
N386   Zn478   2.042   .     S
N387   Zn479   2.042   .     S
N388   Zn480   2.042   .     S
O389   Zn477   1.997   .     S
O390   Zn480   1.997   .     S
O391   Zn479   2.012   .     S
O392   Zn160   2.012   1_565 S
O393   Zn160   2.028   1_565 S
O394   Zn479   2.028   .     S
O395   Zn480   2.034   .     S
O396   Zn159   2.034   1_565 S
O398   H532    0.980   1_455 S
O400   Zn638   1.997   .     S
O406   S461    1.500   .     D
O407   S461    1.502   .     D
O408   S461    1.678   .     S
O409   S469    1.503   .     D
O410   S469    1.504   .     D
O411   Zn637   2.012   .     S
O412   S469    1.674   .     S
O413   S470    1.501   .     D
O414   S470    1.501   .     D
O415   S470    1.679   .     S
O416   S471    1.502   .     D
O417   S471    1.503   .     D
O418   S471    1.679   .     S
O419   S472    1.499   .     D
O420   S472    1.503   .     D
O421   S472    1.681   .     S
O422   Zn478   2.012   .     S
O423   S473    1.503   .     D
O424   S473    1.504   .     D
O425   S473    1.673   .     S
O426   S474    1.500   .     D
O427   S474    1.504   .     D
O428   S474    1.680   .     S
O429   S475    1.503   .     D
O430   S475    1.503   .     D
O431   S475    1.678   .     S
O432   S476    1.500   .     D
O433   Zn638   2.028   .     S
O434   S476    1.502   .     D
O435   S476    1.678   .     S
O436   S462    1.503   .     D
O437   S462    1.504   .     D
O438   S462    1.674   .     S
O439   S463    1.501   .     D
O440   S463    1.501   .     D
O441   S463    1.679   .     S
O442   S464    1.502   .     D
O443   S464    1.503   .     D
O444   Zn477   2.028   .     S
O445   S464    1.679   .     S
O446   S465    1.499   .     D
O447   S465    1.503   .     D
O448   S465    1.681   .     S
O449   S466    1.504   .     D
O450   S466    1.504   .     D
O451   S466    1.673   .     S
O452   S467    1.500   .     D
O453   S467    1.504   .     D
O454   S467    1.680   .     S
O455   Zn478   2.034   .     S
O456   S468    1.503   .     D
O457   S468    1.503   .     D
O458   S468    1.678   .     S
O459   Zn637   2.034   .     S
O460   Zn159   1.997   1_565 S
Zn477  O619    2.034   1_455 S
Zn477  O571    2.012   1_455 S
Zn478  O593    2.028   1_455 S
Zn478  O560    1.997   1_455 S
C481   O549    1.301   .     A
C481   C510    1.426   .     S
C481   O582    1.292   .     A
C482   O558    1.369   .     S
C482   C1123   1.415   .     S
C482   N545    1.374   .     S
C483   O559    1.367   .     S
C483   C1762   1.415   1_554 S
C483   N546    1.376   .     S
C484   N385    1.374   1_655 A
C484   O561    1.372   .     S
C484   C1160   1.415   .     S
C485   N548    1.377   .     A
C485   O562    1.370   .     S
C485   C1768   1.415   1_554 S
C486   O563    1.369   .     S
C486   C1127   1.415   .     S
C486   N227    1.374   1_565 S
C487   O564    1.367   .     S
C487   C1766   1.415   1_554 S
C487   N228    1.376   1_565 S
C488   O565    1.372   .     S
C488   N547    1.374   .     A
C488   C1125   1.415   .     S
C489   S621    1.770   .     S
C489   C500    1.376   .     A
C489   C508    1.406   .     A
C490   C507    1.412   .     A
C490   C501    1.384   .     A
C490   S629    1.774   .     S
C491   C498    1.376   .     A
C491   S630    1.764   .     S
C491   C507    1.413   .     A
C492   C509    1.450   .     S
C492   O571    1.302   .     A
C492   O560    1.303   .     A
C493   C508    1.410   .     A
C493   C499    1.384   .     A
C493   S631    1.773   .     S
C494   C510    1.402   .     A
C494   C505    1.380   .     A
C494   S632    1.773   .     S
C495   C509    1.408   .     A
C495   S633    1.775   .     S
C495   C506    1.379   .     A
C496   C509    1.420   .     A
C496   C502    1.380   .     A
C496   S634    1.762   .     S
C497   C510    1.405   .     A
C497   C504    1.379   .     A
C497   S635    1.774   .     S
C498   C512    1.406   .     A
C498   S636    1.770   .     S
C499   C511    1.412   .     A
C499   S622    1.774   .     S
C500   S623    1.764   .     S
C500   C511    1.413   .     A
C501   C512    1.410   .     A
C501   S624    1.773   .     S
C502   S625    1.773   .     S
C502   C515    1.402   .     A
C503   O619    1.300   .     A
C503   O593    1.303   .     A
C503   C508    1.445   .     S
C504   C513    1.408   .     A
C504   S626    1.775   .     S
C505   S627    1.762   .     S
C505   C513    1.420   .     A
C506   S628    1.774   .     S
C506   C515    1.405   .     A
C507   C514    1.454   .     S
C511   C519    1.454   .     S
C512   C518    1.445   .     S
C513   C517    1.450   .     S
C514   O604    1.303   .     A
C514   O615    1.304   .     A
C515   C516    1.426   .     S
C516   O620    1.301   .     A
C516   O552    1.292   .     A
C517   O550    1.303   .     A
C517   O551    1.302   .     A
C518   O556    1.300   .     A
C518   O553    1.303   .     A
C519   O554    1.303   .     A
C519   O555    1.304   .     A
C520   N386    1.377   1_655 A
C520   O557    1.370   .     S
C520   C1764   1.415   1_554 S
H521   O557    0.977   .     S
H522   O572    0.988   .     S
H523   O575    0.989   .     S
H524   O578    0.988   .     S
H525   O581    0.991   .     S
H526   O585    0.988   .     S
H527   O588    0.990   .     S
H528   O591    0.989   .     S
H529   O595    0.990   .     S
H530   O598    0.988   .     S
H531   O601    0.989   .     S
H532   O398    0.980   1_655 S
H533   O605    0.988   .     S
H534   O608    0.991   .     S
H535   O611    0.988   .     S
H536   O614    0.990   .     S
H537   O618    0.989   .     S
H538   O559    0.977   .     S
H539   O561    0.980   .     S
H540   O562    0.977   .     S
H541   O563    0.980   .     S
H542   O564    0.977   .     S
H543   O565    0.980   .     S
H544   O568    0.990   .     S
N545   Zn637   2.042   .     S
N546   Zn638   2.042   .     S
N547   Zn639   2.042   .     S
N548   Zn640   2.042   .     S
O549   Zn637   1.997   .     S
O550   Zn640   1.997   .     S
O551   Zn639   2.012   .     S
O552   Zn320   2.012   1_565 S
O553   Zn320   2.028   1_565 S
O554   Zn639   2.028   .     S
O555   Zn640   2.034   .     S
O556   Zn319   2.034   1_565 S
O560   Zn478   1.997   1_655 S
O566   S621    1.500   .     D
O567   S621    1.502   .     D
O568   S621    1.678   .     S
O569   S629    1.503   .     D
O570   S629    1.504   .     D
O571   Zn477   2.012   1_655 S
O572   S629    1.674   .     S
O573   S630    1.501   .     D
O574   S630    1.501   .     D
O575   S630    1.679   .     S
O576   S631    1.502   .     D
O577   S631    1.503   .     D
O578   S631    1.679   .     S
O579   S632    1.499   .     D
O580   S632    1.503   .     D
O581   S632    1.681   .     S
O582   Zn638   2.012   .     S
O583   S633    1.503   .     D
O584   S633    1.504   .     D
O585   S633    1.673   .     S
O586   S634    1.500   .     D
O587   S634    1.504   .     D
O588   S634    1.680   .     S
O589   S635    1.503   .     D
O590   S635    1.503   .     D
O591   S635    1.678   .     S
O592   S636    1.500   .     D
O593   Zn478   2.028   1_655 S
O594   S636    1.502   .     D
O595   S636    1.678   .     S
O596   S622    1.503   .     D
O597   S622    1.504   .     D
O598   S622    1.674   .     S
O599   S623    1.501   .     D
O600   S623    1.501   .     D
O601   S623    1.679   .     S
O602   S624    1.502   .     D
O603   S624    1.503   .     D
O604   Zn637   2.028   .     S
O605   S624    1.679   .     S
O606   S625    1.499   .     D
O607   S625    1.503   .     D
O608   S625    1.681   .     S
O609   S626    1.504   .     D
O610   S626    1.504   .     D
O611   S626    1.673   .     S
O612   S627    1.500   .     D
O613   S627    1.504   .     D
O614   S627    1.680   .     S
O615   Zn638   2.034   .     S
O616   S628    1.503   .     D
O617   S628    1.503   .     D
O618   S628    1.678   .     S
O619   Zn477   2.034   1_655 S
O620   Zn319   1.997   1_565 S
C641   O709    1.301   .     A
C641   C670    1.426   .     S
C641   O742    1.292   .     A
C642   O718    1.369   .     S
C642   C1283   1.415   .     S
C642   N705    1.374   .     S
C643   O719    1.367   .     S
C643   N706    1.376   .     S
C644   N865    1.374   .     A
C644   O721    1.372   .     S
C644   C1320   1.415   .     S
C645   N708    1.377   .     A
C645   O722    1.370   .     S
C646   O723    1.369   .     S
C646   C1287   1.415   .     S
C646   N1027   1.374   .     S
C647   O724    1.367   .     S
C647   N1028   1.376   .     S
C648   O725    1.372   .     S
C648   N707    1.374   .     A
C648   C1285   1.415   .     S
C649   S781    1.770   .     S
C649   C660    1.376   .     A
C649   C668    1.406   .     A
C650   C667    1.412   .     A
C650   C661    1.384   .     A
C650   S789    1.774   .     S
C651   C658    1.376   .     A
C651   S790    1.764   .     S
C651   C667    1.413   .     A
C652   C669    1.450   .     S
C652   O731    1.302   .     A
C652   O720    1.303   .     A
C653   C668    1.410   .     A
C653   C659    1.384   .     A
C653   S791    1.773   .     S
C654   C670    1.402   .     A
C654   C665    1.380   .     A
C654   S792    1.773   .     S
C655   C669    1.408   .     A
C655   S793    1.775   .     S
C655   C666    1.379   .     A
C656   C669    1.420   .     A
C656   C662    1.380   .     A
C656   S794    1.762   .     S
C657   C670    1.405   .     A
C657   C664    1.379   .     A
C657   S795    1.774   .     S
C658   C672    1.406   .     A
C658   S796    1.770   .     S
C659   C671    1.412   .     A
C659   S782    1.774   .     S
C660   S783    1.764   .     S
C660   C671    1.413   .     A
C661   C672    1.410   .     A
C661   S784    1.773   .     S
C662   S785    1.773   .     S
C662   C675    1.402   .     A
C663   O779    1.300   .     A
C663   O753    1.303   .     A
C663   C668    1.445   .     S
C664   C673    1.408   .     A
C664   S786    1.775   .     S
C665   S787    1.762   .     S
C665   C673    1.420   .     A
C666   S788    1.774   .     S
C666   C675    1.405   .     A
C667   C674    1.454   .     S
C671   C679    1.454   .     S
C672   C678    1.445   .     S
C673   C677    1.450   .     S
C674   O764    1.303   .     A
C674   O775    1.304   .     A
C675   C676    1.426   .     S
C676   O780    1.301   .     A
C676   O712    1.292   .     A
C677   O710    1.303   .     A
C677   O711    1.302   .     A
C678   O716    1.300   .     A
C678   O713    1.303   .     A
C679   O714    1.303   .     A
C679   O715    1.304   .     A
C680   N866    1.377   .     A
C680   O717    1.370   .     S
H681   O717    0.977   .     S
H682   O732    0.988   .     S
H683   O735    0.989   .     S
H684   O738    0.988   .     S
H685   O741    0.991   .     S
H686   O745    0.988   .     S
H687   O748    0.990   .     S
H688   O751    0.989   .     S
H689   O755    0.990   .     S
H690   O758    0.988   .     S
H691   O761    0.989   .     S
H692   O878    0.980   .     S
H693   O765    0.988   .     S
H694   O768    0.991   .     S
H695   O771    0.988   .     S
H696   O774    0.990   .     S
H697   O778    0.989   .     S
H698   O719    0.977   .     S
H699   O721    0.980   .     S
H700   O722    0.977   .     S
H701   O723    0.980   .     S
H702   O724    0.977   .     S
H703   O725    0.980   .     S
H704   O728    0.990   .     S
N705   C804    1.374   1_455 A
N705   Zn797   2.042   .     S
N706   C840    1.377   1_455 A
N706   Zn798   2.042   .     S
N707   Zn799   2.042   .     S
N707   C966    1.374   1_545 S
N708   Zn800   2.042   .     S
N708   C967    1.376   1_545 S
O709   Zn797   1.997   .     S
O710   Zn800   1.997   .     S
O711   Zn799   2.012   .     S
O712   Zn1120  2.012   .     S
O713   Zn1120  2.028   .     S
O714   Zn799   2.028   .     S
O715   Zn800   2.034   .     S
O716   Zn1119  2.034   .     S
O718   H852    0.980   1_455 S
O720   Zn958   1.997   .     S
O726   S781    1.500   .     D
O727   S781    1.502   .     D
O728   S781    1.678   .     S
O729   S789    1.503   .     D
O730   S789    1.504   .     D
O731   Zn957   2.012   .     S
O732   S789    1.674   .     S
O733   S790    1.501   .     D
O734   S790    1.501   .     D
O735   S790    1.679   .     S
O736   S791    1.502   .     D
O737   S791    1.503   .     D
O738   S791    1.679   .     S
O739   S792    1.499   .     D
O740   S792    1.503   .     D
O741   S792    1.681   .     S
O742   Zn798   2.012   .     S
O743   S793    1.503   .     D
O744   S793    1.504   .     D
O745   S793    1.673   .     S
O746   S794    1.500   .     D
O747   S794    1.504   .     D
O748   S794    1.680   .     S
O749   S795    1.503   .     D
O750   S795    1.503   .     D
O751   S795    1.678   .     S
O752   S796    1.500   .     D
O753   Zn958   2.028   .     S
O754   S796    1.502   .     D
O755   S796    1.678   .     S
O756   S782    1.503   .     D
O757   S782    1.504   .     D
O758   S782    1.674   .     S
O759   S783    1.501   .     D
O760   S783    1.501   .     D
O761   S783    1.679   .     S
O762   S784    1.502   .     D
O763   S784    1.503   .     D
O764   Zn797   2.028   .     S
O765   S784    1.679   .     S
O766   S785    1.499   .     D
O767   S785    1.503   .     D
O768   S785    1.681   .     S
O769   S786    1.504   .     D
O770   S786    1.504   .     D
O771   S786    1.673   .     S
O772   S787    1.500   .     D
O773   S787    1.504   .     D
O774   S787    1.680   .     S
O775   Zn798   2.034   .     S
O776   S788    1.503   .     D
O777   S788    1.503   .     D
O778   S788    1.678   .     S
O779   Zn957   2.034   .     S
O780   Zn1119  1.997   .     S
Zn797  O939    2.034   1_455 S
Zn797  O891    2.012   1_455 S
Zn798  O913    2.028   1_455 S
Zn798  O880    1.997   1_455 S
Zn799  O1036   2.034   1_545 S
Zn799  O1100   1.997   1_545 S
Zn800  O1033   2.028   1_545 S
Zn800  O1032   2.012   1_545 S
C801   O869    1.301   .     A
C801   C830    1.426   .     S
C801   O902    1.292   .     A
C802   O878    1.369   .     S
C802   C1443   1.415   .     S
C802   N865    1.374   .     S
C803   O879    1.367   .     S
C803   N866    1.376   .     S
C804   N705    1.374   1_655 A
C804   O881    1.372   .     S
C804   C1480   1.415   .     S
C805   N868    1.377   .     A
C805   O882    1.370   .     S
C806   O883    1.369   .     S
C806   C1447   1.415   .     S
C806   N1187   1.374   .     S
C807   O884    1.367   .     S
C807   N1188   1.376   .     S
C808   O885    1.372   .     S
C808   N867    1.374   .     A
C808   C1445   1.415   .     S
C809   S941    1.770   .     S
C809   C820    1.376   .     A
C809   C828    1.406   .     A
C810   C827    1.412   .     A
C810   C821    1.384   .     A
C810   S949    1.774   .     S
C811   C818    1.376   .     A
C811   S950    1.764   .     S
C811   C827    1.413   .     A
C812   C829    1.450   .     S
C812   O891    1.302   .     A
C812   O880    1.303   .     A
C813   C828    1.410   .     A
C813   C819    1.384   .     A
C813   S951    1.773   .     S
C814   C830    1.402   .     A
C814   C825    1.380   .     A
C814   S952    1.773   .     S
C815   C829    1.408   .     A
C815   S953    1.775   .     S
C815   C826    1.379   .     A
C816   C829    1.420   .     A
C816   C822    1.380   .     A
C816   S954    1.762   .     S
C817   C830    1.405   .     A
C817   C824    1.379   .     A
C817   S955    1.774   .     S
C818   C832    1.406   .     A
C818   S956    1.770   .     S
C819   C831    1.412   .     A
C819   S942    1.774   .     S
C820   S943    1.764   .     S
C820   C831    1.413   .     A
C821   C832    1.410   .     A
C821   S944    1.773   .     S
C822   S945    1.773   .     S
C822   C835    1.402   .     A
C823   O939    1.300   .     A
C823   O913    1.303   .     A
C823   C828    1.445   .     S
C824   C833    1.408   .     A
C824   S946    1.775   .     S
C825   S947    1.762   .     S
C825   C833    1.420   .     A
C826   S948    1.774   .     S
C826   C835    1.405   .     A
C827   C834    1.454   .     S
C831   C839    1.454   .     S
C832   C838    1.445   .     S
C833   C837    1.450   .     S
C834   O924    1.303   .     A
C834   O935    1.304   .     A
C835   C836    1.426   .     S
C836   O940    1.301   .     A
C836   O872    1.292   .     A
C837   O870    1.303   .     A
C837   O871    1.302   .     A
C838   O876    1.300   .     A
C838   O873    1.303   .     A
C839   O874    1.303   .     A
C839   O875    1.304   .     A
C840   N706    1.377   1_655 A
C840   O877    1.370   .     S
H841   O877    0.977   .     S
H842   O892    0.988   .     S
H843   O895    0.989   .     S
H844   O898    0.988   .     S
H845   O901    0.991   .     S
H846   O905    0.988   .     S
H847   O908    0.990   .     S
H848   O911    0.989   .     S
H849   O915    0.990   .     S
H850   O918    0.988   .     S
H851   O921    0.989   .     S
H852   O718    0.980   1_655 S
H853   O925    0.988   .     S
H854   O928    0.991   .     S
H855   O931    0.988   .     S
H856   O934    0.990   .     S
H857   O938    0.989   .     S
H858   O879    0.977   .     S
H859   O881    0.980   .     S
H860   O882    0.977   .     S
H861   O883    0.980   .     S
H862   O884    0.977   .     S
H863   O885    0.980   .     S
H864   O888    0.990   .     S
N865   Zn957   2.042   .     S
N866   Zn958   2.042   .     S
N867   Zn959   2.042   .     S
N867   C1126   1.374   1_545 S
N868   Zn960   2.042   .     S
N868   C1127   1.376   1_545 S
O869   Zn957   1.997   .     S
O870   Zn960   1.997   .     S
O871   Zn959   2.012   .     S
O872   Zn1280  2.012   .     S
O873   Zn1280  2.028   .     S
O874   Zn959   2.028   .     S
O875   Zn960   2.034   .     S
O876   Zn1279  2.034   .     S
O880   Zn798   1.997   1_655 S
O886   S941    1.500   .     D
O887   S941    1.502   .     D
O888   S941    1.678   .     S
O889   S949    1.503   .     D
O890   S949    1.504   .     D
O891   Zn797   2.012   1_655 S
O892   S949    1.674   .     S
O893   S950    1.501   .     D
O894   S950    1.501   .     D
O895   S950    1.679   .     S
O896   S951    1.502   .     D
O897   S951    1.503   .     D
O898   S951    1.679   .     S
O899   S952    1.499   .     D
O900   S952    1.503   .     D
O901   S952    1.681   .     S
O902   Zn958   2.012   .     S
O903   S953    1.503   .     D
O904   S953    1.504   .     D
O905   S953    1.673   .     S
O906   S954    1.500   .     D
O907   S954    1.504   .     D
O908   S954    1.680   .     S
O909   S955    1.503   .     D
O910   S955    1.503   .     D
O911   S955    1.678   .     S
O912   S956    1.500   .     D
O913   Zn798   2.028   1_655 S
O914   S956    1.502   .     D
O915   S956    1.678   .     S
O916   S942    1.503   .     D
O917   S942    1.504   .     D
O918   S942    1.674   .     S
O919   S943    1.501   .     D
O920   S943    1.501   .     D
O921   S943    1.679   .     S
O922   S944    1.502   .     D
O923   S944    1.503   .     D
O924   Zn957   2.028   .     S
O925   S944    1.679   .     S
O926   S945    1.499   .     D
O927   S945    1.503   .     D
O928   S945    1.681   .     S
O929   S946    1.504   .     D
O930   S946    1.504   .     D
O931   S946    1.673   .     S
O932   S947    1.500   .     D
O933   S947    1.504   .     D
O934   S947    1.680   .     S
O935   Zn958   2.034   .     S
O936   S948    1.503   .     D
O937   S948    1.503   .     D
O938   S948    1.678   .     S
O939   Zn797   2.034   1_655 S
O940   Zn1279  1.997   .     S
Zn959  O1196   2.034   1_545 S
Zn959  O1260   1.997   1_545 S
Zn960  O1193   2.028   1_545 S
Zn960  O1192   2.012   1_545 S
C961   O1029   1.301   .     A
C961   C990    1.426   .     S
C961   O1062   1.292   .     A
C962   O1038   1.369   .     S
C962   C1603   1.415   .     S
C962   N1025   1.374   .     S
C963   O1039   1.367   .     S
C963   N1026   1.376   .     S
C964   N1185   1.374   .     A
C964   O1041   1.372   .     S
C964   C1640   1.415   .     S
C965   N1028   1.377   .     A
C965   O1042   1.370   .     S
C966   O1043   1.369   .     S
C966   C1607   1.415   .     S
C966   N707    1.374   1_565 S
C967   O1044   1.367   .     S
C967   N708    1.376   1_565 S
C968   O1045   1.372   .     S
C968   N1027   1.374   .     A
C968   C1605   1.415   .     S
C969   S1101   1.770   .     S
C969   C980    1.376   .     A
C969   C988    1.406   .     A
C970   C987    1.412   .     A
C970   C981    1.384   .     A
C970   S1109   1.774   .     S
C971   C978    1.376   .     A
C971   S1110   1.764   .     S
C971   C987    1.413   .     A
C972   C989    1.450   .     S
C972   O1051   1.302   .     A
C972   O1040   1.303   .     A
C973   C988    1.410   .     A
C973   C979    1.384   .     A
C973   S1111   1.773   .     S
C974   C990    1.402   .     A
C974   C985    1.380   .     A
C974   S1112   1.773   .     S
C975   C989    1.408   .     A
C975   S1113   1.775   .     S
C975   C986    1.379   .     A
C976   C989    1.420   .     A
C976   C982    1.380   .     A
C976   S1114   1.762   .     S
C977   C990    1.405   .     A
C977   C984    1.379   .     A
C977   S1115   1.774   .     S
C978   C992    1.406   .     A
C978   S1116   1.770   .     S
C979   C991    1.412   .     A
C979   S1102   1.774   .     S
C980   S1103   1.764   .     S
C980   C991    1.413   .     A
C981   C992    1.410   .     A
C981   S1104   1.773   .     S
C982   S1105   1.773   .     S
C982   C995    1.402   .     A
C983   O1099   1.300   .     A
C983   O1073   1.303   .     A
C983   C988    1.445   .     S
C984   C993    1.408   .     A
C984   S1106   1.775   .     S
C985   S1107   1.762   .     S
C985   C993    1.420   .     A
C986   S1108   1.774   .     S
C986   C995    1.405   .     A
C987   C994    1.454   .     S
C991   C999    1.454   .     S
C992   C998    1.445   .     S
C993   C997    1.450   .     S
C994   O1084   1.303   .     A
C994   O1095   1.304   .     A
C995   C996    1.426   .     S
C996   O1100   1.301   .     A
C996   O1032   1.292   .     A
C997   O1030   1.303   .     A
C997   O1031   1.302   .     A
C998   O1036   1.300   .     A
C998   O1033   1.303   .     A
C999   O1034   1.303   .     A
C999   O1035   1.304   .     A
C1000  N1186   1.377   .     A
C1000  O1037   1.370   .     S
H1001  O1037   0.977   .     S
H1002  O1052   0.988   .     S
H1003  O1055   0.989   .     S
H1004  O1058   0.988   .     S
H1005  O1061   0.991   .     S
H1006  O1065   0.988   .     S
H1007  O1068   0.990   .     S
H1008  O1071   0.989   .     S
H1009  O1075   0.990   .     S
H1010  O1078   0.988   .     S
H1011  O1081   0.989   .     S
H1012  O1198   0.980   .     S
H1013  O1085   0.988   .     S
H1014  O1088   0.991   .     S
H1015  O1091   0.988   .     S
H1016  O1094   0.990   .     S
H1017  O1098   0.989   .     S
H1018  O1039   0.977   .     S
H1019  O1041   0.980   .     S
H1020  O1042   0.977   .     S
H1021  O1043   0.980   .     S
H1022  O1044   0.977   .     S
H1023  O1045   0.980   .     S
H1024  O1048   0.990   .     S
N1025  C1124   1.374   1_455 A
N1025  Zn1117  2.042   .     S
N1026  C1160   1.377   1_455 A
N1026  Zn1118  2.042   .     S
N1027  Zn1119  2.042   .     S
N1028  Zn1120  2.042   .     S
O1029  Zn1117  1.997   .     S
O1030  Zn1120  1.997   .     S
O1031  Zn1119  2.012   .     S
O1032  Zn800   2.012   1_565 S
O1033  Zn800   2.028   1_565 S
O1034  Zn1119  2.028   .     S
O1035  Zn1120  2.034   .     S
O1036  Zn799   2.034   1_565 S
O1038  H1172   0.980   1_455 S
O1040  Zn1278  1.997   .     S
O1046  S1101   1.500   .     D
O1047  S1101   1.502   .     D
O1048  S1101   1.678   .     S
O1049  S1109   1.503   .     D
O1050  S1109   1.504   .     D
O1051  Zn1277  2.012   .     S
O1052  S1109   1.674   .     S
O1053  S1110   1.501   .     D
O1054  S1110   1.501   .     D
O1055  S1110   1.679   .     S
O1056  S1111   1.502   .     D
O1057  S1111   1.503   .     D
O1058  S1111   1.679   .     S
O1059  S1112   1.499   .     D
O1060  S1112   1.503   .     D
O1061  S1112   1.681   .     S
O1062  Zn1118  2.012   .     S
O1063  S1113   1.503   .     D
O1064  S1113   1.504   .     D
O1065  S1113   1.673   .     S
O1066  S1114   1.500   .     D
O1067  S1114   1.504   .     D
O1068  S1114   1.680   .     S
O1069  S1115   1.503   .     D
O1070  S1115   1.503   .     D
O1071  S1115   1.678   .     S
O1072  S1116   1.500   .     D
O1073  Zn1278  2.028   .     S
O1074  S1116   1.502   .     D
O1075  S1116   1.678   .     S
O1076  S1102   1.503   .     D
O1077  S1102   1.504   .     D
O1078  S1102   1.674   .     S
O1079  S1103   1.501   .     D
O1080  S1103   1.501   .     D
O1081  S1103   1.679   .     S
O1082  S1104   1.502   .     D
O1083  S1104   1.503   .     D
O1084  Zn1117  2.028   .     S
O1085  S1104   1.679   .     S
O1086  S1105   1.499   .     D
O1087  S1105   1.503   .     D
O1088  S1105   1.681   .     S
O1089  S1106   1.504   .     D
O1090  S1106   1.504   .     D
O1091  S1106   1.673   .     S
O1092  S1107   1.500   .     D
O1093  S1107   1.504   .     D
O1094  S1107   1.680   .     S
O1095  Zn1118  2.034   .     S
O1096  S1108   1.503   .     D
O1097  S1108   1.503   .     D
O1098  S1108   1.678   .     S
O1099  Zn1277  2.034   .     S
O1100  Zn799   1.997   1_565 S
Zn1117 O1259   2.034   1_455 S
Zn1117 O1211   2.012   1_455 S
Zn1118 O1233   2.028   1_455 S
Zn1118 O1200   1.997   1_455 S
C1121  O1189   1.301   .     A
C1121  C1150   1.426   .     S
C1121  O1222   1.292   .     A
C1122  O1198   1.369   .     S
C1122  C1763   1.415   .     S
C1122  N1185   1.374   .     S
C1123  O1199   1.367   .     S
C1123  N1186   1.376   .     S
C1124  N1025   1.374   1_655 A
C1124  O1201   1.372   .     S
C1124  C1800   1.415   .     S
C1125  N1188   1.377   .     A
C1125  O1202   1.370   .     S
C1126  O1203   1.369   .     S
C1126  C1767   1.415   .     S
C1126  N867    1.374   1_565 S
C1127  O1204   1.367   .     S
C1127  N868    1.376   1_565 S
C1128  O1205   1.372   .     S
C1128  N1187   1.374   .     A
C1128  C1765   1.415   .     S
C1129  S1261   1.770   .     S
C1129  C1140   1.376   .     A
C1129  C1148   1.406   .     A
C1130  C1147   1.412   .     A
C1130  C1141   1.384   .     A
C1130  S1269   1.774   .     S
C1131  C1138   1.376   .     A
C1131  S1270   1.764   .     S
C1131  C1147   1.413   .     A
C1132  C1149   1.450   .     S
C1132  O1211   1.302   .     A
C1132  O1200   1.303   .     A
C1133  C1148   1.410   .     A
C1133  C1139   1.384   .     A
C1133  S1271   1.773   .     S
C1134  C1150   1.402   .     A
C1134  C1145   1.380   .     A
C1134  S1272   1.773   .     S
C1135  C1149   1.408   .     A
C1135  S1273   1.775   .     S
C1135  C1146   1.379   .     A
C1136  C1149   1.420   .     A
C1136  C1142   1.380   .     A
C1136  S1274   1.762   .     S
C1137  C1150   1.405   .     A
C1137  C1144   1.379   .     A
C1137  S1275   1.774   .     S
C1138  C1152   1.406   .     A
C1138  S1276   1.770   .     S
C1139  C1151   1.412   .     A
C1139  S1262   1.774   .     S
C1140  S1263   1.764   .     S
C1140  C1151   1.413   .     A
C1141  C1152   1.410   .     A
C1141  S1264   1.773   .     S
C1142  S1265   1.773   .     S
C1142  C1155   1.402   .     A
C1143  O1259   1.300   .     A
C1143  O1233   1.303   .     A
C1143  C1148   1.445   .     S
C1144  C1153   1.408   .     A
C1144  S1266   1.775   .     S
C1145  S1267   1.762   .     S
C1145  C1153   1.420   .     A
C1146  S1268   1.774   .     S
C1146  C1155   1.405   .     A
C1147  C1154   1.454   .     S
C1151  C1159   1.454   .     S
C1152  C1158   1.445   .     S
C1153  C1157   1.450   .     S
C1154  O1244   1.303   .     A
C1154  O1255   1.304   .     A
C1155  C1156   1.426   .     S
C1156  O1260   1.301   .     A
C1156  O1192   1.292   .     A
C1157  O1190   1.303   .     A
C1157  O1191   1.302   .     A
C1158  O1196   1.300   .     A
C1158  O1193   1.303   .     A
C1159  O1194   1.303   .     A
C1159  O1195   1.304   .     A
C1160  N1026   1.377   1_655 A
C1160  O1197   1.370   .     S
H1161  O1197   0.977   .     S
H1162  O1212   0.988   .     S
H1163  O1215   0.989   .     S
H1164  O1218   0.988   .     S
H1165  O1221   0.991   .     S
H1166  O1225   0.988   .     S
H1167  O1228   0.990   .     S
H1168  O1231   0.989   .     S
H1169  O1235   0.990   .     S
H1170  O1238   0.988   .     S
H1171  O1241   0.989   .     S
H1172  O1038   0.980   1_655 S
H1173  O1245   0.988   .     S
H1174  O1248   0.991   .     S
H1175  O1251   0.988   .     S
H1176  O1254   0.990   .     S
H1177  O1258   0.989   .     S
H1178  O1199   0.977   .     S
H1179  O1201   0.980   .     S
H1180  O1202   0.977   .     S
H1181  O1203   0.980   .     S
H1182  O1204   0.977   .     S
H1183  O1205   0.980   .     S
H1184  O1208   0.990   .     S
N1185  Zn1277  2.042   .     S
N1186  Zn1278  2.042   .     S
N1187  Zn1279  2.042   .     S
N1188  Zn1280  2.042   .     S
O1189  Zn1277  1.997   .     S
O1190  Zn1280  1.997   .     S
O1191  Zn1279  2.012   .     S
O1192  Zn960   2.012   1_565 S
O1193  Zn960   2.028   1_565 S
O1194  Zn1279  2.028   .     S
O1195  Zn1280  2.034   .     S
O1196  Zn959   2.034   1_565 S
O1200  Zn1118  1.997   1_655 S
O1206  S1261   1.500   .     D
O1207  S1261   1.502   .     D
O1208  S1261   1.678   .     S
O1209  S1269   1.503   .     D
O1210  S1269   1.504   .     D
O1211  Zn1117  2.012   1_655 S
O1212  S1269   1.674   .     S
O1213  S1270   1.501   .     D
O1214  S1270   1.501   .     D
O1215  S1270   1.679   .     S
O1216  S1271   1.502   .     D
O1217  S1271   1.503   .     D
O1218  S1271   1.679   .     S
O1219  S1272   1.499   .     D
O1220  S1272   1.503   .     D
O1221  S1272   1.681   .     S
O1222  Zn1278  2.012   .     S
O1223  S1273   1.503   .     D
O1224  S1273   1.504   .     D
O1225  S1273   1.673   .     S
O1226  S1274   1.500   .     D
O1227  S1274   1.504   .     D
O1228  S1274   1.680   .     S
O1229  S1275   1.503   .     D
O1230  S1275   1.503   .     D
O1231  S1275   1.678   .     S
O1232  S1276   1.500   .     D
O1233  Zn1118  2.028   1_655 S
O1234  S1276   1.502   .     D
O1235  S1276   1.678   .     S
O1236  S1262   1.503   .     D
O1237  S1262   1.504   .     D
O1238  S1262   1.674   .     S
O1239  S1263   1.501   .     D
O1240  S1263   1.501   .     D
O1241  S1263   1.679   .     S
O1242  S1264   1.502   .     D
O1243  S1264   1.503   .     D
O1244  Zn1277  2.028   .     S
O1245  S1264   1.679   .     S
O1246  S1265   1.499   .     D
O1247  S1265   1.503   .     D
O1248  S1265   1.681   .     S
O1249  S1266   1.504   .     D
O1250  S1266   1.504   .     D
O1251  S1266   1.673   .     S
O1252  S1267   1.500   .     D
O1253  S1267   1.504   .     D
O1254  S1267   1.680   .     S
O1255  Zn1278  2.034   .     S
O1256  S1268   1.503   .     D
O1257  S1268   1.503   .     D
O1258  S1268   1.678   .     S
O1259  Zn1117  2.034   1_655 S
O1260  Zn959   1.997   1_565 S
C1281  O1349   1.301   .     A
C1281  C1310   1.426   .     S
C1281  O1382   1.292   .     A
C1282  O1358   1.369   .     S
C1282  C3      1.415   1_556 S
C1282  N1345   1.374   .     S
C1283  O1359   1.367   .     S
C1283  N1346   1.376   .     S
C1284  N1505   1.374   .     A
C1284  O1361   1.372   .     S
C1284  C40     1.415   1_556 S
C1285  N1348   1.377   .     A
C1285  O1362   1.370   .     S
C1286  O1363   1.369   .     S
C1286  C7      1.415   1_556 S
C1286  N1667   1.374   .     S
C1287  O1364   1.367   .     S
C1287  N1668   1.376   .     S
C1288  O1365   1.372   .     S
C1288  N1347   1.374   .     A
C1288  C5      1.415   1_556 S
C1289  S1421   1.770   .     S
C1289  C1300   1.376   .     A
C1289  C1308   1.406   .     A
C1290  C1307   1.412   .     A
C1290  C1301   1.384   .     A
C1290  S1429   1.774   .     S
C1291  C1298   1.376   .     A
C1291  S1430   1.764   .     S
C1291  C1307   1.413   .     A
C1292  C1309   1.450   .     S
C1292  O1371   1.302   .     A
C1292  O1360   1.303   .     A
C1293  C1308   1.410   .     A
C1293  C1299   1.384   .     A
C1293  S1431   1.773   .     S
C1294  C1310   1.402   .     A
C1294  C1305   1.380   .     A
C1294  S1432   1.773   .     S
C1295  C1309   1.408   .     A
C1295  S1433   1.775   .     S
C1295  C1306   1.379   .     A
C1296  C1309   1.420   .     A
C1296  C1302   1.380   .     A
C1296  S1434   1.762   .     S
C1297  C1310   1.405   .     A
C1297  C1304   1.379   .     A
C1297  S1435   1.774   .     S
C1298  C1312   1.406   .     A
C1298  S1436   1.770   .     S
C1299  C1311   1.412   .     A
C1299  S1422   1.774   .     S
C1300  S1423   1.764   .     S
C1300  C1311   1.413   .     A
C1301  C1312   1.410   .     A
C1301  S1424   1.773   .     S
C1302  S1425   1.773   .     S
C1302  C1315   1.402   .     A
C1303  O1419   1.300   .     A
C1303  O1393   1.303   .     A
C1303  C1308   1.445   .     S
C1304  C1313   1.408   .     A
C1304  S1426   1.775   .     S
C1305  S1427   1.762   .     S
C1305  C1313   1.420   .     A
C1306  S1428   1.774   .     S
C1306  C1315   1.405   .     A
C1307  C1314   1.454   .     S
C1311  C1319   1.454   .     S
C1312  C1318   1.445   .     S
C1313  C1317   1.450   .     S
C1314  O1404   1.303   .     A
C1314  O1415   1.304   .     A
C1315  C1316   1.426   .     S
C1316  O1420   1.301   .     A
C1316  O1352   1.292   .     A
C1317  O1350   1.303   .     A
C1317  O1351   1.302   .     A
C1318  O1356   1.300   .     A
C1318  O1353   1.303   .     A
C1319  O1354   1.303   .     A
C1319  O1355   1.304   .     A
C1320  N1506   1.377   .     A
C1320  O1357   1.370   .     S
H1321  O1357   0.977   .     S
H1322  O1372   0.988   .     S
H1323  O1375   0.989   .     S
H1324  O1378   0.988   .     S
H1325  O1381   0.991   .     S
H1326  O1385   0.988   .     S
H1327  O1388   0.990   .     S
H1328  O1391   0.989   .     S
H1329  O1395   0.990   .     S
H1330  O1398   0.988   .     S
H1331  O1401   0.989   .     S
H1332  O1518   0.980   .     S
H1333  O1405   0.988   .     S
H1334  O1408   0.991   .     S
H1335  O1411   0.988   .     S
H1336  O1414   0.990   .     S
H1337  O1418   0.989   .     S
H1338  O1359   0.977   .     S
H1339  O1361   0.980   .     S
H1340  O1362   0.977   .     S
H1341  O1363   0.980   .     S
H1342  O1364   0.977   .     S
H1343  O1365   0.980   .     S
H1344  O1368   0.990   .     S
N1345  C1444   1.374   1_455 A
N1345  Zn1437  2.042   .     S
N1346  C1480   1.377   1_455 A
N1346  Zn1438  2.042   .     S
N1347  Zn1439  2.042   .     S
N1347  C1606   1.374   1_545 S
N1348  Zn1440  2.042   .     S
N1348  C1607   1.376   1_545 S
O1349  Zn1437  1.997   .     S
O1350  Zn1440  1.997   .     S
O1351  Zn1439  2.012   .     S
O1352  Zn1760  2.012   .     S
O1353  Zn1760  2.028   .     S
O1354  Zn1439  2.028   .     S
O1355  Zn1440  2.034   .     S
O1356  Zn1759  2.034   .     S
O1358  H1492   0.980   1_455 S
O1360  Zn1598  1.997   .     S
O1366  S1421   1.500   .     D
O1367  S1421   1.502   .     D
O1368  S1421   1.678   .     S
O1369  S1429   1.503   .     D
O1370  S1429   1.504   .     D
O1371  Zn1597  2.012   .     S
O1372  S1429   1.674   .     S
O1373  S1430   1.501   .     D
O1374  S1430   1.501   .     D
O1375  S1430   1.679   .     S
O1376  S1431   1.502   .     D
O1377  S1431   1.503   .     D
O1378  S1431   1.679   .     S
O1379  S1432   1.499   .     D
O1380  S1432   1.503   .     D
O1381  S1432   1.681   .     S
O1382  Zn1438  2.012   .     S
O1383  S1433   1.503   .     D
O1384  S1433   1.504   .     D
O1385  S1433   1.673   .     S
O1386  S1434   1.500   .     D
O1387  S1434   1.504   .     D
O1388  S1434   1.680   .     S
O1389  S1435   1.503   .     D
O1390  S1435   1.503   .     D
O1391  S1435   1.678   .     S
O1392  S1436   1.500   .     D
O1393  Zn1598  2.028   .     S
O1394  S1436   1.502   .     D
O1395  S1436   1.678   .     S
O1396  S1422   1.503   .     D
O1397  S1422   1.504   .     D
O1398  S1422   1.674   .     S
O1399  S1423   1.501   .     D
O1400  S1423   1.501   .     D
O1401  S1423   1.679   .     S
O1402  S1424   1.502   .     D
O1403  S1424   1.503   .     D
O1404  Zn1437  2.028   .     S
O1405  S1424   1.679   .     S
O1406  S1425   1.499   .     D
O1407  S1425   1.503   .     D
O1408  S1425   1.681   .     S
O1409  S1426   1.504   .     D
O1410  S1426   1.504   .     D
O1411  S1426   1.673   .     S
O1412  S1427   1.500   .     D
O1413  S1427   1.504   .     D
O1414  S1427   1.680   .     S
O1415  Zn1438  2.034   .     S
O1416  S1428   1.503   .     D
O1417  S1428   1.503   .     D
O1418  S1428   1.678   .     S
O1419  Zn1597  2.034   .     S
O1420  Zn1759  1.997   .     S
Zn1437 O1579   2.034   1_455 S
Zn1437 O1531   2.012   1_455 S
Zn1438 O1553   2.028   1_455 S
Zn1438 O1520   1.997   1_455 S
Zn1439 O1676   2.034   1_545 S
Zn1439 O1740   1.997   1_545 S
Zn1440 O1673   2.028   1_545 S
Zn1440 O1672   2.012   1_545 S
C1441  O1509   1.301   .     A
C1441  C1470   1.426   .     S
C1441  O1542   1.292   .     A
C1442  O1518   1.369   .     S
C1442  C163    1.415   1_556 S
C1442  N1505   1.374   .     S
C1443  O1519   1.367   .     S
C1443  N1506   1.376   .     S
C1444  N1345   1.374   1_655 A
C1444  O1521   1.372   .     S
C1444  C200    1.415   1_556 S
C1445  N1508   1.377   .     A
C1445  O1522   1.370   .     S
C1446  O1523   1.369   .     S
C1446  C167    1.415   1_556 S
C1446  N1827   1.374   .     S
C1447  O1524   1.367   .     S
C1447  N1828   1.376   .     S
C1448  O1525   1.372   .     S
C1448  N1507   1.374   .     A
C1448  C165    1.415   1_556 S
C1449  S1581   1.770   .     S
C1449  C1460   1.376   .     A
C1449  C1468   1.406   .     A
C1450  C1467   1.412   .     A
C1450  C1461   1.384   .     A
C1450  S1589   1.774   .     S
C1451  C1458   1.376   .     A
C1451  S1590   1.764   .     S
C1451  C1467   1.413   .     A
C1452  C1469   1.450   .     S
C1452  O1531   1.302   .     A
C1452  O1520   1.303   .     A
C1453  C1468   1.410   .     A
C1453  C1459   1.384   .     A
C1453  S1591   1.773   .     S
C1454  C1470   1.402   .     A
C1454  C1465   1.380   .     A
C1454  S1592   1.773   .     S
C1455  C1469   1.408   .     A
C1455  S1593   1.775   .     S
C1455  C1466   1.379   .     A
C1456  C1469   1.420   .     A
C1456  C1462   1.380   .     A
C1456  S1594   1.762   .     S
C1457  C1470   1.405   .     A
C1457  C1464   1.379   .     A
C1457  S1595   1.774   .     S
C1458  C1472   1.406   .     A
C1458  S1596   1.770   .     S
C1459  C1471   1.412   .     A
C1459  S1582   1.774   .     S
C1460  S1583   1.764   .     S
C1460  C1471   1.413   .     A
C1461  C1472   1.410   .     A
C1461  S1584   1.773   .     S
C1462  S1585   1.773   .     S
C1462  C1475   1.402   .     A
C1463  O1579   1.300   .     A
C1463  O1553   1.303   .     A
C1463  C1468   1.445   .     S
C1464  C1473   1.408   .     A
C1464  S1586   1.775   .     S
C1465  S1587   1.762   .     S
C1465  C1473   1.420   .     A
C1466  S1588   1.774   .     S
C1466  C1475   1.405   .     A
C1467  C1474   1.454   .     S
C1471  C1479   1.454   .     S
C1472  C1478   1.445   .     S
C1473  C1477   1.450   .     S
C1474  O1564   1.303   .     A
C1474  O1575   1.304   .     A
C1475  C1476   1.426   .     S
C1476  O1580   1.301   .     A
C1476  O1512   1.292   .     A
C1477  O1510   1.303   .     A
C1477  O1511   1.302   .     A
C1478  O1516   1.300   .     A
C1478  O1513   1.303   .     A
C1479  O1514   1.303   .     A
C1479  O1515   1.304   .     A
C1480  N1346   1.377   1_655 A
C1480  O1517   1.370   .     S
H1481  O1517   0.977   .     S
H1482  O1532   0.988   .     S
H1483  O1535   0.989   .     S
H1484  O1538   0.988   .     S
H1485  O1541   0.991   .     S
H1486  O1545   0.988   .     S
H1487  O1548   0.990   .     S
H1488  O1551   0.989   .     S
H1489  O1555   0.990   .     S
H1490  O1558   0.988   .     S
H1491  O1561   0.989   .     S
H1492  O1358   0.980   1_655 S
H1493  O1565   0.988   .     S
H1494  O1568   0.991   .     S
H1495  O1571   0.988   .     S
H1496  O1574   0.990   .     S
H1497  O1578   0.989   .     S
H1498  O1519   0.977   .     S
H1499  O1521   0.980   .     S
H1500  O1522   0.977   .     S
H1501  O1523   0.980   .     S
H1502  O1524   0.977   .     S
H1503  O1525   0.980   .     S
H1504  O1528   0.990   .     S
N1505  Zn1597  2.042   .     S
N1506  Zn1598  2.042   .     S
N1507  Zn1599  2.042   .     S
N1507  C1766   1.374   1_545 S
N1508  Zn1600  2.042   .     S
N1508  C1767   1.376   1_545 S
O1509  Zn1597  1.997   .     S
O1510  Zn1600  1.997   .     S
O1511  Zn1599  2.012   .     S
O1512  Zn1920  2.012   .     S
O1513  Zn1920  2.028   .     S
O1514  Zn1599  2.028   .     S
O1515  Zn1600  2.034   .     S
O1516  Zn1919  2.034   .     S
O1520  Zn1438  1.997   1_655 S
O1526  S1581   1.500   .     D
O1527  S1581   1.502   .     D
O1528  S1581   1.678   .     S
O1529  S1589   1.503   .     D
O1530  S1589   1.504   .     D
O1531  Zn1437  2.012   1_655 S
O1532  S1589   1.674   .     S
O1533  S1590   1.501   .     D
O1534  S1590   1.501   .     D
O1535  S1590   1.679   .     S
O1536  S1591   1.502   .     D
O1537  S1591   1.503   .     D
O1538  S1591   1.679   .     S
O1539  S1592   1.499   .     D
O1540  S1592   1.503   .     D
O1541  S1592   1.681   .     S
O1542  Zn1598  2.012   .     S
O1543  S1593   1.503   .     D
O1544  S1593   1.504   .     D
O1545  S1593   1.673   .     S
O1546  S1594   1.500   .     D
O1547  S1594   1.504   .     D
O1548  S1594   1.680   .     S
O1549  S1595   1.503   .     D
O1550  S1595   1.503   .     D
O1551  S1595   1.678   .     S
O1552  S1596   1.500   .     D
O1553  Zn1438  2.028   1_655 S
O1554  S1596   1.502   .     D
O1555  S1596   1.678   .     S
O1556  S1582   1.503   .     D
O1557  S1582   1.504   .     D
O1558  S1582   1.674   .     S
O1559  S1583   1.501   .     D
O1560  S1583   1.501   .     D
O1561  S1583   1.679   .     S
O1562  S1584   1.502   .     D
O1563  S1584   1.503   .     D
O1564  Zn1597  2.028   .     S
O1565  S1584   1.679   .     S
O1566  S1585   1.499   .     D
O1567  S1585   1.503   .     D
O1568  S1585   1.681   .     S
O1569  S1586   1.504   .     D
O1570  S1586   1.504   .     D
O1571  S1586   1.673   .     S
O1572  S1587   1.500   .     D
O1573  S1587   1.504   .     D
O1574  S1587   1.680   .     S
O1575  Zn1598  2.034   .     S
O1576  S1588   1.503   .     D
O1577  S1588   1.503   .     D
O1578  S1588   1.678   .     S
O1579  Zn1437  2.034   1_655 S
O1580  Zn1919  1.997   .     S
Zn1599 O1836   2.034   1_545 S
Zn1599 O1900   1.997   1_545 S
Zn1600 O1833   2.028   1_545 S
Zn1600 O1832   2.012   1_545 S
C1601  O1669   1.301   .     A
C1601  C1630   1.426   .     S
C1601  O1702   1.292   .     A
C1602  O1678   1.369   .     S
C1602  C323    1.415   1_556 S
C1602  N1665   1.374   .     S
C1603  O1679   1.367   .     S
C1603  N1666   1.376   .     S
C1604  N1825   1.374   .     A
C1604  O1681   1.372   .     S
C1604  C360    1.415   1_556 S
C1605  N1668   1.377   .     A
C1605  O1682   1.370   .     S
C1606  O1683   1.369   .     S
C1606  C327    1.415   1_556 S
C1606  N1347   1.374   1_565 S
C1607  O1684   1.367   .     S
C1607  N1348   1.376   1_565 S
C1608  O1685   1.372   .     S
C1608  N1667   1.374   .     A
C1608  C325    1.415   1_556 S
C1609  S1741   1.770   .     S
C1609  C1620   1.376   .     A
C1609  C1628   1.406   .     A
C1610  C1627   1.412   .     A
C1610  C1621   1.384   .     A
C1610  S1749   1.774   .     S
C1611  C1618   1.376   .     A
C1611  S1750   1.764   .     S
C1611  C1627   1.413   .     A
C1612  C1629   1.450   .     S
C1612  O1691   1.302   .     A
C1612  O1680   1.303   .     A
C1613  C1628   1.410   .     A
C1613  C1619   1.384   .     A
C1613  S1751   1.773   .     S
C1614  C1630   1.402   .     A
C1614  C1625   1.380   .     A
C1614  S1752   1.773   .     S
C1615  C1629   1.408   .     A
C1615  S1753   1.775   .     S
C1615  C1626   1.379   .     A
C1616  C1629   1.420   .     A
C1616  C1622   1.380   .     A
C1616  S1754   1.762   .     S
C1617  C1630   1.405   .     A
C1617  C1624   1.379   .     A
C1617  S1755   1.774   .     S
C1618  C1632   1.406   .     A
C1618  S1756   1.770   .     S
C1619  C1631   1.412   .     A
C1619  S1742   1.774   .     S
C1620  S1743   1.764   .     S
C1620  C1631   1.413   .     A
C1621  C1632   1.410   .     A
C1621  S1744   1.773   .     S
C1622  S1745   1.773   .     S
C1622  C1635   1.402   .     A
C1623  O1739   1.300   .     A
C1623  O1713   1.303   .     A
C1623  C1628   1.445   .     S
C1624  C1633   1.408   .     A
C1624  S1746   1.775   .     S
C1625  S1747   1.762   .     S
C1625  C1633   1.420   .     A
C1626  S1748   1.774   .     S
C1626  C1635   1.405   .     A
C1627  C1634   1.454   .     S
C1631  C1639   1.454   .     S
C1632  C1638   1.445   .     S
C1633  C1637   1.450   .     S
C1634  O1724   1.303   .     A
C1634  O1735   1.304   .     A
C1635  C1636   1.426   .     S
C1636  O1740   1.301   .     A
C1636  O1672   1.292   .     A
C1637  O1670   1.303   .     A
C1637  O1671   1.302   .     A
C1638  O1676   1.300   .     A
C1638  O1673   1.303   .     A
C1639  O1674   1.303   .     A
C1639  O1675   1.304   .     A
C1640  N1826   1.377   .     A
C1640  O1677   1.370   .     S
H1641  O1677   0.977   .     S
H1642  O1692   0.988   .     S
H1643  O1695   0.989   .     S
H1644  O1698   0.988   .     S
H1645  O1701   0.991   .     S
H1646  O1705   0.988   .     S
H1647  O1708   0.990   .     S
H1648  O1711   0.989   .     S
H1649  O1715   0.990   .     S
H1650  O1718   0.988   .     S
H1651  O1721   0.989   .     S
H1652  O1838   0.980   .     S
H1653  O1725   0.988   .     S
H1654  O1728   0.991   .     S
H1655  O1731   0.988   .     S
H1656  O1734   0.990   .     S
H1657  O1738   0.989   .     S
H1658  O1679   0.977   .     S
H1659  O1681   0.980   .     S
H1660  O1682   0.977   .     S
H1661  O1683   0.980   .     S
H1662  O1684   0.977   .     S
H1663  O1685   0.980   .     S
H1664  O1688   0.990   .     S
N1665  C1764   1.374   1_455 A
N1665  Zn1757  2.042   .     S
N1666  C1800   1.377   1_455 A
N1666  Zn1758  2.042   .     S
N1667  Zn1759  2.042   .     S
N1668  Zn1760  2.042   .     S
O1669  Zn1757  1.997   .     S
O1670  Zn1760  1.997   .     S
O1671  Zn1759  2.012   .     S
O1672  Zn1440  2.012   1_565 S
O1673  Zn1440  2.028   1_565 S
O1674  Zn1759  2.028   .     S
O1675  Zn1760  2.034   .     S
O1676  Zn1439  2.034   1_565 S
O1678  H1812   0.980   1_455 S
O1680  Zn1918  1.997   .     S
O1686  S1741   1.500   .     D
O1687  S1741   1.502   .     D
O1688  S1741   1.678   .     S
O1689  S1749   1.503   .     D
O1690  S1749   1.504   .     D
O1691  Zn1917  2.012   .     S
O1692  S1749   1.674   .     S
O1693  S1750   1.501   .     D
O1694  S1750   1.501   .     D
O1695  S1750   1.679   .     S
O1696  S1751   1.502   .     D
O1697  S1751   1.503   .     D
O1698  S1751   1.679   .     S
O1699  S1752   1.499   .     D
O1700  S1752   1.503   .     D
O1701  S1752   1.681   .     S
O1702  Zn1758  2.012   .     S
O1703  S1753   1.503   .     D
O1704  S1753   1.504   .     D
O1705  S1753   1.673   .     S
O1706  S1754   1.500   .     D
O1707  S1754   1.504   .     D
O1708  S1754   1.680   .     S
O1709  S1755   1.503   .     D
O1710  S1755   1.503   .     D
O1711  S1755   1.678   .     S
O1712  S1756   1.500   .     D
O1713  Zn1918  2.028   .     S
O1714  S1756   1.502   .     D
O1715  S1756   1.678   .     S
O1716  S1742   1.503   .     D
O1717  S1742   1.504   .     D
O1718  S1742   1.674   .     S
O1719  S1743   1.501   .     D
O1720  S1743   1.501   .     D
O1721  S1743   1.679   .     S
O1722  S1744   1.502   .     D
O1723  S1744   1.503   .     D
O1724  Zn1757  2.028   .     S
O1725  S1744   1.679   .     S
O1726  S1745   1.499   .     D
O1727  S1745   1.503   .     D
O1728  S1745   1.681   .     S
O1729  S1746   1.504   .     D
O1730  S1746   1.504   .     D
O1731  S1746   1.673   .     S
O1732  S1747   1.500   .     D
O1733  S1747   1.504   .     D
O1734  S1747   1.680   .     S
O1735  Zn1758  2.034   .     S
O1736  S1748   1.503   .     D
O1737  S1748   1.503   .     D
O1738  S1748   1.678   .     S
O1739  Zn1917  2.034   .     S
O1740  Zn1439  1.997   1_565 S
Zn1757 O1899   2.034   1_455 S
Zn1757 O1851   2.012   1_455 S
Zn1758 O1873   2.028   1_455 S
Zn1758 O1840   1.997   1_455 S
C1761  O1829   1.301   .     A
C1761  C1790   1.426   .     S
C1761  O1862   1.292   .     A
C1762  O1838   1.369   .     S
C1762  C483    1.415   1_556 S
C1762  N1825   1.374   .     S
C1763  O1839   1.367   .     S
C1763  N1826   1.376   .     S
C1764  N1665   1.374   1_655 A
C1764  O1841   1.372   .     S
C1764  C520    1.415   1_556 S
C1765  N1828   1.377   .     A
C1765  O1842   1.370   .     S
C1766  O1843   1.369   .     S
C1766  C487    1.415   1_556 S
C1766  N1507   1.374   1_565 S
C1767  O1844   1.367   .     S
C1767  N1508   1.376   1_565 S
C1768  O1845   1.372   .     S
C1768  N1827   1.374   .     A
C1768  C485    1.415   1_556 S
C1769  S1901   1.770   .     S
C1769  C1780   1.376   .     A
C1769  C1788   1.406   .     A
C1770  C1787   1.412   .     A
C1770  C1781   1.384   .     A
C1770  S1909   1.774   .     S
C1771  C1778   1.376   .     A
C1771  S1910   1.764   .     S
C1771  C1787   1.413   .     A
C1772  C1789   1.450   .     S
C1772  O1851   1.302   .     A
C1772  O1840   1.303   .     A
C1773  C1788   1.410   .     A
C1773  C1779   1.384   .     A
C1773  S1911   1.773   .     S
C1774  C1790   1.402   .     A
C1774  C1785   1.380   .     A
C1774  S1912   1.773   .     S
C1775  C1789   1.408   .     A
C1775  S1913   1.775   .     S
C1775  C1786   1.379   .     A
C1776  C1789   1.420   .     A
C1776  C1782   1.380   .     A
C1776  S1914   1.762   .     S
C1777  C1790   1.405   .     A
C1777  C1784   1.379   .     A
C1777  S1915   1.774   .     S
C1778  C1792   1.406   .     A
C1778  S1916   1.770   .     S
C1779  C1791   1.412   .     A
C1779  S1902   1.774   .     S
C1780  S1903   1.764   .     S
C1780  C1791   1.413   .     A
C1781  C1792   1.410   .     A
C1781  S1904   1.773   .     S
C1782  S1905   1.773   .     S
C1782  C1795   1.402   .     A
C1783  O1899   1.300   .     A
C1783  O1873   1.303   .     A
C1783  C1788   1.445   .     S
C1784  C1793   1.408   .     A
C1784  S1906   1.775   .     S
C1785  S1907   1.762   .     S
C1785  C1793   1.420   .     A
C1786  S1908   1.774   .     S
C1786  C1795   1.405   .     A
C1787  C1794   1.454   .     S
C1791  C1799   1.454   .     S
C1792  C1798   1.445   .     S
C1793  C1797   1.450   .     S
C1794  O1884   1.303   .     A
C1794  O1895   1.304   .     A
C1795  C1796   1.426   .     S
C1796  O1900   1.301   .     A
C1796  O1832   1.292   .     A
C1797  O1830   1.303   .     A
C1797  O1831   1.302   .     A
C1798  O1836   1.300   .     A
C1798  O1833   1.303   .     A
C1799  O1834   1.303   .     A
C1799  O1835   1.304   .     A
C1800  N1666   1.377   1_655 A
C1800  O1837   1.370   .     S
H1801  O1837   0.977   .     S
H1802  O1852   0.988   .     S
H1803  O1855   0.989   .     S
H1804  O1858   0.988   .     S
H1805  O1861   0.991   .     S
H1806  O1865   0.988   .     S
H1807  O1868   0.990   .     S
H1808  O1871   0.989   .     S
H1809  O1875   0.990   .     S
H1810  O1878   0.988   .     S
H1811  O1881   0.989   .     S
H1812  O1678   0.980   1_655 S
H1813  O1885   0.988   .     S
H1814  O1888   0.991   .     S
H1815  O1891   0.988   .     S
H1816  O1894   0.990   .     S
H1817  O1898   0.989   .     S
H1818  O1839   0.977   .     S
H1819  O1841   0.980   .     S
H1820  O1842   0.977   .     S
H1821  O1843   0.980   .     S
H1822  O1844   0.977   .     S
H1823  O1845   0.980   .     S
H1824  O1848   0.990   .     S
N1825  Zn1917  2.042   .     S
N1826  Zn1918  2.042   .     S
N1827  Zn1919  2.042   .     S
N1828  Zn1920  2.042   .     S
O1829  Zn1917  1.997   .     S
O1830  Zn1920  1.997   .     S
O1831  Zn1919  2.012   .     S
O1832  Zn1600  2.012   1_565 S
O1833  Zn1600  2.028   1_565 S
O1834  Zn1919  2.028   .     S
O1835  Zn1920  2.034   .     S
O1836  Zn1599  2.034   1_565 S
O1840  Zn1758  1.997   1_655 S
O1846  S1901   1.500   .     D
O1847  S1901   1.502   .     D
O1848  S1901   1.678   .     S
O1849  S1909   1.503   .     D
O1850  S1909   1.504   .     D
O1851  Zn1757  2.012   1_655 S
O1852  S1909   1.674   .     S
O1853  S1910   1.501   .     D
O1854  S1910   1.501   .     D
O1855  S1910   1.679   .     S
O1856  S1911   1.502   .     D
O1857  S1911   1.503   .     D
O1858  S1911   1.679   .     S
O1859  S1912   1.499   .     D
O1860  S1912   1.503   .     D
O1861  S1912   1.681   .     S
O1862  Zn1918  2.012   .     S
O1863  S1913   1.503   .     D
O1864  S1913   1.504   .     D
O1865  S1913   1.673   .     S
O1866  S1914   1.500   .     D
O1867  S1914   1.504   .     D
O1868  S1914   1.680   .     S
O1869  S1915   1.503   .     D
O1870  S1915   1.503   .     D
O1871  S1915   1.678   .     S
O1872  S1916   1.500   .     D
O1873  Zn1758  2.028   1_655 S
O1874  S1916   1.502   .     D
O1875  S1916   1.678   .     S
O1876  S1902   1.503   .     D
O1877  S1902   1.504   .     D
O1878  S1902   1.674   .     S
O1879  S1903   1.501   .     D
O1880  S1903   1.501   .     D
O1881  S1903   1.679   .     S
O1882  S1904   1.502   .     D
O1883  S1904   1.503   .     D
O1884  Zn1917  2.028   .     S
O1885  S1904   1.679   .     S
O1886  S1905   1.499   .     D
O1887  S1905   1.503   .     D
O1888  S1905   1.681   .     S
O1889  S1906   1.504   .     D
O1890  S1906   1.504   .     D
O1891  S1906   1.673   .     S
O1892  S1907   1.500   .     D
O1893  S1907   1.504   .     D
O1894  S1907   1.680   .     S
O1895  Zn1918  2.034   .     S
O1896  S1908   1.503   .     D
O1897  S1908   1.503   .     D
O1898  S1908   1.678   .     S
O1899  Zn1757  2.034   1_655 S
O1900  Zn1599  1.997   1_565 S
