data_str_m3_o1_o5_pcu_sym.48
_audit_creation_date              2020-01-03
_audit_creation_method            'Materials Studio'
_symmetry_space_group_name_H-M    'P1'
_symmetry_Int_Tables_number       1
_symmetry_cell_setting            triclinic
loop_
_symmetry_equiv_pos_as_xyz
  x,y,z
_cell_length_a                    32.3034
_cell_length_b                    29.8806
_cell_length_c                    26.6284
_cell_angle_alpha                 89.9993
_cell_angle_beta                  93.7213
_cell_angle_gamma                 90.0026
loop_
_atom_site_label
_atom_site_type_symbol
_atom_site_fract_x
_atom_site_fract_y
_atom_site_fract_z
_atom_site_U_iso_or_equiv
_atom_site_adp_type
_atom_site_occupancy
O1     O     0.10559   0.20487   0.16666   0.00000  Uiso   1.00
O2     O     0.22774   0.12846   0.16667   0.00000  Uiso   1.00
O3     O     0.22774   0.20487   0.16667   0.00000  Uiso   1.00
O4     O     0.10559   0.12846   0.16666   0.00000  Uiso   1.00
C5     C     0.08698   0.16667   0.17142   0.00000  Uiso   1.00
C6     C     0.24635   0.16667   0.16192   0.00000  Uiso   1.00
O7     O     0.16667   0.20488   0.09511   0.00000  Uiso   1.00
O8     O     0.16666   0.12845   0.23822   0.00000  Uiso   1.00
O9     O     0.16666   0.20488   0.23822   0.00000  Uiso   1.00
O10    O     0.16667   0.12845   0.09511   0.00000  Uiso   1.00
C11    C     0.16660   0.16667   0.07301   0.00000  Uiso   1.00
C12    C     0.16674   0.16667   0.26032   0.00000  Uiso   1.00
Zn13   Zn    0.16667   0.21771   0.16667   0.00000  Uiso   1.00
Zn14   Zn    0.16667   0.11563   0.16667   0.00000  Uiso   1.00
C15    C     0.16665   0.16667   0.02184   0.00000  Uiso   1.00
C16    C     0.16668   0.16667   0.31149   0.00000  Uiso   1.00
C17    C     0.02098   0.12557   0.17419   0.00000  Uiso   1.00
C18    C     0.31235   0.20777   0.15916   0.00000  Uiso   1.00
C19    C     0.31235   0.12558   0.15915   0.00000  Uiso   1.00
C20    C     0.02099   0.20776   0.17418   0.00000  Uiso   1.00
C21    C     0.29083   0.16667   0.15660   0.00000  Uiso   1.00
C22    C     0.04250   0.16666   0.17674   0.00000  Uiso   1.00
C23    C     0.19086   0.02390   0.20187   0.00000  Uiso   1.00
C24    C     0.14247   0.30944   0.13147   0.00000  Uiso   1.00
C25    C     0.14247   0.02390   0.13147   0.00000  Uiso   1.00
C26    C     0.19086   0.30944   0.20187   0.00000  Uiso   1.00
N27    N     0.16667   0.28573   0.16667   0.00000  Uiso   1.00
N28    N     0.16667   0.04760   0.16667   0.00000  Uiso   1.00
N29    N     0.04113   0.08445   0.18986   0.00000  Uiso   1.00
O30    O     0.06066   0.08182   0.23410   0.00000  Uiso   1.00
O31    O     0.04003   0.04962   0.16053   0.00000  Uiso   1.00
N32    N     0.29220   0.24889   0.14354   0.00000  Uiso   1.00
O33    O     0.27268   0.25156   0.09930   0.00000  Uiso   1.00
O34    O     0.29332   0.28370   0.17288   0.00000  Uiso   1.00
N35    N     0.29219   0.08447   0.14347   0.00000  Uiso   1.00
O36    O     0.27268   0.08184   0.09923   0.00000  Uiso   1.00
O37    O     0.29328   0.04964   0.17280   0.00000  Uiso   1.00
N38    N     0.04115   0.24887   0.18983   0.00000  Uiso   1.00
O39    O     0.06066   0.25152   0.23406   0.00000  Uiso   1.00
O40    O     0.04004   0.28369   0.16050   0.00000  Uiso   1.00
I41    I     0.22929   0.05820   0.25808   0.00000  Uiso   1.00
I42    I     0.10405   0.27514   0.07525   0.00000  Uiso   1.00
I43    I     0.10404   0.05820   0.07525   0.00000  Uiso   1.00
I44    I     0.22928   0.27514   0.25809   0.00000  Uiso   1.00
O45    O     0.43892   0.20487   0.16666   0.00000  Uiso   1.00
O46    O     0.56108   0.12846   0.16667   0.00000  Uiso   1.00
O47    O     0.56108   0.20487   0.16667   0.00000  Uiso   1.00
O48    O     0.43892   0.12846   0.16666   0.00000  Uiso   1.00
C49    C     0.42032   0.16667   0.17142   0.00000  Uiso   1.00
C50    C     0.57968   0.16667   0.16192   0.00000  Uiso   1.00
O51    O     0.50000   0.20488   0.09511   0.00000  Uiso   1.00
O52    O     0.50000   0.12845   0.23822   0.00000  Uiso   1.00
O53    O     0.50000   0.20488   0.23822   0.00000  Uiso   1.00
O54    O     0.50000   0.12845   0.09511   0.00000  Uiso   1.00
C55    C     0.49993   0.16667   0.07301   0.00000  Uiso   1.00
C56    C     0.50007   0.16667   0.26032   0.00000  Uiso   1.00
Zn57   Zn    0.50000   0.21771   0.16667   0.00000  Uiso   1.00
Zn58   Zn    0.50000   0.11563   0.16667   0.00000  Uiso   1.00
C59    C     0.49998   0.16667   0.02184   0.00000  Uiso   1.00
C60    C     0.50002   0.16667   0.31149   0.00000  Uiso   1.00
C61    C     0.35431   0.12557   0.17419   0.00000  Uiso   1.00
C62    C     0.64569   0.20777   0.15916   0.00000  Uiso   1.00
C63    C     0.64568   0.12558   0.15915   0.00000  Uiso   1.00
C64    C     0.35432   0.20776   0.17418   0.00000  Uiso   1.00
C65    C     0.62417   0.16667   0.15660   0.00000  Uiso   1.00
C66    C     0.37583   0.16666   0.17674   0.00000  Uiso   1.00
C67    C     0.52420   0.02390   0.20187   0.00000  Uiso   1.00
C68    C     0.47580   0.30944   0.13147   0.00000  Uiso   1.00
C69    C     0.47580   0.02390   0.13147   0.00000  Uiso   1.00
C70    C     0.52419   0.30944   0.20187   0.00000  Uiso   1.00
N71    N     0.50000   0.28573   0.16667   0.00000  Uiso   1.00
N72    N     0.50000   0.04760   0.16667   0.00000  Uiso   1.00
N73    N     0.37447   0.08445   0.18986   0.00000  Uiso   1.00
O74    O     0.39399   0.08182   0.23410   0.00000  Uiso   1.00
O75    O     0.37337   0.04962   0.16053   0.00000  Uiso   1.00
N76    N     0.62553   0.24889   0.14354   0.00000  Uiso   1.00
O77    O     0.60601   0.25156   0.09930   0.00000  Uiso   1.00
O78    O     0.62666   0.28370   0.17288   0.00000  Uiso   1.00
N79    N     0.62552   0.08447   0.14347   0.00000  Uiso   1.00
O80    O     0.60601   0.08184   0.09923   0.00000  Uiso   1.00
O81    O     0.62661   0.04964   0.17280   0.00000  Uiso   1.00
N82    N     0.37448   0.24887   0.18983   0.00000  Uiso   1.00
O83    O     0.39400   0.25152   0.23406   0.00000  Uiso   1.00
O84    O     0.37337   0.28369   0.16050   0.00000  Uiso   1.00
I85    I     0.56262   0.05820   0.25808   0.00000  Uiso   1.00
I86    I     0.43738   0.27514   0.07525   0.00000  Uiso   1.00
I87    I     0.43738   0.05820   0.07525   0.00000  Uiso   1.00
I88    I     0.56261   0.27514   0.25809   0.00000  Uiso   1.00
O89    O     0.77226   0.20487   0.16666   0.00000  Uiso   1.00
O90    O     0.89441   0.12846   0.16667   0.00000  Uiso   1.00
O91    O     0.89441   0.20487   0.16667   0.00000  Uiso   1.00
O92    O     0.77226   0.12846   0.16666   0.00000  Uiso   1.00
C93    C     0.75365   0.16667   0.17142   0.00000  Uiso   1.00
C94    C     0.91302   0.16667   0.16192   0.00000  Uiso   1.00
O95    O     0.83334   0.20488   0.09511   0.00000  Uiso   1.00
O96    O     0.83333   0.12845   0.23822   0.00000  Uiso   1.00
O97    O     0.83333   0.20488   0.23822   0.00000  Uiso   1.00
O98    O     0.83334   0.12845   0.09511   0.00000  Uiso   1.00
C99    C     0.83326   0.16667   0.07301   0.00000  Uiso   1.00
C100   C     0.83340   0.16667   0.26032   0.00000  Uiso   1.00
Zn101  Zn    0.83333   0.21771   0.16667   0.00000  Uiso   1.00
Zn102  Zn    0.83333   0.11563   0.16667   0.00000  Uiso   1.00
C103   C     0.83332   0.16667   0.02184   0.00000  Uiso   1.00
C104   C     0.83335   0.16667   0.31149   0.00000  Uiso   1.00
C105   C     0.68765   0.12557   0.17419   0.00000  Uiso   1.00
C106   C     0.97902   0.20777   0.15916   0.00000  Uiso   1.00
C107   C     0.97901   0.12558   0.15915   0.00000  Uiso   1.00
C108   C     0.68765   0.20776   0.17418   0.00000  Uiso   1.00
C109   C     0.95750   0.16667   0.15660   0.00000  Uiso   1.00
C110   C     0.70917   0.16666   0.17674   0.00000  Uiso   1.00
C111   C     0.85753   0.02390   0.20187   0.00000  Uiso   1.00
C112   C     0.80914   0.30944   0.13147   0.00000  Uiso   1.00
C113   C     0.80914   0.02390   0.13147   0.00000  Uiso   1.00
C114   C     0.85753   0.30944   0.20187   0.00000  Uiso   1.00
N115   N     0.83333   0.28573   0.16667   0.00000  Uiso   1.00
N116   N     0.83333   0.04760   0.16667   0.00000  Uiso   1.00
N117   N     0.70780   0.08445   0.18986   0.00000  Uiso   1.00
O118   O     0.72733   0.08182   0.23410   0.00000  Uiso   1.00
O119   O     0.70670   0.04962   0.16053   0.00000  Uiso   1.00
N120   N     0.95887   0.24889   0.14354   0.00000  Uiso   1.00
O121   O     0.93934   0.25156   0.09930   0.00000  Uiso   1.00
O122   O     0.95999   0.28370   0.17288   0.00000  Uiso   1.00
N123   N     0.95885   0.08447   0.14347   0.00000  Uiso   1.00
O124   O     0.93934   0.08184   0.09923   0.00000  Uiso   1.00
O125   O     0.95994   0.04964   0.17280   0.00000  Uiso   1.00
N126   N     0.70782   0.24887   0.18983   0.00000  Uiso   1.00
O127   O     0.72733   0.25152   0.23406   0.00000  Uiso   1.00
O128   O     0.70671   0.28369   0.16050   0.00000  Uiso   1.00
I129   I     0.89595   0.05820   0.25808   0.00000  Uiso   1.00
I130   I     0.77072   0.27514   0.07525   0.00000  Uiso   1.00
I131   I     0.77071   0.05820   0.07525   0.00000  Uiso   1.00
I132   I     0.89595   0.27514   0.25809   0.00000  Uiso   1.00
O133   O     0.10559   0.53821   0.16666   0.00000  Uiso   1.00
O134   O     0.22774   0.46179   0.16667   0.00000  Uiso   1.00
O135   O     0.22774   0.53821   0.16667   0.00000  Uiso   1.00
O136   O     0.10559   0.46179   0.16666   0.00000  Uiso   1.00
C137   C     0.08698   0.50000   0.17142   0.00000  Uiso   1.00
C138   C     0.24635   0.50000   0.16192   0.00000  Uiso   1.00
O139   O     0.16667   0.53821   0.09511   0.00000  Uiso   1.00
O140   O     0.16666   0.46179   0.23822   0.00000  Uiso   1.00
O141   O     0.16666   0.53821   0.23822   0.00000  Uiso   1.00
O142   O     0.16667   0.46179   0.09511   0.00000  Uiso   1.00
C143   C     0.16660   0.50000   0.07301   0.00000  Uiso   1.00
C144   C     0.16674   0.50000   0.26032   0.00000  Uiso   1.00
Zn145  Zn    0.16667   0.55104   0.16667   0.00000  Uiso   1.00
Zn146  Zn    0.16667   0.44896   0.16667   0.00000  Uiso   1.00
C147   C     0.16665   0.50000   0.02184   0.00000  Uiso   1.00
C148   C     0.16668   0.50000   0.31149   0.00000  Uiso   1.00
C149   C     0.02098   0.45890   0.17419   0.00000  Uiso   1.00
C150   C     0.31235   0.54110   0.15916   0.00000  Uiso   1.00
C151   C     0.31235   0.45891   0.15915   0.00000  Uiso   1.00
C152   C     0.02099   0.54110   0.17418   0.00000  Uiso   1.00
C153   C     0.29083   0.50001   0.15660   0.00000  Uiso   1.00
C154   C     0.04250   0.50000   0.17674   0.00000  Uiso   1.00
C155   C     0.19086   0.35723   0.20187   0.00000  Uiso   1.00
C156   C     0.14247   0.64277   0.13147   0.00000  Uiso   1.00
C157   C     0.14247   0.35723   0.13147   0.00000  Uiso   1.00
C158   C     0.19086   0.64277   0.20187   0.00000  Uiso   1.00
N159   N     0.16667   0.61907   0.16667   0.00000  Uiso   1.00
N160   N     0.16667   0.38093   0.16667   0.00000  Uiso   1.00
N161   N     0.04113   0.41778   0.18986   0.00000  Uiso   1.00
O162   O     0.06066   0.41515   0.23410   0.00000  Uiso   1.00
O163   O     0.04003   0.38296   0.16053   0.00000  Uiso   1.00
N164   N     0.29220   0.58223   0.14354   0.00000  Uiso   1.00
O165   O     0.27268   0.58489   0.09930   0.00000  Uiso   1.00
O166   O     0.29332   0.61704   0.17288   0.00000  Uiso   1.00
N167   N     0.29219   0.41780   0.14347   0.00000  Uiso   1.00
O168   O     0.27268   0.41518   0.09923   0.00000  Uiso   1.00
O169   O     0.29328   0.38298   0.17280   0.00000  Uiso   1.00
N170   N     0.04115   0.58221   0.18983   0.00000  Uiso   1.00
O171   O     0.06066   0.58485   0.23406   0.00000  Uiso   1.00
O172   O     0.04004   0.61702   0.16050   0.00000  Uiso   1.00
I173   I     0.22929   0.39153   0.25808   0.00000  Uiso   1.00
I174   I     0.10405   0.60847   0.07525   0.00000  Uiso   1.00
I175   I     0.10404   0.39153   0.07525   0.00000  Uiso   1.00
I176   I     0.22928   0.60847   0.25809   0.00000  Uiso   1.00
O177   O     0.43892   0.53821   0.16666   0.00000  Uiso   1.00
O178   O     0.56108   0.46179   0.16667   0.00000  Uiso   1.00
O179   O     0.56108   0.53821   0.16667   0.00000  Uiso   1.00
O180   O     0.43892   0.46179   0.16666   0.00000  Uiso   1.00
C181   C     0.42032   0.50000   0.17142   0.00000  Uiso   1.00
C182   C     0.57968   0.50000   0.16192   0.00000  Uiso   1.00
O183   O     0.50000   0.53821   0.09511   0.00000  Uiso   1.00
O184   O     0.50000   0.46179   0.23822   0.00000  Uiso   1.00
O185   O     0.50000   0.53821   0.23822   0.00000  Uiso   1.00
O186   O     0.50000   0.46179   0.09511   0.00000  Uiso   1.00
C187   C     0.49993   0.50000   0.07301   0.00000  Uiso   1.00
C188   C     0.50007   0.50000   0.26032   0.00000  Uiso   1.00
Zn189  Zn    0.50000   0.55104   0.16667   0.00000  Uiso   1.00
Zn190  Zn    0.50000   0.44896   0.16667   0.00000  Uiso   1.00
C191   C     0.49998   0.50000   0.02184   0.00000  Uiso   1.00
C192   C     0.50002   0.50000   0.31149   0.00000  Uiso   1.00
C193   C     0.35431   0.45890   0.17419   0.00000  Uiso   1.00
C194   C     0.64569   0.54110   0.15916   0.00000  Uiso   1.00
C195   C     0.64568   0.45891   0.15915   0.00000  Uiso   1.00
C196   C     0.35432   0.54110   0.17418   0.00000  Uiso   1.00
C197   C     0.62417   0.50001   0.15660   0.00000  Uiso   1.00
C198   C     0.37583   0.50000   0.17674   0.00000  Uiso   1.00
C199   C     0.52420   0.35723   0.20187   0.00000  Uiso   1.00
C200   C     0.47580   0.64277   0.13147   0.00000  Uiso   1.00
C201   C     0.47580   0.35723   0.13147   0.00000  Uiso   1.00
C202   C     0.52419   0.64277   0.20187   0.00000  Uiso   1.00
N203   N     0.50000   0.61907   0.16667   0.00000  Uiso   1.00
N204   N     0.50000   0.38093   0.16667   0.00000  Uiso   1.00
N205   N     0.37447   0.41778   0.18986   0.00000  Uiso   1.00
O206   O     0.39399   0.41515   0.23410   0.00000  Uiso   1.00
O207   O     0.37337   0.38296   0.16053   0.00000  Uiso   1.00
N208   N     0.62553   0.58223   0.14354   0.00000  Uiso   1.00
O209   O     0.60601   0.58489   0.09930   0.00000  Uiso   1.00
O210   O     0.62666   0.61704   0.17288   0.00000  Uiso   1.00
N211   N     0.62552   0.41780   0.14347   0.00000  Uiso   1.00
O212   O     0.60601   0.41518   0.09923   0.00000  Uiso   1.00
O213   O     0.62661   0.38298   0.17280   0.00000  Uiso   1.00
N214   N     0.37448   0.58221   0.18983   0.00000  Uiso   1.00
O215   O     0.39400   0.58485   0.23406   0.00000  Uiso   1.00
O216   O     0.37337   0.61702   0.16050   0.00000  Uiso   1.00
I217   I     0.56262   0.39153   0.25808   0.00000  Uiso   1.00
I218   I     0.43738   0.60847   0.07525   0.00000  Uiso   1.00
I219   I     0.43738   0.39153   0.07525   0.00000  Uiso   1.00
I220   I     0.56261   0.60847   0.25809   0.00000  Uiso   1.00
O221   O     0.77226   0.53821   0.16666   0.00000  Uiso   1.00
O222   O     0.89441   0.46179   0.16667   0.00000  Uiso   1.00
O223   O     0.89441   0.53821   0.16667   0.00000  Uiso   1.00
O224   O     0.77226   0.46179   0.16666   0.00000  Uiso   1.00
C225   C     0.75365   0.50000   0.17142   0.00000  Uiso   1.00
C226   C     0.91302   0.50000   0.16192   0.00000  Uiso   1.00
O227   O     0.83334   0.53821   0.09511   0.00000  Uiso   1.00
O228   O     0.83333   0.46179   0.23822   0.00000  Uiso   1.00
O229   O     0.83333   0.53821   0.23822   0.00000  Uiso   1.00
O230   O     0.83334   0.46179   0.09511   0.00000  Uiso   1.00
C231   C     0.83326   0.50000   0.07301   0.00000  Uiso   1.00
C232   C     0.83340   0.50000   0.26032   0.00000  Uiso   1.00
Zn233  Zn    0.83333   0.55104   0.16667   0.00000  Uiso   1.00
Zn234  Zn    0.83333   0.44896   0.16667   0.00000  Uiso   1.00
C235   C     0.83332   0.50000   0.02184   0.00000  Uiso   1.00
C236   C     0.83335   0.50000   0.31149   0.00000  Uiso   1.00
C237   C     0.68765   0.45890   0.17419   0.00000  Uiso   1.00
C238   C     0.97902   0.54110   0.15916   0.00000  Uiso   1.00
C239   C     0.97901   0.45891   0.15915   0.00000  Uiso   1.00
C240   C     0.68765   0.54110   0.17418   0.00000  Uiso   1.00
C241   C     0.95750   0.50001   0.15660   0.00000  Uiso   1.00
C242   C     0.70917   0.50000   0.17674   0.00000  Uiso   1.00
C243   C     0.85753   0.35723   0.20187   0.00000  Uiso   1.00
C244   C     0.80914   0.64277   0.13147   0.00000  Uiso   1.00
C245   C     0.80914   0.35723   0.13147   0.00000  Uiso   1.00
C246   C     0.85753   0.64277   0.20187   0.00000  Uiso   1.00
N247   N     0.83333   0.61907   0.16667   0.00000  Uiso   1.00
N248   N     0.83333   0.38093   0.16667   0.00000  Uiso   1.00
N249   N     0.70780   0.41778   0.18986   0.00000  Uiso   1.00
O250   O     0.72733   0.41515   0.23410   0.00000  Uiso   1.00
O251   O     0.70670   0.38296   0.16053   0.00000  Uiso   1.00
N252   N     0.95887   0.58223   0.14354   0.00000  Uiso   1.00
O253   O     0.93934   0.58489   0.09930   0.00000  Uiso   1.00
O254   O     0.95999   0.61704   0.17288   0.00000  Uiso   1.00
N255   N     0.95885   0.41780   0.14347   0.00000  Uiso   1.00
O256   O     0.93934   0.41518   0.09923   0.00000  Uiso   1.00
O257   O     0.95994   0.38298   0.17280   0.00000  Uiso   1.00
N258   N     0.70782   0.58221   0.18983   0.00000  Uiso   1.00
O259   O     0.72733   0.58485   0.23406   0.00000  Uiso   1.00
O260   O     0.70671   0.61702   0.16050   0.00000  Uiso   1.00
I261   I     0.89595   0.39153   0.25808   0.00000  Uiso   1.00
I262   I     0.77072   0.60847   0.07525   0.00000  Uiso   1.00
I263   I     0.77071   0.39153   0.07525   0.00000  Uiso   1.00
I264   I     0.89595   0.60847   0.25809   0.00000  Uiso   1.00
O265   O     0.10559   0.87154   0.16666   0.00000  Uiso   1.00
O266   O     0.22774   0.79513   0.16667   0.00000  Uiso   1.00
O267   O     0.22774   0.87154   0.16667   0.00000  Uiso   1.00
O268   O     0.10559   0.79513   0.16666   0.00000  Uiso   1.00
C269   C     0.08698   0.83333   0.17142   0.00000  Uiso   1.00
C270   C     0.24635   0.83334   0.16192   0.00000  Uiso   1.00
O271   O     0.16667   0.87155   0.09511   0.00000  Uiso   1.00
O272   O     0.16666   0.79512   0.23822   0.00000  Uiso   1.00
O273   O     0.16666   0.87155   0.23822   0.00000  Uiso   1.00
O274   O     0.16667   0.79512   0.09511   0.00000  Uiso   1.00
C275   C     0.16660   0.83333   0.07301   0.00000  Uiso   1.00
C276   C     0.16674   0.83333   0.26032   0.00000  Uiso   1.00
Zn277  Zn    0.16667   0.88437   0.16667   0.00000  Uiso   1.00
Zn278  Zn    0.16667   0.78229   0.16667   0.00000  Uiso   1.00
C279   C     0.16665   0.83333   0.02184   0.00000  Uiso   1.00
C280   C     0.16668   0.83333   0.31149   0.00000  Uiso   1.00
C281   C     0.02098   0.79224   0.17419   0.00000  Uiso   1.00
C282   C     0.31235   0.87444   0.15916   0.00000  Uiso   1.00
C283   C     0.31235   0.79224   0.15915   0.00000  Uiso   1.00
C284   C     0.02099   0.87443   0.17418   0.00000  Uiso   1.00
C285   C     0.29083   0.83334   0.15660   0.00000  Uiso   1.00
C286   C     0.04250   0.83333   0.17674   0.00000  Uiso   1.00
C287   C     0.19086   0.69056   0.20187   0.00000  Uiso   1.00
C288   C     0.14247   0.97610   0.13147   0.00000  Uiso   1.00
C289   C     0.14247   0.69056   0.13147   0.00000  Uiso   1.00
C290   C     0.19086   0.97610   0.20187   0.00000  Uiso   1.00
N291   N     0.16667   0.95240   0.16667   0.00000  Uiso   1.00
N292   N     0.16667   0.71427   0.16667   0.00000  Uiso   1.00
N293   N     0.04113   0.75111   0.18986   0.00000  Uiso   1.00
O294   O     0.06066   0.74848   0.23410   0.00000  Uiso   1.00
O295   O     0.04003   0.71629   0.16053   0.00000  Uiso   1.00
N296   N     0.29220   0.91556   0.14354   0.00000  Uiso   1.00
O297   O     0.27268   0.91822   0.09930   0.00000  Uiso   1.00
O298   O     0.29332   0.95037   0.17288   0.00000  Uiso   1.00
N299   N     0.29219   0.75113   0.14347   0.00000  Uiso   1.00
O300   O     0.27268   0.74851   0.09923   0.00000  Uiso   1.00
O301   O     0.29328   0.71631   0.17280   0.00000  Uiso   1.00
N302   N     0.04115   0.91554   0.18983   0.00000  Uiso   1.00
O303   O     0.06066   0.91818   0.23406   0.00000  Uiso   1.00
O304   O     0.04004   0.95035   0.16050   0.00000  Uiso   1.00
I305   I     0.22929   0.72486   0.25808   0.00000  Uiso   1.00
I306   I     0.10405   0.94180   0.07525   0.00000  Uiso   1.00
I307   I     0.10404   0.72486   0.07525   0.00000  Uiso   1.00
I308   I     0.22928   0.94181   0.25809   0.00000  Uiso   1.00
O309   O     0.43892   0.87154   0.16666   0.00000  Uiso   1.00
O310   O     0.56108   0.79513   0.16667   0.00000  Uiso   1.00
O311   O     0.56108   0.87154   0.16667   0.00000  Uiso   1.00
O312   O     0.43892   0.79513   0.16666   0.00000  Uiso   1.00
C313   C     0.42032   0.83333   0.17142   0.00000  Uiso   1.00
C314   C     0.57968   0.83334   0.16192   0.00000  Uiso   1.00
O315   O     0.50000   0.87155   0.09511   0.00000  Uiso   1.00
O316   O     0.50000   0.79512   0.23822   0.00000  Uiso   1.00
O317   O     0.50000   0.87155   0.23822   0.00000  Uiso   1.00
O318   O     0.50000   0.79512   0.09511   0.00000  Uiso   1.00
C319   C     0.49993   0.83333   0.07301   0.00000  Uiso   1.00
C320   C     0.50007   0.83333   0.26032   0.00000  Uiso   1.00
Zn321  Zn    0.50000   0.88437   0.16667   0.00000  Uiso   1.00
Zn322  Zn    0.50000   0.78229   0.16667   0.00000  Uiso   1.00
C323   C     0.49998   0.83333   0.02184   0.00000  Uiso   1.00
C324   C     0.50002   0.83333   0.31149   0.00000  Uiso   1.00
C325   C     0.35431   0.79224   0.17419   0.00000  Uiso   1.00
C326   C     0.64569   0.87444   0.15916   0.00000  Uiso   1.00
C327   C     0.64568   0.79224   0.15915   0.00000  Uiso   1.00
C328   C     0.35432   0.87443   0.17418   0.00000  Uiso   1.00
C329   C     0.62417   0.83334   0.15660   0.00000  Uiso   1.00
C330   C     0.37583   0.83333   0.17674   0.00000  Uiso   1.00
C331   C     0.52420   0.69056   0.20187   0.00000  Uiso   1.00
C332   C     0.47580   0.97610   0.13147   0.00000  Uiso   1.00
C333   C     0.47580   0.69056   0.13147   0.00000  Uiso   1.00
C334   C     0.52419   0.97610   0.20187   0.00000  Uiso   1.00
N335   N     0.50000   0.95240   0.16667   0.00000  Uiso   1.00
N336   N     0.50000   0.71427   0.16667   0.00000  Uiso   1.00
N337   N     0.37447   0.75111   0.18986   0.00000  Uiso   1.00
O338   O     0.39399   0.74848   0.23410   0.00000  Uiso   1.00
O339   O     0.37337   0.71629   0.16053   0.00000  Uiso   1.00
N340   N     0.62553   0.91556   0.14354   0.00000  Uiso   1.00
O341   O     0.60601   0.91822   0.09930   0.00000  Uiso   1.00
O342   O     0.62666   0.95037   0.17288   0.00000  Uiso   1.00
N343   N     0.62552   0.75113   0.14347   0.00000  Uiso   1.00
O344   O     0.60601   0.74851   0.09923   0.00000  Uiso   1.00
O345   O     0.62661   0.71631   0.17280   0.00000  Uiso   1.00
N346   N     0.37448   0.91554   0.18983   0.00000  Uiso   1.00
O347   O     0.39400   0.91818   0.23406   0.00000  Uiso   1.00
O348   O     0.37337   0.95035   0.16050   0.00000  Uiso   1.00
I349   I     0.56262   0.72486   0.25808   0.00000  Uiso   1.00
I350   I     0.43738   0.94180   0.07525   0.00000  Uiso   1.00
I351   I     0.43738   0.72486   0.07525   0.00000  Uiso   1.00
I352   I     0.56261   0.94181   0.25809   0.00000  Uiso   1.00
O353   O     0.77226   0.87154   0.16666   0.00000  Uiso   1.00
O354   O     0.89441   0.79513   0.16667   0.00000  Uiso   1.00
O355   O     0.89441   0.87154   0.16667   0.00000  Uiso   1.00
O356   O     0.77226   0.79513   0.16666   0.00000  Uiso   1.00
C357   C     0.75365   0.83333   0.17142   0.00000  Uiso   1.00
C358   C     0.91302   0.83334   0.16192   0.00000  Uiso   1.00
O359   O     0.83334   0.87155   0.09511   0.00000  Uiso   1.00
O360   O     0.83333   0.79512   0.23822   0.00000  Uiso   1.00
O361   O     0.83333   0.87155   0.23822   0.00000  Uiso   1.00
O362   O     0.83334   0.79512   0.09511   0.00000  Uiso   1.00
C363   C     0.83326   0.83333   0.07301   0.00000  Uiso   1.00
C364   C     0.83340   0.83333   0.26032   0.00000  Uiso   1.00
Zn365  Zn    0.83333   0.88437   0.16667   0.00000  Uiso   1.00
Zn366  Zn    0.83333   0.78229   0.16667   0.00000  Uiso   1.00
C367   C     0.83332   0.83333   0.02184   0.00000  Uiso   1.00
C368   C     0.83335   0.83333   0.31149   0.00000  Uiso   1.00
C369   C     0.68765   0.79224   0.17419   0.00000  Uiso   1.00
C370   C     0.97902   0.87444   0.15916   0.00000  Uiso   1.00
C371   C     0.97901   0.79224   0.15915   0.00000  Uiso   1.00
C372   C     0.68765   0.87443   0.17418   0.00000  Uiso   1.00
C373   C     0.95750   0.83334   0.15660   0.00000  Uiso   1.00
C374   C     0.70917   0.83333   0.17674   0.00000  Uiso   1.00
C375   C     0.85753   0.69056   0.20187   0.00000  Uiso   1.00
C376   C     0.80914   0.97610   0.13147   0.00000  Uiso   1.00
C377   C     0.80914   0.69056   0.13147   0.00000  Uiso   1.00
C378   C     0.85753   0.97610   0.20187   0.00000  Uiso   1.00
N379   N     0.83333   0.95240   0.16667   0.00000  Uiso   1.00
N380   N     0.83333   0.71427   0.16667   0.00000  Uiso   1.00
N381   N     0.70780   0.75111   0.18986   0.00000  Uiso   1.00
O382   O     0.72733   0.74848   0.23410   0.00000  Uiso   1.00
O383   O     0.70670   0.71629   0.16053   0.00000  Uiso   1.00
N384   N     0.95887   0.91556   0.14354   0.00000  Uiso   1.00
O385   O     0.93934   0.91822   0.09930   0.00000  Uiso   1.00
O386   O     0.95999   0.95037   0.17288   0.00000  Uiso   1.00
N387   N     0.95885   0.75113   0.14347   0.00000  Uiso   1.00
O388   O     0.93934   0.74851   0.09923   0.00000  Uiso   1.00
O389   O     0.95994   0.71631   0.17280   0.00000  Uiso   1.00
N390   N     0.70782   0.91554   0.18983   0.00000  Uiso   1.00
O391   O     0.72733   0.91818   0.23406   0.00000  Uiso   1.00
O392   O     0.70671   0.95035   0.16050   0.00000  Uiso   1.00
I393   I     0.89595   0.72486   0.25808   0.00000  Uiso   1.00
I394   I     0.77072   0.94180   0.07525   0.00000  Uiso   1.00
I395   I     0.77071   0.72486   0.07525   0.00000  Uiso   1.00
I396   I     0.89595   0.94181   0.25809   0.00000  Uiso   1.00
O397   O     0.10559   0.20487   0.50000   0.00000  Uiso   1.00
O398   O     0.22774   0.12846   0.50000   0.00000  Uiso   1.00
O399   O     0.22774   0.20487   0.50000   0.00000  Uiso   1.00
O400   O     0.10559   0.12846   0.50000   0.00000  Uiso   1.00
C401   C     0.08698   0.16667   0.50475   0.00000  Uiso   1.00
C402   C     0.24635   0.16667   0.49525   0.00000  Uiso   1.00
O403   O     0.16667   0.20488   0.42845   0.00000  Uiso   1.00
O404   O     0.16666   0.12845   0.57155   0.00000  Uiso   1.00
O405   O     0.16666   0.20488   0.57155   0.00000  Uiso   1.00
O406   O     0.16667   0.12845   0.42845   0.00000  Uiso   1.00
C407   C     0.16660   0.16667   0.40635   0.00000  Uiso   1.00
C408   C     0.16674   0.16667   0.59365   0.00000  Uiso   1.00
Zn409  Zn    0.16667   0.21771   0.50000   0.00000  Uiso   1.00
Zn410  Zn    0.16667   0.11563   0.50000   0.00000  Uiso   1.00
C411   C     0.16665   0.16667   0.35518   0.00000  Uiso   1.00
C412   C     0.16668   0.16667   0.64482   0.00000  Uiso   1.00
C413   C     0.02098   0.12557   0.50752   0.00000  Uiso   1.00
C414   C     0.31235   0.20777   0.49250   0.00000  Uiso   1.00
C415   C     0.31235   0.12558   0.49248   0.00000  Uiso   1.00
C416   C     0.02099   0.20776   0.50752   0.00000  Uiso   1.00
C417   C     0.29083   0.16667   0.48994   0.00000  Uiso   1.00
C418   C     0.04250   0.16666   0.51007   0.00000  Uiso   1.00
C419   C     0.19086   0.02390   0.53520   0.00000  Uiso   1.00
C420   C     0.14247   0.30944   0.46480   0.00000  Uiso   1.00
C421   C     0.14247   0.02390   0.46480   0.00000  Uiso   1.00
C422   C     0.19086   0.30944   0.53520   0.00000  Uiso   1.00
N423   N     0.16667   0.28573   0.50000   0.00000  Uiso   1.00
N424   N     0.16667   0.04760   0.50000   0.00000  Uiso   1.00
N425   N     0.04113   0.08445   0.52319   0.00000  Uiso   1.00
O426   O     0.06066   0.08182   0.56743   0.00000  Uiso   1.00
O427   O     0.04003   0.04962   0.49386   0.00000  Uiso   1.00
N428   N     0.29220   0.24889   0.47687   0.00000  Uiso   1.00
O429   O     0.27268   0.25156   0.43264   0.00000  Uiso   1.00
O430   O     0.29332   0.28370   0.50621   0.00000  Uiso   1.00
N431   N     0.29219   0.08447   0.47681   0.00000  Uiso   1.00
O432   O     0.27268   0.08184   0.43257   0.00000  Uiso   1.00
O433   O     0.29328   0.04964   0.50613   0.00000  Uiso   1.00
N434   N     0.04115   0.24887   0.52316   0.00000  Uiso   1.00
O435   O     0.06066   0.25152   0.56739   0.00000  Uiso   1.00
O436   O     0.04004   0.28369   0.49383   0.00000  Uiso   1.00
I437   I     0.22929   0.05820   0.59141   0.00000  Uiso   1.00
I438   I     0.10405   0.27514   0.40858   0.00000  Uiso   1.00
I439   I     0.10404   0.05820   0.40859   0.00000  Uiso   1.00
I440   I     0.22928   0.27514   0.59142   0.00000  Uiso   1.00
O441   O     0.43892   0.20487   0.50000   0.00000  Uiso   1.00
O442   O     0.56108   0.12846   0.50000   0.00000  Uiso   1.00
O443   O     0.56108   0.20487   0.50000   0.00000  Uiso   1.00
O444   O     0.43892   0.12846   0.50000   0.00000  Uiso   1.00
C445   C     0.42032   0.16667   0.50475   0.00000  Uiso   1.00
C446   C     0.57968   0.16667   0.49525   0.00000  Uiso   1.00
O447   O     0.50000   0.20488   0.42845   0.00000  Uiso   1.00
O448   O     0.50000   0.12845   0.57155   0.00000  Uiso   1.00
O449   O     0.50000   0.20488   0.57155   0.00000  Uiso   1.00
O450   O     0.50000   0.12845   0.42845   0.00000  Uiso   1.00
C451   C     0.49993   0.16667   0.40635   0.00000  Uiso   1.00
C452   C     0.50007   0.16667   0.59365   0.00000  Uiso   1.00
Zn453  Zn    0.50000   0.21771   0.50000   0.00000  Uiso   1.00
Zn454  Zn    0.50000   0.11563   0.50000   0.00000  Uiso   1.00
C455   C     0.49998   0.16667   0.35518   0.00000  Uiso   1.00
C456   C     0.50002   0.16667   0.64482   0.00000  Uiso   1.00
C457   C     0.35431   0.12557   0.50752   0.00000  Uiso   1.00
C458   C     0.64569   0.20777   0.49250   0.00000  Uiso   1.00
C459   C     0.64568   0.12558   0.49248   0.00000  Uiso   1.00
C460   C     0.35432   0.20776   0.50752   0.00000  Uiso   1.00
C461   C     0.62417   0.16667   0.48994   0.00000  Uiso   1.00
C462   C     0.37583   0.16666   0.51007   0.00000  Uiso   1.00
C463   C     0.52420   0.02390   0.53520   0.00000  Uiso   1.00
C464   C     0.47580   0.30944   0.46480   0.00000  Uiso   1.00
C465   C     0.47580   0.02390   0.46480   0.00000  Uiso   1.00
C466   C     0.52419   0.30944   0.53520   0.00000  Uiso   1.00
N467   N     0.50000   0.28573   0.50000   0.00000  Uiso   1.00
N468   N     0.50000   0.04760   0.50000   0.00000  Uiso   1.00
N469   N     0.37447   0.08445   0.52319   0.00000  Uiso   1.00
O470   O     0.39399   0.08182   0.56743   0.00000  Uiso   1.00
O471   O     0.37337   0.04962   0.49386   0.00000  Uiso   1.00
N472   N     0.62553   0.24889   0.47687   0.00000  Uiso   1.00
O473   O     0.60601   0.25156   0.43264   0.00000  Uiso   1.00
O474   O     0.62666   0.28370   0.50621   0.00000  Uiso   1.00
N475   N     0.62552   0.08447   0.47681   0.00000  Uiso   1.00
O476   O     0.60601   0.08184   0.43257   0.00000  Uiso   1.00
O477   O     0.62661   0.04964   0.50613   0.00000  Uiso   1.00
N478   N     0.37448   0.24887   0.52316   0.00000  Uiso   1.00
O479   O     0.39400   0.25152   0.56739   0.00000  Uiso   1.00
O480   O     0.37337   0.28369   0.49383   0.00000  Uiso   1.00
I481   I     0.56262   0.05820   0.59141   0.00000  Uiso   1.00
I482   I     0.43738   0.27514   0.40858   0.00000  Uiso   1.00
I483   I     0.43738   0.05820   0.40859   0.00000  Uiso   1.00
I484   I     0.56261   0.27514   0.59142   0.00000  Uiso   1.00
O485   O     0.77226   0.20487   0.50000   0.00000  Uiso   1.00
O486   O     0.89441   0.12846   0.50000   0.00000  Uiso   1.00
O487   O     0.89441   0.20487   0.50000   0.00000  Uiso   1.00
O488   O     0.77226   0.12846   0.50000   0.00000  Uiso   1.00
C489   C     0.75365   0.16667   0.50475   0.00000  Uiso   1.00
C490   C     0.91302   0.16667   0.49525   0.00000  Uiso   1.00
O491   O     0.83334   0.20488   0.42845   0.00000  Uiso   1.00
O492   O     0.83333   0.12845   0.57155   0.00000  Uiso   1.00
O493   O     0.83333   0.20488   0.57155   0.00000  Uiso   1.00
O494   O     0.83334   0.12845   0.42845   0.00000  Uiso   1.00
C495   C     0.83326   0.16667   0.40635   0.00000  Uiso   1.00
C496   C     0.83340   0.16667   0.59365   0.00000  Uiso   1.00
Zn497  Zn    0.83333   0.21771   0.50000   0.00000  Uiso   1.00
Zn498  Zn    0.83333   0.11563   0.50000   0.00000  Uiso   1.00
C499   C     0.83332   0.16667   0.35518   0.00000  Uiso   1.00
C500   C     0.83335   0.16667   0.64482   0.00000  Uiso   1.00
C501   C     0.68765   0.12557   0.50752   0.00000  Uiso   1.00
C502   C     0.97902   0.20777   0.49250   0.00000  Uiso   1.00
C503   C     0.97901   0.12558   0.49248   0.00000  Uiso   1.00
C504   C     0.68765   0.20776   0.50752   0.00000  Uiso   1.00
C505   C     0.95750   0.16667   0.48994   0.00000  Uiso   1.00
C506   C     0.70917   0.16666   0.51007   0.00000  Uiso   1.00
C507   C     0.85753   0.02390   0.53520   0.00000  Uiso   1.00
C508   C     0.80914   0.30944   0.46480   0.00000  Uiso   1.00
C509   C     0.80914   0.02390   0.46480   0.00000  Uiso   1.00
C510   C     0.85753   0.30944   0.53520   0.00000  Uiso   1.00
N511   N     0.83333   0.28573   0.50000   0.00000  Uiso   1.00
N512   N     0.83333   0.04760   0.50000   0.00000  Uiso   1.00
N513   N     0.70780   0.08445   0.52319   0.00000  Uiso   1.00
O514   O     0.72733   0.08182   0.56743   0.00000  Uiso   1.00
O515   O     0.70670   0.04962   0.49386   0.00000  Uiso   1.00
N516   N     0.95887   0.24889   0.47687   0.00000  Uiso   1.00
O517   O     0.93934   0.25156   0.43264   0.00000  Uiso   1.00
O518   O     0.95999   0.28370   0.50621   0.00000  Uiso   1.00
N519   N     0.95885   0.08447   0.47681   0.00000  Uiso   1.00
O520   O     0.93934   0.08184   0.43257   0.00000  Uiso   1.00
O521   O     0.95994   0.04964   0.50613   0.00000  Uiso   1.00
N522   N     0.70782   0.24887   0.52316   0.00000  Uiso   1.00
O523   O     0.72733   0.25152   0.56739   0.00000  Uiso   1.00
O524   O     0.70671   0.28369   0.49383   0.00000  Uiso   1.00
I525   I     0.89595   0.05820   0.59141   0.00000  Uiso   1.00
I526   I     0.77072   0.27514   0.40858   0.00000  Uiso   1.00
I527   I     0.77071   0.05820   0.40859   0.00000  Uiso   1.00
I528   I     0.89595   0.27514   0.59142   0.00000  Uiso   1.00
O529   O     0.10559   0.53821   0.50000   0.00000  Uiso   1.00
O530   O     0.22774   0.46179   0.50000   0.00000  Uiso   1.00
O531   O     0.22774   0.53821   0.50000   0.00000  Uiso   1.00
O532   O     0.10559   0.46179   0.50000   0.00000  Uiso   1.00
C533   C     0.08698   0.50000   0.50475   0.00000  Uiso   1.00
C534   C     0.24635   0.50000   0.49525   0.00000  Uiso   1.00
O535   O     0.16667   0.53821   0.42845   0.00000  Uiso   1.00
O536   O     0.16666   0.46179   0.57155   0.00000  Uiso   1.00
O537   O     0.16666   0.53821   0.57155   0.00000  Uiso   1.00
O538   O     0.16667   0.46179   0.42845   0.00000  Uiso   1.00
C539   C     0.16660   0.50000   0.40635   0.00000  Uiso   1.00
C540   C     0.16674   0.50000   0.59365   0.00000  Uiso   1.00
Zn541  Zn    0.16667   0.55104   0.50000   0.00000  Uiso   1.00
Zn542  Zn    0.16667   0.44896   0.50000   0.00000  Uiso   1.00
C543   C     0.16665   0.50000   0.35518   0.00000  Uiso   1.00
C544   C     0.16668   0.50000   0.64482   0.00000  Uiso   1.00
C545   C     0.02098   0.45890   0.50752   0.00000  Uiso   1.00
C546   C     0.31235   0.54110   0.49250   0.00000  Uiso   1.00
C547   C     0.31235   0.45891   0.49248   0.00000  Uiso   1.00
C548   C     0.02099   0.54110   0.50752   0.00000  Uiso   1.00
C549   C     0.29083   0.50001   0.48994   0.00000  Uiso   1.00
C550   C     0.04250   0.50000   0.51007   0.00000  Uiso   1.00
C551   C     0.19086   0.35723   0.53520   0.00000  Uiso   1.00
C552   C     0.14247   0.64277   0.46480   0.00000  Uiso   1.00
C553   C     0.14247   0.35723   0.46480   0.00000  Uiso   1.00
C554   C     0.19086   0.64277   0.53520   0.00000  Uiso   1.00
N555   N     0.16667   0.61907   0.50000   0.00000  Uiso   1.00
N556   N     0.16667   0.38093   0.50000   0.00000  Uiso   1.00
N557   N     0.04113   0.41778   0.52319   0.00000  Uiso   1.00
O558   O     0.06066   0.41515   0.56743   0.00000  Uiso   1.00
O559   O     0.04003   0.38296   0.49386   0.00000  Uiso   1.00
N560   N     0.29220   0.58223   0.47687   0.00000  Uiso   1.00
O561   O     0.27268   0.58489   0.43264   0.00000  Uiso   1.00
O562   O     0.29332   0.61704   0.50621   0.00000  Uiso   1.00
N563   N     0.29219   0.41780   0.47681   0.00000  Uiso   1.00
O564   O     0.27268   0.41518   0.43257   0.00000  Uiso   1.00
O565   O     0.29328   0.38298   0.50613   0.00000  Uiso   1.00
N566   N     0.04115   0.58221   0.52316   0.00000  Uiso   1.00
O567   O     0.06066   0.58485   0.56739   0.00000  Uiso   1.00
O568   O     0.04004   0.61702   0.49383   0.00000  Uiso   1.00
I569   I     0.22929   0.39153   0.59141   0.00000  Uiso   1.00
I570   I     0.10405   0.60847   0.40858   0.00000  Uiso   1.00
I571   I     0.10404   0.39153   0.40859   0.00000  Uiso   1.00
I572   I     0.22928   0.60847   0.59142   0.00000  Uiso   1.00
O573   O     0.43892   0.53821   0.50000   0.00000  Uiso   1.00
O574   O     0.56108   0.46179   0.50000   0.00000  Uiso   1.00
O575   O     0.56108   0.53821   0.50000   0.00000  Uiso   1.00
O576   O     0.43892   0.46179   0.50000   0.00000  Uiso   1.00
C577   C     0.42032   0.50000   0.50475   0.00000  Uiso   1.00
C578   C     0.57968   0.50000   0.49525   0.00000  Uiso   1.00
O579   O     0.50000   0.53821   0.42845   0.00000  Uiso   1.00
O580   O     0.50000   0.46179   0.57155   0.00000  Uiso   1.00
O581   O     0.50000   0.53821   0.57155   0.00000  Uiso   1.00
O582   O     0.50000   0.46179   0.42845   0.00000  Uiso   1.00
C583   C     0.49993   0.50000   0.40635   0.00000  Uiso   1.00
C584   C     0.50007   0.50000   0.59365   0.00000  Uiso   1.00
Zn585  Zn    0.50000   0.55104   0.50000   0.00000  Uiso   1.00
Zn586  Zn    0.50000   0.44896   0.50000   0.00000  Uiso   1.00
C587   C     0.49998   0.50000   0.35518   0.00000  Uiso   1.00
C588   C     0.50002   0.50000   0.64482   0.00000  Uiso   1.00
C589   C     0.35431   0.45890   0.50752   0.00000  Uiso   1.00
C590   C     0.64569   0.54110   0.49250   0.00000  Uiso   1.00
C591   C     0.64568   0.45891   0.49248   0.00000  Uiso   1.00
C592   C     0.35432   0.54110   0.50752   0.00000  Uiso   1.00
C593   C     0.62417   0.50001   0.48994   0.00000  Uiso   1.00
C594   C     0.37583   0.50000   0.51007   0.00000  Uiso   1.00
C595   C     0.52420   0.35723   0.53520   0.00000  Uiso   1.00
C596   C     0.47580   0.64277   0.46480   0.00000  Uiso   1.00
C597   C     0.47580   0.35723   0.46480   0.00000  Uiso   1.00
C598   C     0.52419   0.64277   0.53520   0.00000  Uiso   1.00
N599   N     0.50000   0.61907   0.50000   0.00000  Uiso   1.00
N600   N     0.50000   0.38093   0.50000   0.00000  Uiso   1.00
N601   N     0.37447   0.41778   0.52319   0.00000  Uiso   1.00
O602   O     0.39399   0.41515   0.56743   0.00000  Uiso   1.00
O603   O     0.37337   0.38296   0.49386   0.00000  Uiso   1.00
N604   N     0.62553   0.58223   0.47687   0.00000  Uiso   1.00
O605   O     0.60601   0.58489   0.43264   0.00000  Uiso   1.00
O606   O     0.62666   0.61704   0.50621   0.00000  Uiso   1.00
N607   N     0.62552   0.41780   0.47681   0.00000  Uiso   1.00
O608   O     0.60601   0.41518   0.43257   0.00000  Uiso   1.00
O609   O     0.62661   0.38298   0.50613   0.00000  Uiso   1.00
N610   N     0.37448   0.58221   0.52316   0.00000  Uiso   1.00
O611   O     0.39400   0.58485   0.56739   0.00000  Uiso   1.00
O612   O     0.37337   0.61702   0.49383   0.00000  Uiso   1.00
I613   I     0.56262   0.39153   0.59141   0.00000  Uiso   1.00
I614   I     0.43738   0.60847   0.40858   0.00000  Uiso   1.00
I615   I     0.43738   0.39153   0.40859   0.00000  Uiso   1.00
I616   I     0.56261   0.60847   0.59142   0.00000  Uiso   1.00
O617   O     0.77226   0.53821   0.50000   0.00000  Uiso   1.00
O618   O     0.89441   0.46179   0.50000   0.00000  Uiso   1.00
O619   O     0.89441   0.53821   0.50000   0.00000  Uiso   1.00
O620   O     0.77226   0.46179   0.50000   0.00000  Uiso   1.00
C621   C     0.75365   0.50000   0.50475   0.00000  Uiso   1.00
C622   C     0.91302   0.50000   0.49525   0.00000  Uiso   1.00
O623   O     0.83334   0.53821   0.42845   0.00000  Uiso   1.00
O624   O     0.83333   0.46179   0.57155   0.00000  Uiso   1.00
O625   O     0.83333   0.53821   0.57155   0.00000  Uiso   1.00
O626   O     0.83334   0.46179   0.42845   0.00000  Uiso   1.00
C627   C     0.83326   0.50000   0.40635   0.00000  Uiso   1.00
C628   C     0.83340   0.50000   0.59365   0.00000  Uiso   1.00
Zn629  Zn    0.83333   0.55104   0.50000   0.00000  Uiso   1.00
Zn630  Zn    0.83333   0.44896   0.50000   0.00000  Uiso   1.00
C631   C     0.83332   0.50000   0.35518   0.00000  Uiso   1.00
C632   C     0.83335   0.50000   0.64482   0.00000  Uiso   1.00
C633   C     0.68765   0.45890   0.50752   0.00000  Uiso   1.00
C634   C     0.97902   0.54110   0.49250   0.00000  Uiso   1.00
C635   C     0.97901   0.45891   0.49248   0.00000  Uiso   1.00
C636   C     0.68765   0.54110   0.50752   0.00000  Uiso   1.00
C637   C     0.95750   0.50001   0.48994   0.00000  Uiso   1.00
C638   C     0.70917   0.50000   0.51007   0.00000  Uiso   1.00
C639   C     0.85753   0.35723   0.53520   0.00000  Uiso   1.00
C640   C     0.80914   0.64277   0.46480   0.00000  Uiso   1.00
C641   C     0.80914   0.35723   0.46480   0.00000  Uiso   1.00
C642   C     0.85753   0.64277   0.53520   0.00000  Uiso   1.00
N643   N     0.83333   0.61907   0.50000   0.00000  Uiso   1.00
N644   N     0.83333   0.38093   0.50000   0.00000  Uiso   1.00
N645   N     0.70780   0.41778   0.52319   0.00000  Uiso   1.00
O646   O     0.72733   0.41515   0.56743   0.00000  Uiso   1.00
O647   O     0.70670   0.38296   0.49386   0.00000  Uiso   1.00
N648   N     0.95887   0.58223   0.47687   0.00000  Uiso   1.00
O649   O     0.93934   0.58489   0.43264   0.00000  Uiso   1.00
O650   O     0.95999   0.61704   0.50621   0.00000  Uiso   1.00
N651   N     0.95885   0.41780   0.47681   0.00000  Uiso   1.00
O652   O     0.93934   0.41518   0.43257   0.00000  Uiso   1.00
O653   O     0.95994   0.38298   0.50613   0.00000  Uiso   1.00
N654   N     0.70782   0.58221   0.52316   0.00000  Uiso   1.00
O655   O     0.72733   0.58485   0.56739   0.00000  Uiso   1.00
O656   O     0.70671   0.61702   0.49383   0.00000  Uiso   1.00
I657   I     0.89595   0.39153   0.59141   0.00000  Uiso   1.00
I658   I     0.77072   0.60847   0.40858   0.00000  Uiso   1.00
I659   I     0.77071   0.39153   0.40859   0.00000  Uiso   1.00
I660   I     0.89595   0.60847   0.59142   0.00000  Uiso   1.00
O661   O     0.10559   0.87154   0.50000   0.00000  Uiso   1.00
O662   O     0.22774   0.79513   0.50000   0.00000  Uiso   1.00
O663   O     0.22774   0.87154   0.50000   0.00000  Uiso   1.00
O664   O     0.10559   0.79513   0.50000   0.00000  Uiso   1.00
C665   C     0.08698   0.83333   0.50475   0.00000  Uiso   1.00
C666   C     0.24635   0.83334   0.49525   0.00000  Uiso   1.00
O667   O     0.16667   0.87155   0.42845   0.00000  Uiso   1.00
O668   O     0.16666   0.79512   0.57155   0.00000  Uiso   1.00
O669   O     0.16666   0.87155   0.57155   0.00000  Uiso   1.00
O670   O     0.16667   0.79512   0.42845   0.00000  Uiso   1.00
C671   C     0.16660   0.83333   0.40635   0.00000  Uiso   1.00
C672   C     0.16674   0.83333   0.59365   0.00000  Uiso   1.00
Zn673  Zn    0.16667   0.88437   0.50000   0.00000  Uiso   1.00
Zn674  Zn    0.16667   0.78229   0.50000   0.00000  Uiso   1.00
C675   C     0.16665   0.83333   0.35518   0.00000  Uiso   1.00
C676   C     0.16668   0.83333   0.64482   0.00000  Uiso   1.00
C677   C     0.02098   0.79224   0.50752   0.00000  Uiso   1.00
C678   C     0.31235   0.87444   0.49250   0.00000  Uiso   1.00
C679   C     0.31235   0.79224   0.49248   0.00000  Uiso   1.00
C680   C     0.02099   0.87443   0.50752   0.00000  Uiso   1.00
C681   C     0.29083   0.83334   0.48994   0.00000  Uiso   1.00
C682   C     0.04250   0.83333   0.51007   0.00000  Uiso   1.00
C683   C     0.19086   0.69056   0.53520   0.00000  Uiso   1.00
C684   C     0.14247   0.97610   0.46480   0.00000  Uiso   1.00
C685   C     0.14247   0.69056   0.46480   0.00000  Uiso   1.00
C686   C     0.19086   0.97610   0.53520   0.00000  Uiso   1.00
N687   N     0.16667   0.95240   0.50000   0.00000  Uiso   1.00
N688   N     0.16667   0.71427   0.50000   0.00000  Uiso   1.00
N689   N     0.04113   0.75111   0.52319   0.00000  Uiso   1.00
O690   O     0.06066   0.74848   0.56743   0.00000  Uiso   1.00
O691   O     0.04003   0.71629   0.49386   0.00000  Uiso   1.00
N692   N     0.29220   0.91556   0.47687   0.00000  Uiso   1.00
O693   O     0.27268   0.91822   0.43264   0.00000  Uiso   1.00
O694   O     0.29332   0.95037   0.50621   0.00000  Uiso   1.00
N695   N     0.29219   0.75113   0.47681   0.00000  Uiso   1.00
O696   O     0.27268   0.74851   0.43257   0.00000  Uiso   1.00
O697   O     0.29328   0.71631   0.50613   0.00000  Uiso   1.00
N698   N     0.04115   0.91554   0.52316   0.00000  Uiso   1.00
O699   O     0.06066   0.91818   0.56739   0.00000  Uiso   1.00
O700   O     0.04004   0.95035   0.49383   0.00000  Uiso   1.00
I701   I     0.22929   0.72486   0.59141   0.00000  Uiso   1.00
I702   I     0.10405   0.94180   0.40858   0.00000  Uiso   1.00
I703   I     0.10404   0.72486   0.40859   0.00000  Uiso   1.00
I704   I     0.22928   0.94181   0.59142   0.00000  Uiso   1.00
O705   O     0.43892   0.87154   0.50000   0.00000  Uiso   1.00
O706   O     0.56108   0.79513   0.50000   0.00000  Uiso   1.00
O707   O     0.56108   0.87154   0.50000   0.00000  Uiso   1.00
O708   O     0.43892   0.79513   0.50000   0.00000  Uiso   1.00
C709   C     0.42032   0.83333   0.50475   0.00000  Uiso   1.00
C710   C     0.57968   0.83334   0.49525   0.00000  Uiso   1.00
O711   O     0.50000   0.87155   0.42845   0.00000  Uiso   1.00
O712   O     0.50000   0.79512   0.57155   0.00000  Uiso   1.00
O713   O     0.50000   0.87155   0.57155   0.00000  Uiso   1.00
O714   O     0.50000   0.79512   0.42845   0.00000  Uiso   1.00
C715   C     0.49993   0.83333   0.40635   0.00000  Uiso   1.00
C716   C     0.50007   0.83333   0.59365   0.00000  Uiso   1.00
Zn717  Zn    0.50000   0.88437   0.50000   0.00000  Uiso   1.00
Zn718  Zn    0.50000   0.78229   0.50000   0.00000  Uiso   1.00
C719   C     0.49998   0.83333   0.35518   0.00000  Uiso   1.00
C720   C     0.50002   0.83333   0.64482   0.00000  Uiso   1.00
C721   C     0.35431   0.79224   0.50752   0.00000  Uiso   1.00
C722   C     0.64569   0.87444   0.49250   0.00000  Uiso   1.00
C723   C     0.64568   0.79224   0.49248   0.00000  Uiso   1.00
C724   C     0.35432   0.87443   0.50752   0.00000  Uiso   1.00
C725   C     0.62417   0.83334   0.48994   0.00000  Uiso   1.00
C726   C     0.37583   0.83333   0.51007   0.00000  Uiso   1.00
C727   C     0.52420   0.69056   0.53520   0.00000  Uiso   1.00
C728   C     0.47580   0.97610   0.46480   0.00000  Uiso   1.00
C729   C     0.47580   0.69056   0.46480   0.00000  Uiso   1.00
C730   C     0.52419   0.97610   0.53520   0.00000  Uiso   1.00
N731   N     0.50000   0.95240   0.50000   0.00000  Uiso   1.00
N732   N     0.50000   0.71427   0.50000   0.00000  Uiso   1.00
N733   N     0.37447   0.75111   0.52319   0.00000  Uiso   1.00
O734   O     0.39399   0.74848   0.56743   0.00000  Uiso   1.00
O735   O     0.37337   0.71629   0.49386   0.00000  Uiso   1.00
N736   N     0.62553   0.91556   0.47687   0.00000  Uiso   1.00
O737   O     0.60601   0.91822   0.43264   0.00000  Uiso   1.00
O738   O     0.62666   0.95037   0.50621   0.00000  Uiso   1.00
N739   N     0.62552   0.75113   0.47681   0.00000  Uiso   1.00
O740   O     0.60601   0.74851   0.43257   0.00000  Uiso   1.00
O741   O     0.62661   0.71631   0.50613   0.00000  Uiso   1.00
N742   N     0.37448   0.91554   0.52316   0.00000  Uiso   1.00
O743   O     0.39400   0.91818   0.56739   0.00000  Uiso   1.00
O744   O     0.37337   0.95035   0.49383   0.00000  Uiso   1.00
I745   I     0.56262   0.72486   0.59141   0.00000  Uiso   1.00
I746   I     0.43738   0.94180   0.40858   0.00000  Uiso   1.00
I747   I     0.43738   0.72486   0.40859   0.00000  Uiso   1.00
I748   I     0.56261   0.94181   0.59142   0.00000  Uiso   1.00
O749   O     0.77226   0.87154   0.50000   0.00000  Uiso   1.00
O750   O     0.89441   0.79513   0.50000   0.00000  Uiso   1.00
O751   O     0.89441   0.87154   0.50000   0.00000  Uiso   1.00
O752   O     0.77226   0.79513   0.50000   0.00000  Uiso   1.00
C753   C     0.75365   0.83333   0.50475   0.00000  Uiso   1.00
C754   C     0.91302   0.83334   0.49525   0.00000  Uiso   1.00
O755   O     0.83334   0.87155   0.42845   0.00000  Uiso   1.00
O756   O     0.83333   0.79512   0.57155   0.00000  Uiso   1.00
O757   O     0.83333   0.87155   0.57155   0.00000  Uiso   1.00
O758   O     0.83334   0.79512   0.42845   0.00000  Uiso   1.00
C759   C     0.83326   0.83333   0.40635   0.00000  Uiso   1.00
C760   C     0.83340   0.83333   0.59365   0.00000  Uiso   1.00
Zn761  Zn    0.83333   0.88437   0.50000   0.00000  Uiso   1.00
Zn762  Zn    0.83333   0.78229   0.50000   0.00000  Uiso   1.00
C763   C     0.83332   0.83333   0.35518   0.00000  Uiso   1.00
C764   C     0.83335   0.83333   0.64482   0.00000  Uiso   1.00
C765   C     0.68765   0.79224   0.50752   0.00000  Uiso   1.00
C766   C     0.97902   0.87444   0.49250   0.00000  Uiso   1.00
C767   C     0.97901   0.79224   0.49248   0.00000  Uiso   1.00
C768   C     0.68765   0.87443   0.50752   0.00000  Uiso   1.00
C769   C     0.95750   0.83334   0.48994   0.00000  Uiso   1.00
C770   C     0.70917   0.83333   0.51007   0.00000  Uiso   1.00
C771   C     0.85753   0.69056   0.53520   0.00000  Uiso   1.00
C772   C     0.80914   0.97610   0.46480   0.00000  Uiso   1.00
C773   C     0.80914   0.69056   0.46480   0.00000  Uiso   1.00
C774   C     0.85753   0.97610   0.53520   0.00000  Uiso   1.00
N775   N     0.83333   0.95240   0.50000   0.00000  Uiso   1.00
N776   N     0.83333   0.71427   0.50000   0.00000  Uiso   1.00
N777   N     0.70780   0.75111   0.52319   0.00000  Uiso   1.00
O778   O     0.72733   0.74848   0.56743   0.00000  Uiso   1.00
O779   O     0.70670   0.71629   0.49386   0.00000  Uiso   1.00
N780   N     0.95887   0.91556   0.47687   0.00000  Uiso   1.00
O781   O     0.93934   0.91822   0.43264   0.00000  Uiso   1.00
O782   O     0.95999   0.95037   0.50621   0.00000  Uiso   1.00
N783   N     0.95885   0.75113   0.47681   0.00000  Uiso   1.00
O784   O     0.93934   0.74851   0.43257   0.00000  Uiso   1.00
O785   O     0.95994   0.71631   0.50613   0.00000  Uiso   1.00
N786   N     0.70782   0.91554   0.52316   0.00000  Uiso   1.00
O787   O     0.72733   0.91818   0.56739   0.00000  Uiso   1.00
O788   O     0.70671   0.95035   0.49383   0.00000  Uiso   1.00
I789   I     0.89595   0.72486   0.59141   0.00000  Uiso   1.00
I790   I     0.77072   0.94180   0.40858   0.00000  Uiso   1.00
I791   I     0.77071   0.72486   0.40859   0.00000  Uiso   1.00
I792   I     0.89595   0.94181   0.59142   0.00000  Uiso   1.00
O793   O     0.10559   0.20487   0.83333   0.00000  Uiso   1.00
O794   O     0.22774   0.12846   0.83334   0.00000  Uiso   1.00
O795   O     0.22774   0.20487   0.83334   0.00000  Uiso   1.00
O796   O     0.10559   0.12846   0.83333   0.00000  Uiso   1.00
C797   C     0.08698   0.16667   0.83808   0.00000  Uiso   1.00
C798   C     0.24635   0.16667   0.82859   0.00000  Uiso   1.00
O799   O     0.16667   0.20488   0.76178   0.00000  Uiso   1.00
O800   O     0.16666   0.12845   0.90489   0.00000  Uiso   1.00
O801   O     0.16666   0.20488   0.90489   0.00000  Uiso   1.00
O802   O     0.16667   0.12845   0.76178   0.00000  Uiso   1.00
C803   C     0.16660   0.16667   0.73968   0.00000  Uiso   1.00
C804   C     0.16674   0.16667   0.92699   0.00000  Uiso   1.00
Zn805  Zn    0.16667   0.21771   0.83333   0.00000  Uiso   1.00
Zn806  Zn    0.16667   0.11563   0.83333   0.00000  Uiso   1.00
C807   C     0.16665   0.16667   0.68851   0.00000  Uiso   1.00
C808   C     0.16668   0.16667   0.97816   0.00000  Uiso   1.00
C809   C     0.02098   0.12557   0.84086   0.00000  Uiso   1.00
C810   C     0.31235   0.20777   0.82583   0.00000  Uiso   1.00
C811   C     0.31235   0.12558   0.82581   0.00000  Uiso   1.00
C812   C     0.02099   0.20776   0.84085   0.00000  Uiso   1.00
C813   C     0.29083   0.16667   0.82327   0.00000  Uiso   1.00
C814   C     0.04250   0.16666   0.84340   0.00000  Uiso   1.00
C815   C     0.19086   0.02390   0.86853   0.00000  Uiso   1.00
C816   C     0.14247   0.30944   0.79813   0.00000  Uiso   1.00
C817   C     0.14247   0.02390   0.79813   0.00000  Uiso   1.00
C818   C     0.19086   0.30944   0.86854   0.00000  Uiso   1.00
N819   N     0.16667   0.28573   0.83333   0.00000  Uiso   1.00
N820   N     0.16667   0.04760   0.83333   0.00000  Uiso   1.00
N821   N     0.04113   0.08445   0.85652   0.00000  Uiso   1.00
O822   O     0.06066   0.08182   0.90076   0.00000  Uiso   1.00
O823   O     0.04003   0.04962   0.82719   0.00000  Uiso   1.00
N824   N     0.29220   0.24889   0.81020   0.00000  Uiso   1.00
O825   O     0.27268   0.25156   0.76597   0.00000  Uiso   1.00
O826   O     0.29332   0.28370   0.83955   0.00000  Uiso   1.00
N827   N     0.29219   0.08447   0.81014   0.00000  Uiso   1.00
O828   O     0.27268   0.08184   0.76590   0.00000  Uiso   1.00
O829   O     0.29328   0.04964   0.83946   0.00000  Uiso   1.00
N830   N     0.04115   0.24887   0.85649   0.00000  Uiso   1.00
O831   O     0.06066   0.25152   0.90073   0.00000  Uiso   1.00
O832   O     0.04004   0.28369   0.82716   0.00000  Uiso   1.00
I833   I     0.22929   0.05820   0.92475   0.00000  Uiso   1.00
I834   I     0.10405   0.27514   0.74191   0.00000  Uiso   1.00
I835   I     0.10404   0.05820   0.74192   0.00000  Uiso   1.00
I836   I     0.22928   0.27514   0.92476   0.00000  Uiso   1.00
O837   O     0.43892   0.20487   0.83333   0.00000  Uiso   1.00
O838   O     0.56108   0.12846   0.83334   0.00000  Uiso   1.00
O839   O     0.56108   0.20487   0.83334   0.00000  Uiso   1.00
O840   O     0.43892   0.12846   0.83333   0.00000  Uiso   1.00
C841   C     0.42032   0.16667   0.83808   0.00000  Uiso   1.00
C842   C     0.57968   0.16667   0.82859   0.00000  Uiso   1.00
O843   O     0.50000   0.20488   0.76178   0.00000  Uiso   1.00
O844   O     0.50000   0.12845   0.90489   0.00000  Uiso   1.00
O845   O     0.50000   0.20488   0.90489   0.00000  Uiso   1.00
O846   O     0.50000   0.12845   0.76178   0.00000  Uiso   1.00
C847   C     0.49993   0.16667   0.73968   0.00000  Uiso   1.00
C848   C     0.50007   0.16667   0.92699   0.00000  Uiso   1.00
Zn849  Zn    0.50000   0.21771   0.83333   0.00000  Uiso   1.00
Zn850  Zn    0.50000   0.11563   0.83333   0.00000  Uiso   1.00
C851   C     0.49998   0.16667   0.68851   0.00000  Uiso   1.00
C852   C     0.50002   0.16667   0.97816   0.00000  Uiso   1.00
C853   C     0.35431   0.12557   0.84086   0.00000  Uiso   1.00
C854   C     0.64569   0.20777   0.82583   0.00000  Uiso   1.00
C855   C     0.64568   0.12558   0.82581   0.00000  Uiso   1.00
C856   C     0.35432   0.20776   0.84085   0.00000  Uiso   1.00
C857   C     0.62417   0.16667   0.82327   0.00000  Uiso   1.00
C858   C     0.37583   0.16666   0.84340   0.00000  Uiso   1.00
C859   C     0.52420   0.02390   0.86853   0.00000  Uiso   1.00
C860   C     0.47580   0.30944   0.79813   0.00000  Uiso   1.00
C861   C     0.47580   0.02390   0.79813   0.00000  Uiso   1.00
C862   C     0.52419   0.30944   0.86854   0.00000  Uiso   1.00
N863   N     0.50000   0.28573   0.83333   0.00000  Uiso   1.00
N864   N     0.50000   0.04760   0.83333   0.00000  Uiso   1.00
N865   N     0.37447   0.08445   0.85652   0.00000  Uiso   1.00
O866   O     0.39399   0.08182   0.90076   0.00000  Uiso   1.00
O867   O     0.37337   0.04962   0.82719   0.00000  Uiso   1.00
N868   N     0.62553   0.24889   0.81020   0.00000  Uiso   1.00
O869   O     0.60601   0.25156   0.76597   0.00000  Uiso   1.00
O870   O     0.62666   0.28370   0.83955   0.00000  Uiso   1.00
N871   N     0.62552   0.08447   0.81014   0.00000  Uiso   1.00
O872   O     0.60601   0.08184   0.76590   0.00000  Uiso   1.00
O873   O     0.62661   0.04964   0.83946   0.00000  Uiso   1.00
N874   N     0.37448   0.24887   0.85649   0.00000  Uiso   1.00
O875   O     0.39400   0.25152   0.90073   0.00000  Uiso   1.00
O876   O     0.37337   0.28369   0.82716   0.00000  Uiso   1.00
I877   I     0.56262   0.05820   0.92475   0.00000  Uiso   1.00
I878   I     0.43738   0.27514   0.74191   0.00000  Uiso   1.00
I879   I     0.43738   0.05820   0.74192   0.00000  Uiso   1.00
I880   I     0.56261   0.27514   0.92476   0.00000  Uiso   1.00
O881   O     0.77226   0.20487   0.83333   0.00000  Uiso   1.00
O882   O     0.89441   0.12846   0.83334   0.00000  Uiso   1.00
O883   O     0.89441   0.20487   0.83334   0.00000  Uiso   1.00
O884   O     0.77226   0.12846   0.83333   0.00000  Uiso   1.00
C885   C     0.75365   0.16667   0.83808   0.00000  Uiso   1.00
C886   C     0.91302   0.16667   0.82859   0.00000  Uiso   1.00
O887   O     0.83334   0.20488   0.76178   0.00000  Uiso   1.00
O888   O     0.83333   0.12845   0.90489   0.00000  Uiso   1.00
O889   O     0.83333   0.20488   0.90489   0.00000  Uiso   1.00
O890   O     0.83334   0.12845   0.76178   0.00000  Uiso   1.00
C891   C     0.83326   0.16667   0.73968   0.00000  Uiso   1.00
C892   C     0.83340   0.16667   0.92699   0.00000  Uiso   1.00
Zn893  Zn    0.83333   0.21771   0.83333   0.00000  Uiso   1.00
Zn894  Zn    0.83333   0.11563   0.83333   0.00000  Uiso   1.00
C895   C     0.83332   0.16667   0.68851   0.00000  Uiso   1.00
C896   C     0.83335   0.16667   0.97816   0.00000  Uiso   1.00
C897   C     0.68765   0.12557   0.84086   0.00000  Uiso   1.00
C898   C     0.97902   0.20777   0.82583   0.00000  Uiso   1.00
C899   C     0.97901   0.12558   0.82581   0.00000  Uiso   1.00
C900   C     0.68765   0.20776   0.84085   0.00000  Uiso   1.00
C901   C     0.95750   0.16667   0.82327   0.00000  Uiso   1.00
C902   C     0.70917   0.16666   0.84340   0.00000  Uiso   1.00
C903   C     0.85753   0.02390   0.86853   0.00000  Uiso   1.00
C904   C     0.80914   0.30944   0.79813   0.00000  Uiso   1.00
C905   C     0.80914   0.02390   0.79813   0.00000  Uiso   1.00
C906   C     0.85753   0.30944   0.86854   0.00000  Uiso   1.00
N907   N     0.83333   0.28573   0.83333   0.00000  Uiso   1.00
N908   N     0.83333   0.04760   0.83333   0.00000  Uiso   1.00
N909   N     0.70780   0.08445   0.85652   0.00000  Uiso   1.00
O910   O     0.72733   0.08182   0.90076   0.00000  Uiso   1.00
O911   O     0.70670   0.04962   0.82719   0.00000  Uiso   1.00
N912   N     0.95887   0.24889   0.81020   0.00000  Uiso   1.00
O913   O     0.93934   0.25156   0.76597   0.00000  Uiso   1.00
O914   O     0.95999   0.28370   0.83955   0.00000  Uiso   1.00
N915   N     0.95885   0.08447   0.81014   0.00000  Uiso   1.00
O916   O     0.93934   0.08184   0.76590   0.00000  Uiso   1.00
O917   O     0.95994   0.04964   0.83946   0.00000  Uiso   1.00
N918   N     0.70782   0.24887   0.85649   0.00000  Uiso   1.00
O919   O     0.72733   0.25152   0.90073   0.00000  Uiso   1.00
O920   O     0.70671   0.28369   0.82716   0.00000  Uiso   1.00
I921   I     0.89595   0.05820   0.92475   0.00000  Uiso   1.00
I922   I     0.77072   0.27514   0.74191   0.00000  Uiso   1.00
I923   I     0.77071   0.05820   0.74192   0.00000  Uiso   1.00
I924   I     0.89595   0.27514   0.92476   0.00000  Uiso   1.00
O925   O     0.10559   0.53821   0.83333   0.00000  Uiso   1.00
O926   O     0.22774   0.46179   0.83334   0.00000  Uiso   1.00
O927   O     0.22774   0.53821   0.83334   0.00000  Uiso   1.00
O928   O     0.10559   0.46179   0.83333   0.00000  Uiso   1.00
C929   C     0.08698   0.50000   0.83808   0.00000  Uiso   1.00
C930   C     0.24635   0.50000   0.82859   0.00000  Uiso   1.00
O931   O     0.16667   0.53821   0.76178   0.00000  Uiso   1.00
O932   O     0.16666   0.46179   0.90489   0.00000  Uiso   1.00
O933   O     0.16666   0.53821   0.90489   0.00000  Uiso   1.00
O934   O     0.16667   0.46179   0.76178   0.00000  Uiso   1.00
C935   C     0.16660   0.50000   0.73968   0.00000  Uiso   1.00
C936   C     0.16674   0.50000   0.92699   0.00000  Uiso   1.00
Zn937  Zn    0.16667   0.55104   0.83333   0.00000  Uiso   1.00
Zn938  Zn    0.16667   0.44896   0.83333   0.00000  Uiso   1.00
C939   C     0.16665   0.50000   0.68851   0.00000  Uiso   1.00
C940   C     0.16668   0.50000   0.97816   0.00000  Uiso   1.00
C941   C     0.02098   0.45890   0.84086   0.00000  Uiso   1.00
C942   C     0.31235   0.54110   0.82583   0.00000  Uiso   1.00
C943   C     0.31235   0.45891   0.82581   0.00000  Uiso   1.00
C944   C     0.02099   0.54110   0.84085   0.00000  Uiso   1.00
C945   C     0.29083   0.50001   0.82327   0.00000  Uiso   1.00
C946   C     0.04250   0.50000   0.84340   0.00000  Uiso   1.00
C947   C     0.19086   0.35723   0.86853   0.00000  Uiso   1.00
C948   C     0.14247   0.64277   0.79813   0.00000  Uiso   1.00
C949   C     0.14247   0.35723   0.79813   0.00000  Uiso   1.00
C950   C     0.19086   0.64277   0.86854   0.00000  Uiso   1.00
N951   N     0.16667   0.61907   0.83333   0.00000  Uiso   1.00
N952   N     0.16667   0.38093   0.83333   0.00000  Uiso   1.00
N953   N     0.04113   0.41778   0.85652   0.00000  Uiso   1.00
O954   O     0.06066   0.41515   0.90076   0.00000  Uiso   1.00
O955   O     0.04003   0.38296   0.82719   0.00000  Uiso   1.00
N956   N     0.29220   0.58223   0.81020   0.00000  Uiso   1.00
O957   O     0.27268   0.58489   0.76597   0.00000  Uiso   1.00
O958   O     0.29332   0.61704   0.83955   0.00000  Uiso   1.00
N959   N     0.29219   0.41780   0.81014   0.00000  Uiso   1.00
O960   O     0.27268   0.41518   0.76590   0.00000  Uiso   1.00
O961   O     0.29328   0.38298   0.83946   0.00000  Uiso   1.00
N962   N     0.04115   0.58221   0.85649   0.00000  Uiso   1.00
O963   O     0.06066   0.58485   0.90073   0.00000  Uiso   1.00
O964   O     0.04004   0.61702   0.82716   0.00000  Uiso   1.00
I965   I     0.22929   0.39153   0.92475   0.00000  Uiso   1.00
I966   I     0.10405   0.60847   0.74191   0.00000  Uiso   1.00
I967   I     0.10404   0.39153   0.74192   0.00000  Uiso   1.00
I968   I     0.22928   0.60847   0.92476   0.00000  Uiso   1.00
O969   O     0.43892   0.53821   0.83333   0.00000  Uiso   1.00
O970   O     0.56108   0.46179   0.83334   0.00000  Uiso   1.00
O971   O     0.56108   0.53821   0.83334   0.00000  Uiso   1.00
O972   O     0.43892   0.46179   0.83333   0.00000  Uiso   1.00
C973   C     0.42032   0.50000   0.83808   0.00000  Uiso   1.00
C974   C     0.57968   0.50000   0.82859   0.00000  Uiso   1.00
O975   O     0.50000   0.53821   0.76178   0.00000  Uiso   1.00
O976   O     0.50000   0.46179   0.90489   0.00000  Uiso   1.00
O977   O     0.50000   0.53821   0.90489   0.00000  Uiso   1.00
O978   O     0.50000   0.46179   0.76178   0.00000  Uiso   1.00
C979   C     0.49993   0.50000   0.73968   0.00000  Uiso   1.00
C980   C     0.50007   0.50000   0.92699   0.00000  Uiso   1.00
Zn981  Zn    0.50000   0.55104   0.83333   0.00000  Uiso   1.00
Zn982  Zn    0.50000   0.44896   0.83333   0.00000  Uiso   1.00
C983   C     0.49998   0.50000   0.68851   0.00000  Uiso   1.00
C984   C     0.50002   0.50000   0.97816   0.00000  Uiso   1.00
C985   C     0.35431   0.45890   0.84086   0.00000  Uiso   1.00
C986   C     0.64569   0.54110   0.82583   0.00000  Uiso   1.00
C987   C     0.64568   0.45891   0.82581   0.00000  Uiso   1.00
C988   C     0.35432   0.54110   0.84085   0.00000  Uiso   1.00
C989   C     0.62417   0.50001   0.82327   0.00000  Uiso   1.00
C990   C     0.37583   0.50000   0.84340   0.00000  Uiso   1.00
C991   C     0.52420   0.35723   0.86853   0.00000  Uiso   1.00
C992   C     0.47580   0.64277   0.79813   0.00000  Uiso   1.00
C993   C     0.47580   0.35723   0.79813   0.00000  Uiso   1.00
C994   C     0.52419   0.64277   0.86854   0.00000  Uiso   1.00
N995   N     0.50000   0.61907   0.83333   0.00000  Uiso   1.00
N996   N     0.50000   0.38093   0.83333   0.00000  Uiso   1.00
N997   N     0.37447   0.41778   0.85652   0.00000  Uiso   1.00
O998   O     0.39399   0.41515   0.90076   0.00000  Uiso   1.00
O999   O     0.37337   0.38296   0.82719   0.00000  Uiso   1.00
N1000  N     0.62553   0.58223   0.81020   0.00000  Uiso   1.00
O1001  O     0.60601   0.58489   0.76597   0.00000  Uiso   1.00
O1002  O     0.62666   0.61704   0.83955   0.00000  Uiso   1.00
N1003  N     0.62552   0.41780   0.81014   0.00000  Uiso   1.00
O1004  O     0.60601   0.41518   0.76590   0.00000  Uiso   1.00
O1005  O     0.62661   0.38298   0.83946   0.00000  Uiso   1.00
N1006  N     0.37448   0.58221   0.85649   0.00000  Uiso   1.00
O1007  O     0.39400   0.58485   0.90073   0.00000  Uiso   1.00
O1008  O     0.37337   0.61702   0.82716   0.00000  Uiso   1.00
I1009  I     0.56262   0.39153   0.92475   0.00000  Uiso   1.00
I1010  I     0.43738   0.60847   0.74191   0.00000  Uiso   1.00
I1011  I     0.43738   0.39153   0.74192   0.00000  Uiso   1.00
I1012  I     0.56261   0.60847   0.92476   0.00000  Uiso   1.00
O1013  O     0.77226   0.53821   0.83333   0.00000  Uiso   1.00
O1014  O     0.89441   0.46179   0.83334   0.00000  Uiso   1.00
O1015  O     0.89441   0.53821   0.83334   0.00000  Uiso   1.00
O1016  O     0.77226   0.46179   0.83333   0.00000  Uiso   1.00
C1017  C     0.75365   0.50000   0.83808   0.00000  Uiso   1.00
C1018  C     0.91302   0.50000   0.82859   0.00000  Uiso   1.00
O1019  O     0.83334   0.53821   0.76178   0.00000  Uiso   1.00
O1020  O     0.83333   0.46179   0.90489   0.00000  Uiso   1.00
O1021  O     0.83333   0.53821   0.90489   0.00000  Uiso   1.00
O1022  O     0.83334   0.46179   0.76178   0.00000  Uiso   1.00
C1023  C     0.83326   0.50000   0.73968   0.00000  Uiso   1.00
C1024  C     0.83340   0.50000   0.92699   0.00000  Uiso   1.00
Zn1025 Zn    0.83333   0.55104   0.83333   0.00000  Uiso   1.00
Zn1026 Zn    0.83333   0.44896   0.83333   0.00000  Uiso   1.00
C1027  C     0.83332   0.50000   0.68851   0.00000  Uiso   1.00
C1028  C     0.83335   0.50000   0.97816   0.00000  Uiso   1.00
C1029  C     0.68765   0.45890   0.84086   0.00000  Uiso   1.00
C1030  C     0.97902   0.54110   0.82583   0.00000  Uiso   1.00
C1031  C     0.97901   0.45891   0.82581   0.00000  Uiso   1.00
C1032  C     0.68765   0.54110   0.84085   0.00000  Uiso   1.00
C1033  C     0.95750   0.50001   0.82327   0.00000  Uiso   1.00
C1034  C     0.70917   0.50000   0.84340   0.00000  Uiso   1.00
C1035  C     0.85753   0.35723   0.86853   0.00000  Uiso   1.00
C1036  C     0.80914   0.64277   0.79813   0.00000  Uiso   1.00
C1037  C     0.80914   0.35723   0.79813   0.00000  Uiso   1.00
C1038  C     0.85753   0.64277   0.86854   0.00000  Uiso   1.00
N1039  N     0.83333   0.61907   0.83333   0.00000  Uiso   1.00
N1040  N     0.83333   0.38093   0.83333   0.00000  Uiso   1.00
N1041  N     0.70780   0.41778   0.85652   0.00000  Uiso   1.00
O1042  O     0.72733   0.41515   0.90076   0.00000  Uiso   1.00
O1043  O     0.70670   0.38296   0.82719   0.00000  Uiso   1.00
N1044  N     0.95887   0.58223   0.81020   0.00000  Uiso   1.00
O1045  O     0.93934   0.58489   0.76597   0.00000  Uiso   1.00
O1046  O     0.95999   0.61704   0.83955   0.00000  Uiso   1.00
N1047  N     0.95885   0.41780   0.81014   0.00000  Uiso   1.00
O1048  O     0.93934   0.41518   0.76590   0.00000  Uiso   1.00
O1049  O     0.95994   0.38298   0.83946   0.00000  Uiso   1.00
N1050  N     0.70782   0.58221   0.85649   0.00000  Uiso   1.00
O1051  O     0.72733   0.58485   0.90073   0.00000  Uiso   1.00
O1052  O     0.70671   0.61702   0.82716   0.00000  Uiso   1.00
I1053  I     0.89595   0.39153   0.92475   0.00000  Uiso   1.00
I1054  I     0.77072   0.60847   0.74191   0.00000  Uiso   1.00
I1055  I     0.77071   0.39153   0.74192   0.00000  Uiso   1.00
I1056  I     0.89595   0.60847   0.92476   0.00000  Uiso   1.00
O1057  O     0.10559   0.87154   0.83333   0.00000  Uiso   1.00
O1058  O     0.22774   0.79513   0.83334   0.00000  Uiso   1.00
O1059  O     0.22774   0.87154   0.83334   0.00000  Uiso   1.00
O1060  O     0.10559   0.79513   0.83333   0.00000  Uiso   1.00
C1061  C     0.08698   0.83333   0.83808   0.00000  Uiso   1.00
C1062  C     0.24635   0.83334   0.82859   0.00000  Uiso   1.00
O1063  O     0.16667   0.87155   0.76178   0.00000  Uiso   1.00
O1064  O     0.16666   0.79512   0.90489   0.00000  Uiso   1.00
O1065  O     0.16666   0.87155   0.90489   0.00000  Uiso   1.00
O1066  O     0.16667   0.79512   0.76178   0.00000  Uiso   1.00
C1067  C     0.16660   0.83333   0.73968   0.00000  Uiso   1.00
C1068  C     0.16674   0.83333   0.92699   0.00000  Uiso   1.00
Zn1069 Zn    0.16667   0.88437   0.83333   0.00000  Uiso   1.00
Zn1070 Zn    0.16667   0.78229   0.83333   0.00000  Uiso   1.00
C1071  C     0.16665   0.83333   0.68851   0.00000  Uiso   1.00
C1072  C     0.16668   0.83333   0.97816   0.00000  Uiso   1.00
C1073  C     0.02098   0.79224   0.84086   0.00000  Uiso   1.00
C1074  C     0.31235   0.87444   0.82583   0.00000  Uiso   1.00
C1075  C     0.31235   0.79224   0.82581   0.00000  Uiso   1.00
C1076  C     0.02099   0.87443   0.84085   0.00000  Uiso   1.00
C1077  C     0.29083   0.83334   0.82327   0.00000  Uiso   1.00
C1078  C     0.04250   0.83333   0.84340   0.00000  Uiso   1.00
C1079  C     0.19086   0.69056   0.86853   0.00000  Uiso   1.00
C1080  C     0.14247   0.97610   0.79813   0.00000  Uiso   1.00
C1081  C     0.14247   0.69056   0.79813   0.00000  Uiso   1.00
C1082  C     0.19086   0.97610   0.86854   0.00000  Uiso   1.00
N1083  N     0.16667   0.95240   0.83333   0.00000  Uiso   1.00
N1084  N     0.16667   0.71427   0.83333   0.00000  Uiso   1.00
N1085  N     0.04113   0.75111   0.85652   0.00000  Uiso   1.00
O1086  O     0.06066   0.74848   0.90076   0.00000  Uiso   1.00
O1087  O     0.04003   0.71629   0.82719   0.00000  Uiso   1.00
N1088  N     0.29220   0.91556   0.81020   0.00000  Uiso   1.00
O1089  O     0.27268   0.91822   0.76597   0.00000  Uiso   1.00
O1090  O     0.29332   0.95037   0.83955   0.00000  Uiso   1.00
N1091  N     0.29219   0.75113   0.81014   0.00000  Uiso   1.00
O1092  O     0.27268   0.74851   0.76590   0.00000  Uiso   1.00
O1093  O     0.29328   0.71631   0.83946   0.00000  Uiso   1.00
N1094  N     0.04115   0.91554   0.85649   0.00000  Uiso   1.00
O1095  O     0.06066   0.91818   0.90073   0.00000  Uiso   1.00
O1096  O     0.04004   0.95035   0.82716   0.00000  Uiso   1.00
I1097  I     0.22929   0.72486   0.92475   0.00000  Uiso   1.00
I1098  I     0.10405   0.94180   0.74191   0.00000  Uiso   1.00
I1099  I     0.10404   0.72486   0.74192   0.00000  Uiso   1.00
I1100  I     0.22928   0.94181   0.92476   0.00000  Uiso   1.00
O1101  O     0.43892   0.87154   0.83333   0.00000  Uiso   1.00
O1102  O     0.56108   0.79513   0.83334   0.00000  Uiso   1.00
O1103  O     0.56108   0.87154   0.83334   0.00000  Uiso   1.00
O1104  O     0.43892   0.79513   0.83333   0.00000  Uiso   1.00
C1105  C     0.42032   0.83333   0.83808   0.00000  Uiso   1.00
C1106  C     0.57968   0.83334   0.82859   0.00000  Uiso   1.00
O1107  O     0.50000   0.87155   0.76178   0.00000  Uiso   1.00
O1108  O     0.50000   0.79512   0.90489   0.00000  Uiso   1.00
O1109  O     0.50000   0.87155   0.90489   0.00000  Uiso   1.00
O1110  O     0.50000   0.79512   0.76178   0.00000  Uiso   1.00
C1111  C     0.49993   0.83333   0.73968   0.00000  Uiso   1.00
C1112  C     0.50007   0.83333   0.92699   0.00000  Uiso   1.00
Zn1113 Zn    0.50000   0.88437   0.83333   0.00000  Uiso   1.00
Zn1114 Zn    0.50000   0.78229   0.83333   0.00000  Uiso   1.00
C1115  C     0.49998   0.83333   0.68851   0.00000  Uiso   1.00
C1116  C     0.50002   0.83333   0.97816   0.00000  Uiso   1.00
C1117  C     0.35431   0.79224   0.84086   0.00000  Uiso   1.00
C1118  C     0.64569   0.87444   0.82583   0.00000  Uiso   1.00
C1119  C     0.64568   0.79224   0.82581   0.00000  Uiso   1.00
C1120  C     0.35432   0.87443   0.84085   0.00000  Uiso   1.00
C1121  C     0.62417   0.83334   0.82327   0.00000  Uiso   1.00
C1122  C     0.37583   0.83333   0.84340   0.00000  Uiso   1.00
C1123  C     0.52420   0.69056   0.86853   0.00000  Uiso   1.00
C1124  C     0.47580   0.97610   0.79813   0.00000  Uiso   1.00
C1125  C     0.47580   0.69056   0.79813   0.00000  Uiso   1.00
C1126  C     0.52419   0.97610   0.86854   0.00000  Uiso   1.00
N1127  N     0.50000   0.95240   0.83333   0.00000  Uiso   1.00
N1128  N     0.50000   0.71427   0.83333   0.00000  Uiso   1.00
N1129  N     0.37447   0.75111   0.85652   0.00000  Uiso   1.00
O1130  O     0.39399   0.74848   0.90076   0.00000  Uiso   1.00
O1131  O     0.37337   0.71629   0.82719   0.00000  Uiso   1.00
N1132  N     0.62553   0.91556   0.81020   0.00000  Uiso   1.00
O1133  O     0.60601   0.91822   0.76597   0.00000  Uiso   1.00
O1134  O     0.62666   0.95037   0.83955   0.00000  Uiso   1.00
N1135  N     0.62552   0.75113   0.81014   0.00000  Uiso   1.00
O1136  O     0.60601   0.74851   0.76590   0.00000  Uiso   1.00
O1137  O     0.62661   0.71631   0.83946   0.00000  Uiso   1.00
N1138  N     0.37448   0.91554   0.85649   0.00000  Uiso   1.00
O1139  O     0.39400   0.91818   0.90073   0.00000  Uiso   1.00
O1140  O     0.37337   0.95035   0.82716   0.00000  Uiso   1.00
I1141  I     0.56262   0.72486   0.92475   0.00000  Uiso   1.00
I1142  I     0.43738   0.94180   0.74191   0.00000  Uiso   1.00
I1143  I     0.43738   0.72486   0.74192   0.00000  Uiso   1.00
I1144  I     0.56261   0.94181   0.92476   0.00000  Uiso   1.00
O1145  O     0.77226   0.87154   0.83333   0.00000  Uiso   1.00
O1146  O     0.89441   0.79513   0.83334   0.00000  Uiso   1.00
O1147  O     0.89441   0.87154   0.83334   0.00000  Uiso   1.00
O1148  O     0.77226   0.79513   0.83333   0.00000  Uiso   1.00
C1149  C     0.75365   0.83333   0.83808   0.00000  Uiso   1.00
C1150  C     0.91302   0.83334   0.82859   0.00000  Uiso   1.00
O1151  O     0.83334   0.87155   0.76178   0.00000  Uiso   1.00
O1152  O     0.83333   0.79512   0.90489   0.00000  Uiso   1.00
O1153  O     0.83333   0.87155   0.90489   0.00000  Uiso   1.00
O1154  O     0.83334   0.79512   0.76178   0.00000  Uiso   1.00
C1155  C     0.83326   0.83333   0.73968   0.00000  Uiso   1.00
C1156  C     0.83340   0.83333   0.92699   0.00000  Uiso   1.00
Zn1157 Zn    0.83333   0.88437   0.83333   0.00000  Uiso   1.00
Zn1158 Zn    0.83333   0.78229   0.83333   0.00000  Uiso   1.00
C1159  C     0.83332   0.83333   0.68851   0.00000  Uiso   1.00
C1160  C     0.83335   0.83333   0.97816   0.00000  Uiso   1.00
C1161  C     0.68765   0.79224   0.84086   0.00000  Uiso   1.00
C1162  C     0.97902   0.87444   0.82583   0.00000  Uiso   1.00
C1163  C     0.97901   0.79224   0.82581   0.00000  Uiso   1.00
C1164  C     0.68765   0.87443   0.84085   0.00000  Uiso   1.00
C1165  C     0.95750   0.83334   0.82327   0.00000  Uiso   1.00
C1166  C     0.70917   0.83333   0.84340   0.00000  Uiso   1.00
C1167  C     0.85753   0.69056   0.86853   0.00000  Uiso   1.00
C1168  C     0.80914   0.97610   0.79813   0.00000  Uiso   1.00
C1169  C     0.80914   0.69056   0.79813   0.00000  Uiso   1.00
C1170  C     0.85753   0.97610   0.86854   0.00000  Uiso   1.00
N1171  N     0.83333   0.95240   0.83333   0.00000  Uiso   1.00
N1172  N     0.83333   0.71427   0.83333   0.00000  Uiso   1.00
N1173  N     0.70780   0.75111   0.85652   0.00000  Uiso   1.00
O1174  O     0.72733   0.74848   0.90076   0.00000  Uiso   1.00
O1175  O     0.70670   0.71629   0.82719   0.00000  Uiso   1.00
N1176  N     0.95887   0.91556   0.81020   0.00000  Uiso   1.00
O1177  O     0.93934   0.91822   0.76597   0.00000  Uiso   1.00
O1178  O     0.95999   0.95037   0.83955   0.00000  Uiso   1.00
N1179  N     0.95885   0.75113   0.81014   0.00000  Uiso   1.00
O1180  O     0.93934   0.74851   0.76590   0.00000  Uiso   1.00
O1181  O     0.95994   0.71631   0.83946   0.00000  Uiso   1.00
N1182  N     0.70782   0.91554   0.85649   0.00000  Uiso   1.00
O1183  O     0.72733   0.91818   0.90073   0.00000  Uiso   1.00
O1184  O     0.70671   0.95035   0.82716   0.00000  Uiso   1.00
I1185  I     0.89595   0.72486   0.92475   0.00000  Uiso   1.00
I1186  I     0.77072   0.94180   0.74191   0.00000  Uiso   1.00
I1187  I     0.77071   0.72486   0.74192   0.00000  Uiso   1.00
I1188  I     0.89595   0.94181   0.92476   0.00000  Uiso   1.00
loop_
_geom_bond_atom_site_label_1
_geom_bond_atom_site_label_2
_geom_bond_distance
_geom_bond_site_symmetry_2
_ccdc_geom_bond_type
O1     C5      1.300   .     A
O1     Zn13    2.010   .     S
O2     C6      1.300   .     A
O2     Zn14    2.010   .     S
O3     Zn13    2.010   .     S
O3     C6      1.300   .     A
O4     Zn14    2.010   .     S
O4     C5      1.300   .     A
C5     C22     1.453   .     S
C6     C21     1.453   .     S
O7     C11     1.285   .     A
O7     Zn13    1.944   .     S
O8     C12     1.285   .     A
O8     Zn14    1.944   .     S
O9     C12     1.285   .     A
O9     Zn13    1.944   .     S
O10    C11     1.285   .     A
O10    Zn14    1.944   .     S
C11    C15     1.363   .     S
C12    C16     1.363   .     S
Zn13   N27     2.033   .     S
Zn14   N28     2.033   .     S
C15    C808    1.163   1_554 S
C16    C411    1.163   .     S
C17    C22     1.411   .     A
C17    N29     1.440   .     S
C17    C107    1.388   1_455 S
C18    C21     1.411   .     A
C18    N32     1.439   .     S
C18    C64     1.388   .     S
C19    N35     1.439   .     S
C19    C21     1.411   .     A
C19    C61     1.388   .     S
C20    N38     1.439   .     S
C20    C22     1.411   .     A
C20    C106    1.388   1_455 S
C23    N28     1.377   .     A
C23    I41     2.143   .     S
C23    C290    1.428   1_545 S
C24    N27     1.377   .     A
C24    I42     2.143   .     S
C24    C157    1.428   .     S
C25    I43     2.143   .     S
C25    N28     1.377   .     A
C25    C288    1.428   1_545 S
C26    I44     2.143   .     S
C26    N27     1.377   .     A
C26    C155    1.428   .     S
N29    O30     1.302   .     A
N29    O31     1.300   .     A
N32    O33     1.302   .     A
N32    O34     1.300   .     A
N35    O37     1.300   .     A
N35    O36     1.302   .     A
N38    O40     1.300   .     A
N38    O39     1.302   .     A
O45    C49     1.300   .     A
O45    Zn57    2.010   .     S
O46    C50     1.300   .     A
O46    Zn58    2.010   .     S
O47    Zn57    2.010   .     S
O47    C50     1.300   .     A
O48    Zn58    2.010   .     S
O48    C49     1.300   .     A
C49    C66     1.453   .     S
C50    C65     1.453   .     S
O51    C55     1.285   .     A
O51    Zn57    1.944   .     S
O52    C56     1.285   .     A
O52    Zn58    1.944   .     S
O53    C56     1.285   .     A
O53    Zn57    1.944   .     S
O54    C55     1.285   .     A
O54    Zn58    1.944   .     S
C55    C59     1.363   .     S
C56    C60     1.363   .     S
Zn57   N71     2.033   .     S
Zn58   N72     2.033   .     S
C59    C852    1.163   1_554 S
C60    C455    1.163   .     S
C61    C66     1.411   .     A
C61    N73     1.440   .     S
C62    C65     1.411   .     A
C62    N76     1.439   .     S
C62    C108    1.388   .     S
C63    N79     1.439   .     S
C63    C65     1.411   .     A
C63    C105    1.388   .     S
C64    N82     1.439   .     S
C64    C66     1.411   .     A
C67    N72     1.377   .     A
C67    I85     2.143   .     S
C67    C334    1.428   1_545 S
C68    N71     1.377   .     A
C68    I86     2.143   .     S
C68    C201    1.428   .     S
C69    I87     2.143   .     S
C69    N72     1.377   .     A
C69    C332    1.428   1_545 S
C70    I88     2.143   .     S
C70    N71     1.377   .     A
C70    C199    1.428   .     S
N73    O74     1.302   .     A
N73    O75     1.300   .     A
N76    O77     1.302   .     A
N76    O78     1.300   .     A
N79    O81     1.300   .     A
N79    O80     1.302   .     A
N82    O84     1.300   .     A
N82    O83     1.302   .     A
O89    C93     1.300   .     A
O89    Zn101   2.010   .     S
O90    C94     1.300   .     A
O90    Zn102   2.010   .     S
O91    Zn101   2.010   .     S
O91    C94     1.300   .     A
O92    Zn102   2.010   .     S
O92    C93     1.300   .     A
C93    C110    1.453   .     S
C94    C109    1.453   .     S
O95    C99     1.285   .     A
O95    Zn101   1.944   .     S
O96    C100    1.285   .     A
O96    Zn102   1.944   .     S
O97    C100    1.285   .     A
O97    Zn101   1.944   .     S
O98    C99     1.285   .     A
O98    Zn102   1.944   .     S
C99    C103    1.363   .     S
C100   C104    1.363   .     S
Zn101  N115    2.033   .     S
Zn102  N116    2.033   .     S
C103   C896    1.163   1_554 S
C104   C499    1.163   .     S
C105   C110    1.411   .     A
C105   N117    1.440   .     S
C106   C109    1.411   .     A
C106   N120    1.439   .     S
C106   C20     1.388   1_655 S
C107   N123    1.439   .     S
C107   C109    1.411   .     A
C107   C17     1.388   1_655 S
C108   N126    1.439   .     S
C108   C110    1.411   .     A
C111   N116    1.377   .     A
C111   I129    2.143   .     S
C111   C378    1.428   1_545 S
C112   N115    1.377   .     A
C112   I130    2.143   .     S
C112   C245    1.428   .     S
C113   I131    2.143   .     S
C113   N116    1.377   .     A
C113   C376    1.428   1_545 S
C114   I132    2.143   .     S
C114   N115    1.377   .     A
C114   C243    1.428   .     S
N117   O118    1.302   .     A
N117   O119    1.300   .     A
N120   O121    1.302   .     A
N120   O122    1.300   .     A
N123   O125    1.300   .     A
N123   O124    1.302   .     A
N126   O128    1.300   .     A
N126   O127    1.302   .     A
O133   C137    1.300   .     A
O133   Zn145   2.010   .     S
O134   C138    1.300   .     A
O134   Zn146   2.010   .     S
O135   Zn145   2.010   .     S
O135   C138    1.300   .     A
O136   Zn146   2.010   .     S
O136   C137    1.300   .     A
C137   C154    1.453   .     S
C138   C153    1.453   .     S
O139   C143    1.285   .     A
O139   Zn145   1.944   .     S
O140   C144    1.285   .     A
O140   Zn146   1.944   .     S
O141   C144    1.285   .     A
O141   Zn145   1.944   .     S
O142   C143    1.285   .     A
O142   Zn146   1.944   .     S
C143   C147    1.363   .     S
C144   C148    1.363   .     S
Zn145  N159    2.033   .     S
Zn146  N160    2.033   .     S
C147   C940    1.163   1_554 S
C148   C543    1.163   .     S
C149   C154    1.411   .     A
C149   N161    1.440   .     S
C149   C239    1.388   1_455 S
C150   C153    1.411   .     A
C150   N164    1.439   .     S
C150   C196    1.388   .     S
C151   N167    1.439   .     S
C151   C153    1.411   .     A
C151   C193    1.388   .     S
C152   N170    1.439   .     S
C152   C154    1.411   .     A
C152   C238    1.388   1_455 S
C155   N160    1.377   .     A
C155   I173    2.143   .     S
C156   N159    1.377   .     A
C156   I174    2.143   .     S
C156   C289    1.428   .     S
C157   I175    2.143   .     S
C157   N160    1.377   .     A
C158   I176    2.143   .     S
C158   N159    1.377   .     A
C158   C287    1.428   .     S
N161   O162    1.302   .     A
N161   O163    1.300   .     A
N164   O165    1.302   .     A
N164   O166    1.300   .     A
N167   O169    1.300   .     A
N167   O168    1.302   .     A
N170   O172    1.300   .     A
N170   O171    1.302   .     A
O177   C181    1.300   .     A
O177   Zn189   2.010   .     S
O178   C182    1.300   .     A
O178   Zn190   2.010   .     S
O179   Zn189   2.010   .     S
O179   C182    1.300   .     A
O180   Zn190   2.010   .     S
O180   C181    1.300   .     A
C181   C198    1.453   .     S
C182   C197    1.453   .     S
O183   C187    1.285   .     A
O183   Zn189   1.944   .     S
O184   C188    1.285   .     A
O184   Zn190   1.944   .     S
O185   C188    1.285   .     A
O185   Zn189   1.944   .     S
O186   C187    1.285   .     A
O186   Zn190   1.944   .     S
C187   C191    1.363   .     S
C188   C192    1.363   .     S
Zn189  N203    2.033   .     S
Zn190  N204    2.033   .     S
C191   C984    1.163   1_554 S
C192   C587    1.163   .     S
C193   C198    1.411   .     A
C193   N205    1.440   .     S
C194   C197    1.411   .     A
C194   N208    1.439   .     S
C194   C240    1.388   .     S
C195   N211    1.439   .     S
C195   C197    1.411   .     A
C195   C237    1.388   .     S
C196   N214    1.439   .     S
C196   C198    1.411   .     A
C199   N204    1.377   .     A
C199   I217    2.143   .     S
C200   N203    1.377   .     A
C200   I218    2.143   .     S
C200   C333    1.428   .     S
C201   I219    2.143   .     S
C201   N204    1.377   .     A
C202   I220    2.143   .     S
C202   N203    1.377   .     A
C202   C331    1.428   .     S
N205   O206    1.302   .     A
N205   O207    1.300   .     A
N208   O209    1.302   .     A
N208   O210    1.300   .     A
N211   O213    1.300   .     A
N211   O212    1.302   .     A
N214   O216    1.300   .     A
N214   O215    1.302   .     A
O221   C225    1.300   .     A
O221   Zn233   2.010   .     S
O222   C226    1.300   .     A
O222   Zn234   2.010   .     S
O223   Zn233   2.010   .     S
O223   C226    1.300   .     A
O224   Zn234   2.010   .     S
O224   C225    1.300   .     A
C225   C242    1.453   .     S
C226   C241    1.453   .     S
O227   C231    1.285   .     A
O227   Zn233   1.944   .     S
O228   C232    1.285   .     A
O228   Zn234   1.944   .     S
O229   C232    1.285   .     A
O229   Zn233   1.944   .     S
O230   C231    1.285   .     A
O230   Zn234   1.944   .     S
C231   C235    1.363   .     S
C232   C236    1.363   .     S
Zn233  N247    2.033   .     S
Zn234  N248    2.033   .     S
C235   C1028   1.163   1_554 S
C236   C631    1.163   .     S
C237   C242    1.411   .     A
C237   N249    1.440   .     S
C238   C241    1.411   .     A
C238   N252    1.439   .     S
C238   C152    1.388   1_655 S
C239   N255    1.439   .     S
C239   C241    1.411   .     A
C239   C149    1.388   1_655 S
C240   N258    1.439   .     S
C240   C242    1.411   .     A
C243   N248    1.377   .     A
C243   I261    2.143   .     S
C244   N247    1.377   .     A
C244   I262    2.143   .     S
C244   C377    1.428   .     S
C245   I263    2.143   .     S
C245   N248    1.377   .     A
C246   I264    2.143   .     S
C246   N247    1.377   .     A
C246   C375    1.428   .     S
N249   O250    1.302   .     A
N249   O251    1.300   .     A
N252   O253    1.302   .     A
N252   O254    1.300   .     A
N255   O257    1.300   .     A
N255   O256    1.302   .     A
N258   O260    1.300   .     A
N258   O259    1.302   .     A
O265   C269    1.300   .     A
O265   Zn277   2.010   .     S
O266   C270    1.300   .     A
O266   Zn278   2.010   .     S
O267   Zn277   2.010   .     S
O267   C270    1.300   .     A
O268   Zn278   2.010   .     S
O268   C269    1.300   .     A
C269   C286    1.453   .     S
C270   C285    1.453   .     S
O271   C275    1.285   .     A
O271   Zn277   1.944   .     S
O272   C276    1.285   .     A
O272   Zn278   1.944   .     S
O273   C276    1.285   .     A
O273   Zn277   1.944   .     S
O274   C275    1.285   .     A
O274   Zn278   1.944   .     S
C275   C279    1.363   .     S
C276   C280    1.363   .     S
Zn277  N291    2.033   .     S
Zn278  N292    2.033   .     S
C279   C1072   1.163   1_554 S
C280   C675    1.163   .     S
C281   C286    1.411   .     A
C281   N293    1.440   .     S
C281   C371    1.388   1_455 S
C282   C285    1.411   .     A
C282   N296    1.439   .     S
C282   C328    1.388   .     S
C283   N299    1.439   .     S
C283   C285    1.411   .     A
C283   C325    1.388   .     S
C284   N302    1.439   .     S
C284   C286    1.411   .     A
C284   C370    1.388   1_455 S
C287   N292    1.377   .     A
C287   I305    2.143   .     S
C288   N291    1.377   .     A
C288   I306    2.143   .     S
C288   C25     1.428   1_565 S
C289   I307    2.143   .     S
C289   N292    1.377   .     A
C290   I308    2.143   .     S
C290   N291    1.377   .     A
C290   C23     1.428   1_565 S
N293   O294    1.302   .     A
N293   O295    1.300   .     A
N296   O297    1.302   .     A
N296   O298    1.300   .     A
N299   O301    1.300   .     A
N299   O300    1.302   .     A
N302   O304    1.300   .     A
N302   O303    1.302   .     A
O309   C313    1.300   .     A
O309   Zn321   2.010   .     S
O310   C314    1.300   .     A
O310   Zn322   2.010   .     S
O311   Zn321   2.010   .     S
O311   C314    1.300   .     A
O312   Zn322   2.010   .     S
O312   C313    1.300   .     A
C313   C330    1.453   .     S
C314   C329    1.453   .     S
O315   C319    1.285   .     A
O315   Zn321   1.944   .     S
O316   C320    1.285   .     A
O316   Zn322   1.944   .     S
O317   C320    1.285   .     A
O317   Zn321   1.944   .     S
O318   C319    1.285   .     A
O318   Zn322   1.944   .     S
C319   C323    1.363   .     S
C320   C324    1.363   .     S
Zn321  N335    2.033   .     S
Zn322  N336    2.033   .     S
C323   C1116   1.163   1_554 S
C324   C719    1.163   .     S
C325   C330    1.411   .     A
C325   N337    1.440   .     S
C326   C329    1.411   .     A
C326   N340    1.439   .     S
C326   C372    1.388   .     S
C327   N343    1.439   .     S
C327   C329    1.411   .     A
C327   C369    1.388   .     S
C328   N346    1.439   .     S
C328   C330    1.411   .     A
C331   N336    1.377   .     A
C331   I349    2.143   .     S
C332   N335    1.377   .     A
C332   I350    2.143   .     S
C332   C69     1.428   1_565 S
C333   I351    2.143   .     S
C333   N336    1.377   .     A
C334   I352    2.143   .     S
C334   N335    1.377   .     A
C334   C67     1.428   1_565 S
N337   O338    1.302   .     A
N337   O339    1.300   .     A
N340   O341    1.302   .     A
N340   O342    1.300   .     A
N343   O345    1.300   .     A
N343   O344    1.302   .     A
N346   O348    1.300   .     A
N346   O347    1.302   .     A
O353   C357    1.300   .     A
O353   Zn365   2.010   .     S
O354   C358    1.300   .     A
O354   Zn366   2.010   .     S
O355   Zn365   2.010   .     S
O355   C358    1.300   .     A
O356   Zn366   2.010   .     S
O356   C357    1.300   .     A
C357   C374    1.453   .     S
C358   C373    1.453   .     S
O359   C363    1.285   .     A
O359   Zn365   1.944   .     S
O360   C364    1.285   .     A
O360   Zn366   1.944   .     S
O361   C364    1.285   .     A
O361   Zn365   1.944   .     S
O362   C363    1.285   .     A
O362   Zn366   1.944   .     S
C363   C367    1.363   .     S
C364   C368    1.363   .     S
Zn365  N379    2.033   .     S
Zn366  N380    2.033   .     S
C367   C1160   1.163   1_554 S
C368   C763    1.163   .     S
C369   C374    1.411   .     A
C369   N381    1.440   .     S
C370   C373    1.411   .     A
C370   N384    1.439   .     S
C370   C284    1.388   1_655 S
C371   N387    1.439   .     S
C371   C373    1.411   .     A
C371   C281    1.388   1_655 S
C372   N390    1.439   .     S
C372   C374    1.411   .     A
C375   N380    1.377   .     A
C375   I393    2.143   .     S
C376   N379    1.377   .     A
C376   I394    2.143   .     S
C376   C113    1.428   1_565 S
C377   I395    2.143   .     S
C377   N380    1.377   .     A
C378   I396    2.143   .     S
C378   N379    1.377   .     A
C378   C111    1.428   1_565 S
N381   O382    1.302   .     A
N381   O383    1.300   .     A
N384   O385    1.302   .     A
N384   O386    1.300   .     A
N387   O389    1.300   .     A
N387   O388    1.302   .     A
N390   O392    1.300   .     A
N390   O391    1.302   .     A
O397   C401    1.300   .     A
O397   Zn409   2.010   .     S
O398   C402    1.300   .     A
O398   Zn410   2.010   .     S
O399   Zn409   2.010   .     S
O399   C402    1.300   .     A
O400   Zn410   2.010   .     S
O400   C401    1.300   .     A
C401   C418    1.453   .     S
C402   C417    1.453   .     S
O403   C407    1.285   .     A
O403   Zn409   1.944   .     S
O404   C408    1.285   .     A
O404   Zn410   1.944   .     S
O405   C408    1.285   .     A
O405   Zn409   1.944   .     S
O406   C407    1.285   .     A
O406   Zn410   1.944   .     S
C407   C411    1.363   .     S
C408   C412    1.363   .     S
Zn409  N423    2.033   .     S
Zn410  N424    2.033   .     S
C412   C807    1.163   .     S
C413   C418    1.411   .     A
C413   N425    1.440   .     S
C413   C503    1.388   1_455 S
C414   C417    1.411   .     A
C414   N428    1.439   .     S
C414   C460    1.388   .     S
C415   N431    1.439   .     S
C415   C417    1.411   .     A
C415   C457    1.388   .     S
C416   N434    1.439   .     S
C416   C418    1.411   .     A
C416   C502    1.388   1_455 S
C419   N424    1.377   .     A
C419   I437    2.143   .     S
C419   C686    1.428   1_545 S
C420   N423    1.377   .     A
C420   I438    2.143   .     S
C420   C553    1.428   .     S
C421   I439    2.143   .     S
C421   N424    1.377   .     A
C421   C684    1.428   1_545 S
C422   I440    2.143   .     S
C422   N423    1.377   .     A
C422   C551    1.428   .     S
N425   O426    1.302   .     A
N425   O427    1.300   .     A
N428   O429    1.302   .     A
N428   O430    1.300   .     A
N431   O433    1.300   .     A
N431   O432    1.302   .     A
N434   O436    1.300   .     A
N434   O435    1.302   .     A
O441   C445    1.300   .     A
O441   Zn453   2.010   .     S
O442   C446    1.300   .     A
O442   Zn454   2.010   .     S
O443   Zn453   2.010   .     S
O443   C446    1.300   .     A
O444   Zn454   2.010   .     S
O444   C445    1.300   .     A
C445   C462    1.453   .     S
C446   C461    1.453   .     S
O447   C451    1.285   .     A
O447   Zn453   1.944   .     S
O448   C452    1.285   .     A
O448   Zn454   1.944   .     S
O449   C452    1.285   .     A
O449   Zn453   1.944   .     S
O450   C451    1.285   .     A
O450   Zn454   1.944   .     S
C451   C455    1.363   .     S
C452   C456    1.363   .     S
Zn453  N467    2.033   .     S
Zn454  N468    2.033   .     S
C456   C851    1.163   .     S
C457   C462    1.411   .     A
C457   N469    1.440   .     S
C458   C461    1.411   .     A
C458   N472    1.439   .     S
C458   C504    1.388   .     S
C459   N475    1.439   .     S
C459   C461    1.411   .     A
C459   C501    1.388   .     S
C460   N478    1.439   .     S
C460   C462    1.411   .     A
C463   N468    1.377   .     A
C463   I481    2.143   .     S
C463   C730    1.428   1_545 S
C464   N467    1.377   .     A
C464   I482    2.143   .     S
C464   C597    1.428   .     S
C465   I483    2.143   .     S
C465   N468    1.377   .     A
C465   C728    1.428   1_545 S
C466   I484    2.143   .     S
C466   N467    1.377   .     A
C466   C595    1.428   .     S
N469   O470    1.302   .     A
N469   O471    1.300   .     A
N472   O473    1.302   .     A
N472   O474    1.300   .     A
N475   O477    1.300   .     A
N475   O476    1.302   .     A
N478   O480    1.300   .     A
N478   O479    1.302   .     A
O485   C489    1.300   .     A
O485   Zn497   2.010   .     S
O486   C490    1.300   .     A
O486   Zn498   2.010   .     S
O487   Zn497   2.010   .     S
O487   C490    1.300   .     A
O488   Zn498   2.010   .     S
O488   C489    1.300   .     A
C489   C506    1.453   .     S
C490   C505    1.453   .     S
O491   C495    1.285   .     A
O491   Zn497   1.944   .     S
O492   C496    1.285   .     A
O492   Zn498   1.944   .     S
O493   C496    1.285   .     A
O493   Zn497   1.944   .     S
O494   C495    1.285   .     A
O494   Zn498   1.944   .     S
C495   C499    1.363   .     S
C496   C500    1.363   .     S
Zn497  N511    2.033   .     S
Zn498  N512    2.033   .     S
C500   C895    1.163   .     S
C501   C506    1.411   .     A
C501   N513    1.440   .     S
C502   C505    1.411   .     A
C502   N516    1.439   .     S
C502   C416    1.388   1_655 S
C503   N519    1.439   .     S
C503   C505    1.411   .     A
C503   C413    1.388   1_655 S
C504   N522    1.439   .     S
C504   C506    1.411   .     A
C507   N512    1.377   .     A
C507   I525    2.143   .     S
C507   C774    1.428   1_545 S
C508   N511    1.377   .     A
C508   I526    2.143   .     S
C508   C641    1.428   .     S
C509   I527    2.143   .     S
C509   N512    1.377   .     A
C509   C772    1.428   1_545 S
C510   I528    2.143   .     S
C510   N511    1.377   .     A
C510   C639    1.428   .     S
N513   O514    1.302   .     A
N513   O515    1.300   .     A
N516   O517    1.302   .     A
N516   O518    1.300   .     A
N519   O521    1.300   .     A
N519   O520    1.302   .     A
N522   O524    1.300   .     A
N522   O523    1.302   .     A
O529   C533    1.300   .     A
O529   Zn541   2.010   .     S
O530   C534    1.300   .     A
O530   Zn542   2.010   .     S
O531   Zn541   2.010   .     S
O531   C534    1.300   .     A
O532   Zn542   2.010   .     S
O532   C533    1.300   .     A
C533   C550    1.453   .     S
C534   C549    1.453   .     S
O535   C539    1.285   .     A
O535   Zn541   1.944   .     S
O536   C540    1.285   .     A
O536   Zn542   1.944   .     S
O537   C540    1.285   .     A
O537   Zn541   1.944   .     S
O538   C539    1.285   .     A
O538   Zn542   1.944   .     S
C539   C543    1.363   .     S
C540   C544    1.363   .     S
Zn541  N555    2.033   .     S
Zn542  N556    2.033   .     S
C544   C939    1.163   .     S
C545   C550    1.411   .     A
C545   N557    1.440   .     S
C545   C635    1.388   1_455 S
C546   C549    1.411   .     A
C546   N560    1.439   .     S
C546   C592    1.388   .     S
C547   N563    1.439   .     S
C547   C549    1.411   .     A
C547   C589    1.388   .     S
C548   N566    1.439   .     S
C548   C550    1.411   .     A
C548   C634    1.388   1_455 S
C551   N556    1.377   .     A
C551   I569    2.143   .     S
C552   N555    1.377   .     A
C552   I570    2.143   .     S
C552   C685    1.428   .     S
C553   I571    2.143   .     S
C553   N556    1.377   .     A
C554   I572    2.143   .     S
C554   N555    1.377   .     A
C554   C683    1.428   .     S
N557   O558    1.302   .     A
N557   O559    1.300   .     A
N560   O561    1.302   .     A
N560   O562    1.300   .     A
N563   O565    1.300   .     A
N563   O564    1.302   .     A
N566   O568    1.300   .     A
N566   O567    1.302   .     A
O573   C577    1.300   .     A
O573   Zn585   2.010   .     S
O574   C578    1.300   .     A
O574   Zn586   2.010   .     S
O575   Zn585   2.010   .     S
O575   C578    1.300   .     A
O576   Zn586   2.010   .     S
O576   C577    1.300   .     A
C577   C594    1.453   .     S
C578   C593    1.453   .     S
O579   C583    1.285   .     A
O579   Zn585   1.944   .     S
O580   C584    1.285   .     A
O580   Zn586   1.944   .     S
O581   C584    1.285   .     A
O581   Zn585   1.944   .     S
O582   C583    1.285   .     A
O582   Zn586   1.944   .     S
C583   C587    1.363   .     S
C584   C588    1.363   .     S
Zn585  N599    2.033   .     S
Zn586  N600    2.033   .     S
C588   C983    1.163   .     S
C589   C594    1.411   .     A
C589   N601    1.440   .     S
C590   C593    1.411   .     A
C590   N604    1.439   .     S
C590   C636    1.388   .     S
C591   N607    1.439   .     S
C591   C593    1.411   .     A
C591   C633    1.388   .     S
C592   N610    1.439   .     S
C592   C594    1.411   .     A
C595   N600    1.377   .     A
C595   I613    2.143   .     S
C596   N599    1.377   .     A
C596   I614    2.143   .     S
C596   C729    1.428   .     S
C597   I615    2.143   .     S
C597   N600    1.377   .     A
C598   I616    2.143   .     S
C598   N599    1.377   .     A
C598   C727    1.428   .     S
N601   O602    1.302   .     A
N601   O603    1.300   .     A
N604   O605    1.302   .     A
N604   O606    1.300   .     A
N607   O609    1.300   .     A
N607   O608    1.302   .     A
N610   O612    1.300   .     A
N610   O611    1.302   .     A
O617   C621    1.300   .     A
O617   Zn629   2.010   .     S
O618   C622    1.300   .     A
O618   Zn630   2.010   .     S
O619   Zn629   2.010   .     S
O619   C622    1.300   .     A
O620   Zn630   2.010   .     S
O620   C621    1.300   .     A
C621   C638    1.453   .     S
C622   C637    1.453   .     S
O623   C627    1.285   .     A
O623   Zn629   1.944   .     S
O624   C628    1.285   .     A
O624   Zn630   1.944   .     S
O625   C628    1.285   .     A
O625   Zn629   1.944   .     S
O626   C627    1.285   .     A
O626   Zn630   1.944   .     S
C627   C631    1.363   .     S
C628   C632    1.363   .     S
Zn629  N643    2.033   .     S
Zn630  N644    2.033   .     S
C632   C1027   1.163   .     S
C633   C638    1.411   .     A
C633   N645    1.440   .     S
C634   C637    1.411   .     A
C634   N648    1.439   .     S
C634   C548    1.388   1_655 S
C635   N651    1.439   .     S
C635   C637    1.411   .     A
C635   C545    1.388   1_655 S
C636   N654    1.439   .     S
C636   C638    1.411   .     A
C639   N644    1.377   .     A
C639   I657    2.143   .     S
C640   N643    1.377   .     A
C640   I658    2.143   .     S
C640   C773    1.428   .     S
C641   I659    2.143   .     S
C641   N644    1.377   .     A
C642   I660    2.143   .     S
C642   N643    1.377   .     A
C642   C771    1.428   .     S
N645   O646    1.302   .     A
N645   O647    1.300   .     A
N648   O649    1.302   .     A
N648   O650    1.300   .     A
N651   O653    1.300   .     A
N651   O652    1.302   .     A
N654   O656    1.300   .     A
N654   O655    1.302   .     A
O661   C665    1.300   .     A
O661   Zn673   2.010   .     S
O662   C666    1.300   .     A
O662   Zn674   2.010   .     S
O663   Zn673   2.010   .     S
O663   C666    1.300   .     A
O664   Zn674   2.010   .     S
O664   C665    1.300   .     A
C665   C682    1.453   .     S
C666   C681    1.453   .     S
O667   C671    1.285   .     A
O667   Zn673   1.944   .     S
O668   C672    1.285   .     A
O668   Zn674   1.944   .     S
O669   C672    1.285   .     A
O669   Zn673   1.944   .     S
O670   C671    1.285   .     A
O670   Zn674   1.944   .     S
C671   C675    1.363   .     S
C672   C676    1.363   .     S
Zn673  N687    2.033   .     S
Zn674  N688    2.033   .     S
C676   C1071   1.163   .     S
C677   C682    1.411   .     A
C677   N689    1.440   .     S
C677   C767    1.388   1_455 S
C678   C681    1.411   .     A
C678   N692    1.439   .     S
C678   C724    1.388   .     S
C679   N695    1.439   .     S
C679   C681    1.411   .     A
C679   C721    1.388   .     S
C680   N698    1.439   .     S
C680   C682    1.411   .     A
C680   C766    1.388   1_455 S
C683   N688    1.377   .     A
C683   I701    2.143   .     S
C684   N687    1.377   .     A
C684   I702    2.143   .     S
C684   C421    1.428   1_565 S
C685   I703    2.143   .     S
C685   N688    1.377   .     A
C686   I704    2.143   .     S
C686   N687    1.377   .     A
C686   C419    1.428   1_565 S
N689   O690    1.302   .     A
N689   O691    1.300   .     A
N692   O693    1.302   .     A
N692   O694    1.300   .     A
N695   O697    1.300   .     A
N695   O696    1.302   .     A
N698   O700    1.300   .     A
N698   O699    1.302   .     A
O705   C709    1.300   .     A
O705   Zn717   2.010   .     S
O706   C710    1.300   .     A
O706   Zn718   2.010   .     S
O707   Zn717   2.010   .     S
O707   C710    1.300   .     A
O708   Zn718   2.010   .     S
O708   C709    1.300   .     A
C709   C726    1.453   .     S
C710   C725    1.453   .     S
O711   C715    1.285   .     A
O711   Zn717   1.944   .     S
O712   C716    1.285   .     A
O712   Zn718   1.944   .     S
O713   C716    1.285   .     A
O713   Zn717   1.944   .     S
O714   C715    1.285   .     A
O714   Zn718   1.944   .     S
C715   C719    1.363   .     S
C716   C720    1.363   .     S
Zn717  N731    2.033   .     S
Zn718  N732    2.033   .     S
C720   C1115   1.163   .     S
C721   C726    1.411   .     A
C721   N733    1.440   .     S
C722   C725    1.411   .     A
C722   N736    1.439   .     S
C722   C768    1.388   .     S
C723   N739    1.439   .     S
C723   C725    1.411   .     A
C723   C765    1.388   .     S
C724   N742    1.439   .     S
C724   C726    1.411   .     A
C727   N732    1.377   .     A
C727   I745    2.143   .     S
C728   N731    1.377   .     A
C728   I746    2.143   .     S
C728   C465    1.428   1_565 S
C729   I747    2.143   .     S
C729   N732    1.377   .     A
C730   I748    2.143   .     S
C730   N731    1.377   .     A
C730   C463    1.428   1_565 S
N733   O734    1.302   .     A
N733   O735    1.300   .     A
N736   O737    1.302   .     A
N736   O738    1.300   .     A
N739   O741    1.300   .     A
N739   O740    1.302   .     A
N742   O744    1.300   .     A
N742   O743    1.302   .     A
O749   C753    1.300   .     A
O749   Zn761   2.010   .     S
O750   C754    1.300   .     A
O750   Zn762   2.010   .     S
O751   Zn761   2.010   .     S
O751   C754    1.300   .     A
O752   Zn762   2.010   .     S
O752   C753    1.300   .     A
C753   C770    1.453   .     S
C754   C769    1.453   .     S
O755   C759    1.285   .     A
O755   Zn761   1.944   .     S
O756   C760    1.285   .     A
O756   Zn762   1.944   .     S
O757   C760    1.285   .     A
O757   Zn761   1.944   .     S
O758   C759    1.285   .     A
O758   Zn762   1.944   .     S
C759   C763    1.363   .     S
C760   C764    1.363   .     S
Zn761  N775    2.033   .     S
Zn762  N776    2.033   .     S
C764   C1159   1.163   .     S
C765   C770    1.411   .     A
C765   N777    1.440   .     S
C766   C769    1.411   .     A
C766   N780    1.439   .     S
C766   C680    1.388   1_655 S
C767   N783    1.439   .     S
C767   C769    1.411   .     A
C767   C677    1.388   1_655 S
C768   N786    1.439   .     S
C768   C770    1.411   .     A
C771   N776    1.377   .     A
C771   I789    2.143   .     S
C772   N775    1.377   .     A
C772   I790    2.143   .     S
C772   C509    1.428   1_565 S
C773   I791    2.143   .     S
C773   N776    1.377   .     A
C774   I792    2.143   .     S
C774   N775    1.377   .     A
C774   C507    1.428   1_565 S
N777   O778    1.302   .     A
N777   O779    1.300   .     A
N780   O781    1.302   .     A
N780   O782    1.300   .     A
N783   O785    1.300   .     A
N783   O784    1.302   .     A
N786   O788    1.300   .     A
N786   O787    1.302   .     A
O793   C797    1.300   .     A
O793   Zn805   2.010   .     S
O794   C798    1.300   .     A
O794   Zn806   2.010   .     S
O795   Zn805   2.010   .     S
O795   C798    1.300   .     A
O796   Zn806   2.010   .     S
O796   C797    1.300   .     A
C797   C814    1.453   .     S
C798   C813    1.453   .     S
O799   C803    1.285   .     A
O799   Zn805   1.944   .     S
O800   C804    1.285   .     A
O800   Zn806   1.944   .     S
O801   C804    1.285   .     A
O801   Zn805   1.944   .     S
O802   C803    1.285   .     A
O802   Zn806   1.944   .     S
C803   C807    1.363   .     S
C804   C808    1.363   .     S
Zn805  N819    2.033   .     S
Zn806  N820    2.033   .     S
C808   C15     1.163   1_556 S
C809   C814    1.411   .     A
C809   N821    1.440   .     S
C809   C899    1.388   1_455 S
C810   C813    1.411   .     A
C810   N824    1.439   .     S
C810   C856    1.388   .     S
C811   N827    1.439   .     S
C811   C813    1.411   .     A
C811   C853    1.388   .     S
C812   N830    1.439   .     S
C812   C814    1.411   .     A
C812   C898    1.388   1_455 S
C815   N820    1.377   .     A
C815   I833    2.143   .     S
C815   C1082   1.428   1_545 S
C816   N819    1.377   .     A
C816   I834    2.143   .     S
C816   C949    1.428   .     S
C817   I835    2.143   .     S
C817   N820    1.377   .     A
C817   C1080   1.428   1_545 S
C818   I836    2.143   .     S
C818   N819    1.377   .     A
C818   C947    1.428   .     S
N821   O822    1.302   .     A
N821   O823    1.300   .     A
N824   O825    1.302   .     A
N824   O826    1.300   .     A
N827   O829    1.300   .     A
N827   O828    1.302   .     A
N830   O832    1.300   .     A
N830   O831    1.302   .     A
O837   C841    1.300   .     A
O837   Zn849   2.010   .     S
O838   C842    1.300   .     A
O838   Zn850   2.010   .     S
O839   Zn849   2.010   .     S
O839   C842    1.300   .     A
O840   Zn850   2.010   .     S
O840   C841    1.300   .     A
C841   C858    1.453   .     S
C842   C857    1.453   .     S
O843   C847    1.285   .     A
O843   Zn849   1.944   .     S
O844   C848    1.285   .     A
O844   Zn850   1.944   .     S
O845   C848    1.285   .     A
O845   Zn849   1.944   .     S
O846   C847    1.285   .     A
O846   Zn850   1.944   .     S
C847   C851    1.363   .     S
C848   C852    1.363   .     S
Zn849  N863    2.033   .     S
Zn850  N864    2.033   .     S
C852   C59     1.163   1_556 S
C853   C858    1.411   .     A
C853   N865    1.440   .     S
C854   C857    1.411   .     A
C854   N868    1.439   .     S
C854   C900    1.388   .     S
C855   N871    1.439   .     S
C855   C857    1.411   .     A
C855   C897    1.388   .     S
C856   N874    1.439   .     S
C856   C858    1.411   .     A
C859   N864    1.377   .     A
C859   I877    2.143   .     S
C859   C1126   1.428   1_545 S
C860   N863    1.377   .     A
C860   I878    2.143   .     S
C860   C993    1.428   .     S
C861   I879    2.143   .     S
C861   N864    1.377   .     A
C861   C1124   1.428   1_545 S
C862   I880    2.143   .     S
C862   N863    1.377   .     A
C862   C991    1.428   .     S
N865   O866    1.302   .     A
N865   O867    1.300   .     A
N868   O869    1.302   .     A
N868   O870    1.300   .     A
N871   O873    1.300   .     A
N871   O872    1.302   .     A
N874   O876    1.300   .     A
N874   O875    1.302   .     A
O881   C885    1.300   .     A
O881   Zn893   2.010   .     S
O882   C886    1.300   .     A
O882   Zn894   2.010   .     S
O883   Zn893   2.010   .     S
O883   C886    1.300   .     A
O884   Zn894   2.010   .     S
O884   C885    1.300   .     A
C885   C902    1.453   .     S
C886   C901    1.453   .     S
O887   C891    1.285   .     A
O887   Zn893   1.944   .     S
O888   C892    1.285   .     A
O888   Zn894   1.944   .     S
O889   C892    1.285   .     A
O889   Zn893   1.944   .     S
O890   C891    1.285   .     A
O890   Zn894   1.944   .     S
C891   C895    1.363   .     S
C892   C896    1.363   .     S
Zn893  N907    2.033   .     S
Zn894  N908    2.033   .     S
C896   C103    1.163   1_556 S
C897   C902    1.411   .     A
C897   N909    1.440   .     S
C898   C901    1.411   .     A
C898   N912    1.439   .     S
C898   C812    1.388   1_655 S
C899   N915    1.439   .     S
C899   C901    1.411   .     A
C899   C809    1.388   1_655 S
C900   N918    1.439   .     S
C900   C902    1.411   .     A
C903   N908    1.377   .     A
C903   I921    2.143   .     S
C903   C1170   1.428   1_545 S
C904   N907    1.377   .     A
C904   I922    2.143   .     S
C904   C1037   1.428   .     S
C905   I923    2.143   .     S
C905   N908    1.377   .     A
C905   C1168   1.428   1_545 S
C906   I924    2.143   .     S
C906   N907    1.377   .     A
C906   C1035   1.428   .     S
N909   O910    1.302   .     A
N909   O911    1.300   .     A
N912   O913    1.302   .     A
N912   O914    1.300   .     A
N915   O917    1.300   .     A
N915   O916    1.302   .     A
N918   O920    1.300   .     A
N918   O919    1.302   .     A
O925   C929    1.300   .     A
O925   Zn937   2.010   .     S
O926   C930    1.300   .     A
O926   Zn938   2.010   .     S
O927   Zn937   2.010   .     S
O927   C930    1.300   .     A
O928   Zn938   2.010   .     S
O928   C929    1.300   .     A
C929   C946    1.453   .     S
C930   C945    1.453   .     S
O931   C935    1.285   .     A
O931   Zn937   1.944   .     S
O932   C936    1.285   .     A
O932   Zn938   1.944   .     S
O933   C936    1.285   .     A
O933   Zn937   1.944   .     S
O934   C935    1.285   .     A
O934   Zn938   1.944   .     S
C935   C939    1.363   .     S
C936   C940    1.363   .     S
Zn937  N951    2.033   .     S
Zn938  N952    2.033   .     S
C940   C147    1.163   1_556 S
C941   C946    1.411   .     A
C941   N953    1.440   .     S
C941   C1031   1.388   1_455 S
C942   C945    1.411   .     A
C942   N956    1.439   .     S
C942   C988    1.388   .     S
C943   N959    1.439   .     S
C943   C945    1.411   .     A
C943   C985    1.388   .     S
C944   N962    1.439   .     S
C944   C946    1.411   .     A
C944   C1030   1.388   1_455 S
C947   N952    1.377   .     A
C947   I965    2.143   .     S
C948   N951    1.377   .     A
C948   I966    2.143   .     S
C948   C1081   1.428   .     S
C949   I967    2.143   .     S
C949   N952    1.377   .     A
C950   I968    2.143   .     S
C950   N951    1.377   .     A
C950   C1079   1.428   .     S
N953   O954    1.302   .     A
N953   O955    1.300   .     A
N956   O957    1.302   .     A
N956   O958    1.300   .     A
N959   O961    1.300   .     A
N959   O960    1.302   .     A
N962   O964    1.300   .     A
N962   O963    1.302   .     A
O969   C973    1.300   .     A
O969   Zn981   2.010   .     S
O970   C974    1.300   .     A
O970   Zn982   2.010   .     S
O971   Zn981   2.010   .     S
O971   C974    1.300   .     A
O972   Zn982   2.010   .     S
O972   C973    1.300   .     A
C973   C990    1.453   .     S
C974   C989    1.453   .     S
O975   C979    1.285   .     A
O975   Zn981   1.944   .     S
O976   C980    1.285   .     A
O976   Zn982   1.944   .     S
O977   C980    1.285   .     A
O977   Zn981   1.944   .     S
O978   C979    1.285   .     A
O978   Zn982   1.944   .     S
C979   C983    1.363   .     S
C980   C984    1.363   .     S
Zn981  N995    2.033   .     S
Zn982  N996    2.033   .     S
C984   C191    1.163   1_556 S
C985   C990    1.411   .     A
C985   N997    1.440   .     S
C986   C989    1.411   .     A
C986   N1000   1.439   .     S
C986   C1032   1.388   .     S
C987   N1003   1.439   .     S
C987   C989    1.411   .     A
C987   C1029   1.388   .     S
C988   N1006   1.439   .     S
C988   C990    1.411   .     A
C991   N996    1.377   .     A
C991   I1009   2.143   .     S
C992   N995    1.377   .     A
C992   I1010   2.143   .     S
C992   C1125   1.428   .     S
C993   I1011   2.143   .     S
C993   N996    1.377   .     A
C994   I1012   2.143   .     S
C994   N995    1.377   .     A
C994   C1123   1.428   .     S
N997   O998    1.302   .     A
N997   O999    1.300   .     A
N1000  O1001   1.302   .     A
N1000  O1002   1.300   .     A
N1003  O1005   1.300   .     A
N1003  O1004   1.302   .     A
N1006  O1008   1.300   .     A
N1006  O1007   1.302   .     A
O1013  C1017   1.300   .     A
O1013  Zn1025  2.010   .     S
O1014  C1018   1.300   .     A
O1014  Zn1026  2.010   .     S
O1015  Zn1025  2.010   .     S
O1015  C1018   1.300   .     A
O1016  Zn1026  2.010   .     S
O1016  C1017   1.300   .     A
C1017  C1034   1.453   .     S
C1018  C1033   1.453   .     S
O1019  C1023   1.285   .     A
O1019  Zn1025  1.944   .     S
O1020  C1024   1.285   .     A
O1020  Zn1026  1.944   .     S
O1021  C1024   1.285   .     A
O1021  Zn1025  1.944   .     S
O1022  C1023   1.285   .     A
O1022  Zn1026  1.944   .     S
C1023  C1027   1.363   .     S
C1024  C1028   1.363   .     S
Zn1025 N1039   2.033   .     S
Zn1026 N1040   2.033   .     S
C1028  C235    1.163   1_556 S
C1029  C1034   1.411   .     A
C1029  N1041   1.440   .     S
C1030  C1033   1.411   .     A
C1030  N1044   1.439   .     S
C1030  C944    1.388   1_655 S
C1031  N1047   1.439   .     S
C1031  C1033   1.411   .     A
C1031  C941    1.388   1_655 S
C1032  N1050   1.439   .     S
C1032  C1034   1.411   .     A
C1035  N1040   1.377   .     A
C1035  I1053   2.143   .     S
C1036  N1039   1.377   .     A
C1036  I1054   2.143   .     S
C1036  C1169   1.428   .     S
C1037  I1055   2.143   .     S
C1037  N1040   1.377   .     A
C1038  I1056   2.143   .     S
C1038  N1039   1.377   .     A
C1038  C1167   1.428   .     S
N1041  O1042   1.302   .     A
N1041  O1043   1.300   .     A
N1044  O1045   1.302   .     A
N1044  O1046   1.300   .     A
N1047  O1049   1.300   .     A
N1047  O1048   1.302   .     A
N1050  O1052   1.300   .     A
N1050  O1051   1.302   .     A
O1057  C1061   1.300   .     A
O1057  Zn1069  2.010   .     S
O1058  C1062   1.300   .     A
O1058  Zn1070  2.010   .     S
O1059  Zn1069  2.010   .     S
O1059  C1062   1.300   .     A
O1060  Zn1070  2.010   .     S
O1060  C1061   1.300   .     A
C1061  C1078   1.453   .     S
C1062  C1077   1.453   .     S
O1063  C1067   1.285   .     A
O1063  Zn1069  1.944   .     S
O1064  C1068   1.285   .     A
O1064  Zn1070  1.944   .     S
O1065  C1068   1.285   .     A
O1065  Zn1069  1.944   .     S
O1066  C1067   1.285   .     A
O1066  Zn1070  1.944   .     S
C1067  C1071   1.363   .     S
C1068  C1072   1.363   .     S
Zn1069 N1083   2.033   .     S
Zn1070 N1084   2.033   .     S
C1072  C279    1.163   1_556 S
C1073  C1078   1.411   .     A
C1073  N1085   1.440   .     S
C1073  C1163   1.388   1_455 S
C1074  C1077   1.411   .     A
C1074  N1088   1.439   .     S
C1074  C1120   1.388   .     S
C1075  N1091   1.439   .     S
C1075  C1077   1.411   .     A
C1075  C1117   1.388   .     S
C1076  N1094   1.439   .     S
C1076  C1078   1.411   .     A
C1076  C1162   1.388   1_455 S
C1079  N1084   1.377   .     A
C1079  I1097   2.143   .     S
C1080  N1083   1.377   .     A
C1080  I1098   2.143   .     S
C1080  C817    1.428   1_565 S
C1081  I1099   2.143   .     S
C1081  N1084   1.377   .     A
C1082  I1100   2.143   .     S
C1082  N1083   1.377   .     A
C1082  C815    1.428   1_565 S
N1085  O1086   1.302   .     A
N1085  O1087   1.300   .     A
N1088  O1089   1.302   .     A
N1088  O1090   1.300   .     A
N1091  O1093   1.300   .     A
N1091  O1092   1.302   .     A
N1094  O1096   1.300   .     A
N1094  O1095   1.302   .     A
O1101  C1105   1.300   .     A
O1101  Zn1113  2.010   .     S
O1102  C1106   1.300   .     A
O1102  Zn1114  2.010   .     S
O1103  Zn1113  2.010   .     S
O1103  C1106   1.300   .     A
O1104  Zn1114  2.010   .     S
O1104  C1105   1.300   .     A
C1105  C1122   1.453   .     S
C1106  C1121   1.453   .     S
O1107  C1111   1.285   .     A
O1107  Zn1113  1.944   .     S
O1108  C1112   1.285   .     A
O1108  Zn1114  1.944   .     S
O1109  C1112   1.285   .     A
O1109  Zn1113  1.944   .     S
O1110  C1111   1.285   .     A
O1110  Zn1114  1.944   .     S
C1111  C1115   1.363   .     S
C1112  C1116   1.363   .     S
Zn1113 N1127   2.033   .     S
Zn1114 N1128   2.033   .     S
C1116  C323    1.163   1_556 S
C1117  C1122   1.411   .     A
C1117  N1129   1.440   .     S
C1118  C1121   1.411   .     A
C1118  N1132   1.439   .     S
C1118  C1164   1.388   .     S
C1119  N1135   1.439   .     S
C1119  C1121   1.411   .     A
C1119  C1161   1.388   .     S
C1120  N1138   1.439   .     S
C1120  C1122   1.411   .     A
C1123  N1128   1.377   .     A
C1123  I1141   2.143   .     S
C1124  N1127   1.377   .     A
C1124  I1142   2.143   .     S
C1124  C861    1.428   1_565 S
C1125  I1143   2.143   .     S
C1125  N1128   1.377   .     A
C1126  I1144   2.143   .     S
C1126  N1127   1.377   .     A
C1126  C859    1.428   1_565 S
N1129  O1130   1.302   .     A
N1129  O1131   1.300   .     A
N1132  O1133   1.302   .     A
N1132  O1134   1.300   .     A
N1135  O1137   1.300   .     A
N1135  O1136   1.302   .     A
N1138  O1140   1.300   .     A
N1138  O1139   1.302   .     A
O1145  C1149   1.300   .     A
O1145  Zn1157  2.010   .     S
O1146  C1150   1.300   .     A
O1146  Zn1158  2.010   .     S
O1147  Zn1157  2.010   .     S
O1147  C1150   1.300   .     A
O1148  Zn1158  2.010   .     S
O1148  C1149   1.300   .     A
C1149  C1166   1.453   .     S
C1150  C1165   1.453   .     S
O1151  C1155   1.285   .     A
O1151  Zn1157  1.944   .     S
O1152  C1156   1.285   .     A
O1152  Zn1158  1.944   .     S
O1153  C1156   1.285   .     A
O1153  Zn1157  1.944   .     S
O1154  C1155   1.285   .     A
O1154  Zn1158  1.944   .     S
C1155  C1159   1.363   .     S
C1156  C1160   1.363   .     S
Zn1157 N1171   2.033   .     S
Zn1158 N1172   2.033   .     S
C1160  C367    1.163   1_556 S
C1161  C1166   1.411   .     A
C1161  N1173   1.440   .     S
C1162  C1165   1.411   .     A
C1162  N1176   1.439   .     S
C1162  C1076   1.388   1_655 S
C1163  N1179   1.439   .     S
C1163  C1165   1.411   .     A
C1163  C1073   1.388   1_655 S
C1164  N1182   1.439   .     S
C1164  C1166   1.411   .     A
C1167  N1172   1.377   .     A
C1167  I1185   2.143   .     S
C1168  N1171   1.377   .     A
C1168  I1186   2.143   .     S
C1168  C905    1.428   1_565 S
C1169  I1187   2.143   .     S
C1169  N1172   1.377   .     A
C1170  I1188   2.143   .     S
C1170  N1171   1.377   .     A
C1170  C903    1.428   1_565 S
N1173  O1174   1.302   .     A
N1173  O1175   1.300   .     A
N1176  O1177   1.302   .     A
N1176  O1178   1.300   .     A
N1179  O1181   1.300   .     A
N1179  O1180   1.302   .     A
N1182  O1184   1.300   .     A
N1182  O1183   1.302   .     A
