data_str_m3_o10_o18_pcu_sym.36
_audit_creation_date              2020-01-03
_audit_creation_method            'Materials Studio'
_symmetry_space_group_name_H-M    'P1'
_symmetry_Int_Tables_number       1
_symmetry_cell_setting            triclinic
loop_
_symmetry_equiv_pos_as_xyz
  x,y,z
_cell_length_a                    24.4648
_cell_length_b                    25.8334
_cell_length_c                    27.4634
_cell_angle_alpha                 103.8978
_cell_angle_beta                  92.9558
_cell_angle_gamma                 92.0725
loop_
_atom_site_label
_atom_site_type_symbol
_atom_site_fract_x
_atom_site_fract_y
_atom_site_fract_z
_atom_site_U_iso_or_equiv
_atom_site_adp_type
_atom_site_occupancy
C1     C     0.01409   0.26443   0.24933   0.00000  Uiso   1.00
C2     C     0.31268   0.16274   0.15878   0.00000  Uiso   1.00
C3     C     0.03196   0.17582   0.39520   0.00000  Uiso   1.00
C4     C     0.30137   0.15752   0.10480   0.00000  Uiso   1.00
C5     C     0.02017   0.22061   0.48150   0.00000  Uiso   1.00
C6     C     0.31318   0.11276   0.01850   0.00000  Uiso   1.00
C7     C     0.00068   0.20681   0.43122   0.00000  Uiso   1.00
C8     C     0.33266   0.12655   0.06877   0.00000  Uiso   1.00
C9     C     0.08084   0.15592   0.41021   0.00000  Uiso   1.00
C10    C     0.25250   0.17742   0.08979   0.00000  Uiso   1.00
C11    C     0.10324   0.17186   0.45990   0.00000  Uiso   1.00
C12    C     0.31924   0.06890   0.25067   0.00000  Uiso   1.00
C13    C     0.23010   0.16151   0.04010   0.00000  Uiso   1.00
C14    C     0.07155   0.20437   0.49587   0.00000  Uiso   1.00
C15    C     0.26179   0.12901   0.00413   0.00000  Uiso   1.00
C16    C     0.15656   0.15772   0.47443   0.00000  Uiso   1.00
C17    C     0.17678   0.17565   0.02557   0.00000  Uiso   1.00
C18    C     0.15229   0.10783   0.19102   0.00000  Uiso   1.00
C19    C     0.10454   0.08051   0.16300   0.00000  Uiso   1.00
C20    C     0.10439   0.04258   0.11697   0.00000  Uiso   1.00
C21    C     0.15293   0.02754   0.09595   0.00000  Uiso   1.00
C22    C     0.20107   0.04821   0.12280   0.00000  Uiso   1.00
C23    C     0.14263   0.20631   0.06054   0.00000  Uiso   1.00
C24    C     0.20019   0.08530   0.16931   0.00000  Uiso   1.00
C25    C     0.18104   0.22551   0.30898   0.00000  Uiso   1.00
C26    C     0.22879   0.25282   0.33700   0.00000  Uiso   1.00
C27    C     0.22895   0.29077   0.38302   0.00000  Uiso   1.00
C28    C     0.18040   0.30581   0.40405   0.00000  Uiso   1.00
C29    C     0.13226   0.28513   0.37720   0.00000  Uiso   1.00
C30    C     0.13314   0.24803   0.33069   0.00000  Uiso   1.00
C31    C     0.19073   0.12707   0.43946   0.00000  Uiso   1.00
C32    C     0.09138   0.22053   0.04576   0.00000  Uiso   1.00
C33    C     0.24197   0.11285   0.45423   0.00000  Uiso   1.00
C34    C     0.02159   0.31854   0.24860   0.00000  Uiso   1.00
C35    C     0.31174   0.01479   0.25140   0.00000  Uiso   1.00
C36    C     0.02065   0.17060   0.34122   0.00000  Uiso   1.00
H37    H     0.06708   0.24461   0.07377   0.00000  Uiso   1.00
H38    H     0.17951   0.11305   0.39998   0.00000  Uiso   1.00
H39    H     0.06296   0.00057   0.24556   0.00000  Uiso   1.00
H40    H     0.27037   0.33276   0.25444   0.00000  Uiso   1.00
H41    H     0.06504   0.08431   0.17461   0.00000  Uiso   1.00
H42    H     0.06605   0.02431   0.09793   0.00000  Uiso   1.00
H43    H     0.15327   0.33172   0.06032   0.00000  Uiso   1.00
H44    H     0.23972   0.03442   0.10822   0.00000  Uiso   1.00
H45    H     0.23892   0.09138   0.18473   0.00000  Uiso   1.00
H46    H     0.26829   0.24902   0.32538   0.00000  Uiso   1.00
H47    H     0.26728   0.30903   0.40207   0.00000  Uiso   1.00
H48    H     0.26628   0.08878   0.42622   0.00000  Uiso   1.00
H49    H     0.18006   0.00163   0.43968   0.00000  Uiso   1.00
H50    H     0.09361   0.29892   0.39178   0.00000  Uiso   1.00
H51    H     0.09441   0.24195   0.31527   0.00000  Uiso   1.00
H52    H     0.23174   0.20375   0.11859   0.00000  Uiso   1.00
H53    H     0.10158   0.12958   0.38142   0.00000  Uiso   1.00
H54    H     0.03759   0.11157   0.07958   0.00000  Uiso   1.00
H55    H     0.29575   0.22179   0.42041   0.00000  Uiso   1.00
H56    H     0.32907   0.24519   0.00901   0.00000  Uiso   1.00
H57    H     0.00428   0.08819   0.49098   0.00000  Uiso   1.00
H58    H     0.15385   0.22036   0.10001   0.00000  Uiso   1.00
N59    N     0.14695   0.15216   0.23740   0.00000  Uiso   1.00
N60    N     0.18638   0.18117   0.26261   0.00000  Uiso   1.00
O61    O     0.29719   0.24631   0.25310   0.00000  Uiso   1.00
O62    O     0.03614   0.08702   0.24691   0.00000  Uiso   1.00
O63    O     0.05822   0.23702   0.24502   0.00000  Uiso   1.00
O64    O     0.27512   0.09632   0.25498   0.00000  Uiso   1.00
O65    O     0.30328   0.17397   0.32247   0.00000  Uiso   1.00
O66    O     0.03005   0.15937   0.17753   0.00000  Uiso   1.00
O67    O     0.06431   0.16467   0.31439   0.00000  Uiso   1.00
O68    O     0.26902   0.16866   0.18561   0.00000  Uiso   1.00
Zn69   Zn    0.27033   0.17287   0.25539   0.00000  Uiso   1.00
Zn70   Zn    0.06300   0.16046   0.24461   0.00000  Uiso   1.00
C71    C     0.34743   0.26443   0.24933   0.00000  Uiso   1.00
C72    C     0.64602   0.16274   0.15878   0.00000  Uiso   1.00
C73    C     0.36529   0.17582   0.39520   0.00000  Uiso   1.00
C74    C     0.63471   0.15752   0.10480   0.00000  Uiso   1.00
C75    C     0.35350   0.22061   0.48150   0.00000  Uiso   1.00
C76    C     0.64651   0.11276   0.01850   0.00000  Uiso   1.00
C77    C     0.33401   0.20681   0.43122   0.00000  Uiso   1.00
C78    C     0.66600   0.12655   0.06877   0.00000  Uiso   1.00
C79    C     0.41417   0.15592   0.41021   0.00000  Uiso   1.00
C80    C     0.58583   0.17742   0.08979   0.00000  Uiso   1.00
C81    C     0.43657   0.17186   0.45990   0.00000  Uiso   1.00
C82    C     0.65257   0.06890   0.25067   0.00000  Uiso   1.00
C83    C     0.56344   0.16151   0.04010   0.00000  Uiso   1.00
C84    C     0.40489   0.20437   0.49587   0.00000  Uiso   1.00
C85    C     0.59513   0.12901   0.00413   0.00000  Uiso   1.00
C86    C     0.48990   0.15772   0.47443   0.00000  Uiso   1.00
C87    C     0.51012   0.17565   0.02557   0.00000  Uiso   1.00
C88    C     0.48562   0.10783   0.19102   0.00000  Uiso   1.00
C89    C     0.43787   0.08051   0.16300   0.00000  Uiso   1.00
C90    C     0.43772   0.04258   0.11697   0.00000  Uiso   1.00
C91    C     0.48626   0.02754   0.09595   0.00000  Uiso   1.00
C92    C     0.53441   0.04821   0.12280   0.00000  Uiso   1.00
C93    C     0.47596   0.20631   0.06054   0.00000  Uiso   1.00
C94    C     0.53353   0.08530   0.16931   0.00000  Uiso   1.00
C95    C     0.51438   0.22551   0.30898   0.00000  Uiso   1.00
C96    C     0.56213   0.25282   0.33700   0.00000  Uiso   1.00
C97    C     0.56228   0.29077   0.38302   0.00000  Uiso   1.00
C98    C     0.51374   0.30581   0.40405   0.00000  Uiso   1.00
C99    C     0.46559   0.28513   0.37720   0.00000  Uiso   1.00
C100   C     0.46647   0.24803   0.33069   0.00000  Uiso   1.00
C101   C     0.52406   0.12707   0.43946   0.00000  Uiso   1.00
C102   C     0.42471   0.22053   0.04576   0.00000  Uiso   1.00
C103   C     0.57530   0.11285   0.45423   0.00000  Uiso   1.00
C104   C     0.35493   0.31854   0.24860   0.00000  Uiso   1.00
C105   C     0.64507   0.01479   0.25140   0.00000  Uiso   1.00
C106   C     0.35398   0.17060   0.34122   0.00000  Uiso   1.00
H107   H     0.40041   0.24461   0.07377   0.00000  Uiso   1.00
H108   H     0.51284   0.11305   0.39998   0.00000  Uiso   1.00
H109   H     0.39629   0.00057   0.24556   0.00000  Uiso   1.00
H110   H     0.60371   0.33276   0.25444   0.00000  Uiso   1.00
H111   H     0.39838   0.08431   0.17461   0.00000  Uiso   1.00
H112   H     0.39939   0.02431   0.09793   0.00000  Uiso   1.00
H113   H     0.48661   0.33172   0.06032   0.00000  Uiso   1.00
H114   H     0.57305   0.03442   0.10822   0.00000  Uiso   1.00
H115   H     0.57225   0.09138   0.18473   0.00000  Uiso   1.00
H116   H     0.60162   0.24902   0.32538   0.00000  Uiso   1.00
H117   H     0.60062   0.30903   0.40207   0.00000  Uiso   1.00
H118   H     0.59961   0.08878   0.42622   0.00000  Uiso   1.00
H119   H     0.51339   0.00163   0.43968   0.00000  Uiso   1.00
H120   H     0.42695   0.29892   0.39178   0.00000  Uiso   1.00
H121   H     0.42775   0.24195   0.31527   0.00000  Uiso   1.00
H122   H     0.56508   0.20375   0.11859   0.00000  Uiso   1.00
H123   H     0.43491   0.12958   0.38142   0.00000  Uiso   1.00
H124   H     0.37092   0.11157   0.07958   0.00000  Uiso   1.00
H125   H     0.62908   0.22179   0.42041   0.00000  Uiso   1.00
H126   H     0.66240   0.24519   0.00901   0.00000  Uiso   1.00
H127   H     0.33762   0.08819   0.49098   0.00000  Uiso   1.00
H128   H     0.48719   0.22036   0.10001   0.00000  Uiso   1.00
N129   N     0.48029   0.15216   0.23740   0.00000  Uiso   1.00
N130   N     0.51971   0.18117   0.26261   0.00000  Uiso   1.00
O131   O     0.63052   0.24631   0.25310   0.00000  Uiso   1.00
O132   O     0.36948   0.08702   0.24691   0.00000  Uiso   1.00
O133   O     0.39155   0.23702   0.24502   0.00000  Uiso   1.00
O134   O     0.60845   0.09632   0.25498   0.00000  Uiso   1.00
O135   O     0.63662   0.17397   0.32247   0.00000  Uiso   1.00
O136   O     0.36338   0.15937   0.17753   0.00000  Uiso   1.00
O137   O     0.39764   0.16467   0.31439   0.00000  Uiso   1.00
O138   O     0.60236   0.16866   0.18561   0.00000  Uiso   1.00
Zn139  Zn    0.60366   0.17287   0.25539   0.00000  Uiso   1.00
Zn140  Zn    0.39634   0.16046   0.24461   0.00000  Uiso   1.00
C141   C     0.68076   0.26443   0.24933   0.00000  Uiso   1.00
C142   C     0.97935   0.16274   0.15878   0.00000  Uiso   1.00
C143   C     0.69863   0.17582   0.39520   0.00000  Uiso   1.00
C144   C     0.96804   0.15752   0.10480   0.00000  Uiso   1.00
C145   C     0.68684   0.22061   0.48150   0.00000  Uiso   1.00
C146   C     0.97984   0.11276   0.01850   0.00000  Uiso   1.00
C147   C     0.66734   0.20681   0.43122   0.00000  Uiso   1.00
C148   C     0.99933   0.12655   0.06877   0.00000  Uiso   1.00
C149   C     0.74750   0.15592   0.41021   0.00000  Uiso   1.00
C150   C     0.91916   0.17742   0.08979   0.00000  Uiso   1.00
C151   C     0.76991   0.17186   0.45990   0.00000  Uiso   1.00
C152   C     0.98591   0.06890   0.25067   0.00000  Uiso   1.00
C153   C     0.89677   0.16151   0.04010   0.00000  Uiso   1.00
C154   C     0.73822   0.20437   0.49587   0.00000  Uiso   1.00
C155   C     0.92846   0.12901   0.00413   0.00000  Uiso   1.00
C156   C     0.82323   0.15772   0.47443   0.00000  Uiso   1.00
C157   C     0.84345   0.17565   0.02557   0.00000  Uiso   1.00
C158   C     0.81896   0.10783   0.19102   0.00000  Uiso   1.00
C159   C     0.77121   0.08051   0.16300   0.00000  Uiso   1.00
C160   C     0.77105   0.04258   0.11697   0.00000  Uiso   1.00
C161   C     0.81960   0.02754   0.09595   0.00000  Uiso   1.00
C162   C     0.86774   0.04821   0.12280   0.00000  Uiso   1.00
C163   C     0.80929   0.20631   0.06054   0.00000  Uiso   1.00
C164   C     0.86686   0.08530   0.16931   0.00000  Uiso   1.00
C165   C     0.84771   0.22551   0.30898   0.00000  Uiso   1.00
C166   C     0.89546   0.25282   0.33700   0.00000  Uiso   1.00
C167   C     0.89561   0.29077   0.38302   0.00000  Uiso   1.00
C168   C     0.84707   0.30581   0.40405   0.00000  Uiso   1.00
C169   C     0.79893   0.28513   0.37720   0.00000  Uiso   1.00
C170   C     0.79981   0.24803   0.33069   0.00000  Uiso   1.00
C171   C     0.85739   0.12707   0.43946   0.00000  Uiso   1.00
C172   C     0.75805   0.22053   0.04576   0.00000  Uiso   1.00
C173   C     0.90864   0.11285   0.45423   0.00000  Uiso   1.00
C174   C     0.68826   0.31854   0.24860   0.00000  Uiso   1.00
C175   C     0.97841   0.01479   0.25140   0.00000  Uiso   1.00
C176   C     0.68732   0.17060   0.34122   0.00000  Uiso   1.00
H177   H     0.73374   0.24461   0.07377   0.00000  Uiso   1.00
H178   H     0.84617   0.11305   0.39998   0.00000  Uiso   1.00
H179   H     0.72963   0.00057   0.24556   0.00000  Uiso   1.00
H180   H     0.93704   0.33276   0.25444   0.00000  Uiso   1.00
H181   H     0.73171   0.08431   0.17461   0.00000  Uiso   1.00
H182   H     0.73272   0.02431   0.09793   0.00000  Uiso   1.00
H183   H     0.81994   0.33172   0.06032   0.00000  Uiso   1.00
H184   H     0.90639   0.03442   0.10822   0.00000  Uiso   1.00
H185   H     0.90558   0.09138   0.18473   0.00000  Uiso   1.00
H186   H     0.93496   0.24902   0.32538   0.00000  Uiso   1.00
H187   H     0.93395   0.30903   0.40207   0.00000  Uiso   1.00
H188   H     0.93295   0.08878   0.42622   0.00000  Uiso   1.00
H189   H     0.84673   0.00163   0.43968   0.00000  Uiso   1.00
H190   H     0.76028   0.29892   0.39178   0.00000  Uiso   1.00
H191   H     0.76108   0.24195   0.31527   0.00000  Uiso   1.00
H192   H     0.89841   0.20375   0.11859   0.00000  Uiso   1.00
H193   H     0.76825   0.12958   0.38142   0.00000  Uiso   1.00
H194   H     0.70426   0.11157   0.07958   0.00000  Uiso   1.00
H195   H     0.96242   0.22179   0.42041   0.00000  Uiso   1.00
H196   H     0.99574   0.24519   0.00901   0.00000  Uiso   1.00
H197   H     0.67095   0.08819   0.49098   0.00000  Uiso   1.00
H198   H     0.82052   0.22036   0.10001   0.00000  Uiso   1.00
N199   N     0.81362   0.15216   0.23740   0.00000  Uiso   1.00
N200   N     0.85305   0.18117   0.26261   0.00000  Uiso   1.00
O201   O     0.96386   0.24631   0.25310   0.00000  Uiso   1.00
O202   O     0.70281   0.08702   0.24691   0.00000  Uiso   1.00
O203   O     0.72488   0.23702   0.24502   0.00000  Uiso   1.00
O204   O     0.94178   0.09632   0.25498   0.00000  Uiso   1.00
O205   O     0.96995   0.17397   0.32247   0.00000  Uiso   1.00
O206   O     0.69672   0.15937   0.17753   0.00000  Uiso   1.00
O207   O     0.73098   0.16467   0.31439   0.00000  Uiso   1.00
O208   O     0.93569   0.16866   0.18561   0.00000  Uiso   1.00
Zn209  Zn    0.93700   0.17287   0.25539   0.00000  Uiso   1.00
Zn210  Zn    0.72967   0.16046   0.24461   0.00000  Uiso   1.00
C211   C     0.01409   0.59777   0.24933   0.00000  Uiso   1.00
C212   C     0.31268   0.49607   0.15878   0.00000  Uiso   1.00
C213   C     0.03196   0.50916   0.39520   0.00000  Uiso   1.00
C214   C     0.30137   0.49085   0.10480   0.00000  Uiso   1.00
C215   C     0.02017   0.55395   0.48150   0.00000  Uiso   1.00
C216   C     0.31318   0.44609   0.01850   0.00000  Uiso   1.00
C217   C     0.00068   0.54014   0.43122   0.00000  Uiso   1.00
C218   C     0.33266   0.45988   0.06877   0.00000  Uiso   1.00
C219   C     0.08084   0.48926   0.41021   0.00000  Uiso   1.00
C220   C     0.25250   0.51076   0.08979   0.00000  Uiso   1.00
C221   C     0.10324   0.50519   0.45990   0.00000  Uiso   1.00
C222   C     0.31924   0.40223   0.25067   0.00000  Uiso   1.00
C223   C     0.23010   0.49484   0.04010   0.00000  Uiso   1.00
C224   C     0.07155   0.53770   0.49587   0.00000  Uiso   1.00
C225   C     0.26179   0.46234   0.00413   0.00000  Uiso   1.00
C226   C     0.15656   0.49106   0.47443   0.00000  Uiso   1.00
C227   C     0.17678   0.50898   0.02557   0.00000  Uiso   1.00
C228   C     0.15229   0.44116   0.19102   0.00000  Uiso   1.00
C229   C     0.10454   0.41385   0.16300   0.00000  Uiso   1.00
C230   C     0.10439   0.37591   0.11697   0.00000  Uiso   1.00
C231   C     0.15293   0.36087   0.09595   0.00000  Uiso   1.00
C232   C     0.20107   0.38154   0.12280   0.00000  Uiso   1.00
C233   C     0.14263   0.53965   0.06054   0.00000  Uiso   1.00
C234   C     0.20019   0.41864   0.16931   0.00000  Uiso   1.00
C235   C     0.18104   0.55884   0.30898   0.00000  Uiso   1.00
C236   C     0.22879   0.58616   0.33700   0.00000  Uiso   1.00
C237   C     0.22895   0.62410   0.38302   0.00000  Uiso   1.00
C238   C     0.18040   0.63915   0.40405   0.00000  Uiso   1.00
C239   C     0.13226   0.61847   0.37720   0.00000  Uiso   1.00
C240   C     0.13314   0.58136   0.33069   0.00000  Uiso   1.00
C241   C     0.19073   0.46040   0.43946   0.00000  Uiso   1.00
C242   C     0.09138   0.55387   0.04576   0.00000  Uiso   1.00
C243   C     0.24197   0.44618   0.45423   0.00000  Uiso   1.00
C244   C     0.02159   0.65188   0.24860   0.00000  Uiso   1.00
C245   C     0.31174   0.34812   0.25140   0.00000  Uiso   1.00
C246   C     0.02065   0.50393   0.34122   0.00000  Uiso   1.00
H247   H     0.06708   0.57795   0.07377   0.00000  Uiso   1.00
H248   H     0.17951   0.44638   0.39998   0.00000  Uiso   1.00
H249   H     0.06296   0.33391   0.24556   0.00000  Uiso   1.00
H250   H     0.27037   0.66609   0.25444   0.00000  Uiso   1.00
H251   H     0.06504   0.41764   0.17461   0.00000  Uiso   1.00
H252   H     0.06605   0.35765   0.09793   0.00000  Uiso   1.00
H253   H     0.15327   0.66506   0.06032   0.00000  Uiso   1.00
H254   H     0.23972   0.36776   0.10822   0.00000  Uiso   1.00
H255   H     0.23892   0.42472   0.18473   0.00000  Uiso   1.00
H256   H     0.26829   0.58236   0.32538   0.00000  Uiso   1.00
H257   H     0.26728   0.64237   0.40207   0.00000  Uiso   1.00
H258   H     0.26628   0.42211   0.42622   0.00000  Uiso   1.00
H259   H     0.18006   0.33497   0.43968   0.00000  Uiso   1.00
H260   H     0.09361   0.63225   0.39178   0.00000  Uiso   1.00
H261   H     0.09441   0.57528   0.31527   0.00000  Uiso   1.00
H262   H     0.23174   0.53708   0.11859   0.00000  Uiso   1.00
H263   H     0.10158   0.46291   0.38142   0.00000  Uiso   1.00
H264   H     0.03759   0.44490   0.07958   0.00000  Uiso   1.00
H265   H     0.29575   0.55513   0.42041   0.00000  Uiso   1.00
H266   H     0.32907   0.57853   0.00901   0.00000  Uiso   1.00
H267   H     0.00428   0.42152   0.49098   0.00000  Uiso   1.00
H268   H     0.15385   0.55369   0.10001   0.00000  Uiso   1.00
N269   N     0.14695   0.48550   0.23740   0.00000  Uiso   1.00
N270   N     0.18638   0.51450   0.26261   0.00000  Uiso   1.00
O271   O     0.29719   0.57964   0.25310   0.00000  Uiso   1.00
O272   O     0.03614   0.42036   0.24691   0.00000  Uiso   1.00
O273   O     0.05822   0.57035   0.24502   0.00000  Uiso   1.00
O274   O     0.27512   0.42965   0.25498   0.00000  Uiso   1.00
O275   O     0.30328   0.50730   0.32247   0.00000  Uiso   1.00
O276   O     0.03005   0.49270   0.17753   0.00000  Uiso   1.00
O277   O     0.06431   0.49801   0.31439   0.00000  Uiso   1.00
O278   O     0.26902   0.50199   0.18561   0.00000  Uiso   1.00
Zn279  Zn    0.27033   0.50621   0.25539   0.00000  Uiso   1.00
Zn280  Zn    0.06300   0.49379   0.24461   0.00000  Uiso   1.00
C281   C     0.34743   0.59777   0.24933   0.00000  Uiso   1.00
C282   C     0.64602   0.49607   0.15878   0.00000  Uiso   1.00
C283   C     0.36529   0.50916   0.39520   0.00000  Uiso   1.00
C284   C     0.63471   0.49085   0.10480   0.00000  Uiso   1.00
C285   C     0.35350   0.55395   0.48150   0.00000  Uiso   1.00
C286   C     0.64651   0.44609   0.01850   0.00000  Uiso   1.00
C287   C     0.33401   0.54014   0.43122   0.00000  Uiso   1.00
C288   C     0.66600   0.45988   0.06877   0.00000  Uiso   1.00
C289   C     0.41417   0.48926   0.41021   0.00000  Uiso   1.00
C290   C     0.58583   0.51076   0.08979   0.00000  Uiso   1.00
C291   C     0.43657   0.50519   0.45990   0.00000  Uiso   1.00
C292   C     0.65257   0.40223   0.25067   0.00000  Uiso   1.00
C293   C     0.56344   0.49484   0.04010   0.00000  Uiso   1.00
C294   C     0.40489   0.53770   0.49587   0.00000  Uiso   1.00
C295   C     0.59513   0.46234   0.00413   0.00000  Uiso   1.00
C296   C     0.48990   0.49106   0.47443   0.00000  Uiso   1.00
C297   C     0.51012   0.50898   0.02557   0.00000  Uiso   1.00
C298   C     0.48562   0.44116   0.19102   0.00000  Uiso   1.00
C299   C     0.43787   0.41385   0.16300   0.00000  Uiso   1.00
C300   C     0.43772   0.37591   0.11697   0.00000  Uiso   1.00
C301   C     0.48626   0.36087   0.09595   0.00000  Uiso   1.00
C302   C     0.53441   0.38154   0.12280   0.00000  Uiso   1.00
C303   C     0.47596   0.53965   0.06054   0.00000  Uiso   1.00
C304   C     0.53353   0.41864   0.16931   0.00000  Uiso   1.00
C305   C     0.51438   0.55884   0.30898   0.00000  Uiso   1.00
C306   C     0.56213   0.58616   0.33700   0.00000  Uiso   1.00
C307   C     0.56228   0.62410   0.38302   0.00000  Uiso   1.00
C308   C     0.51374   0.63915   0.40405   0.00000  Uiso   1.00
C309   C     0.46559   0.61847   0.37720   0.00000  Uiso   1.00
C310   C     0.46647   0.58136   0.33069   0.00000  Uiso   1.00
C311   C     0.52406   0.46040   0.43946   0.00000  Uiso   1.00
C312   C     0.42471   0.55387   0.04576   0.00000  Uiso   1.00
C313   C     0.57530   0.44618   0.45423   0.00000  Uiso   1.00
C314   C     0.35493   0.65188   0.24860   0.00000  Uiso   1.00
C315   C     0.64507   0.34812   0.25140   0.00000  Uiso   1.00
C316   C     0.35398   0.50393   0.34122   0.00000  Uiso   1.00
H317   H     0.40041   0.57795   0.07377   0.00000  Uiso   1.00
H318   H     0.51284   0.44638   0.39998   0.00000  Uiso   1.00
H319   H     0.39629   0.33391   0.24556   0.00000  Uiso   1.00
H320   H     0.60371   0.66609   0.25444   0.00000  Uiso   1.00
H321   H     0.39838   0.41764   0.17461   0.00000  Uiso   1.00
H322   H     0.39939   0.35765   0.09793   0.00000  Uiso   1.00
H323   H     0.48661   0.66506   0.06032   0.00000  Uiso   1.00
H324   H     0.57305   0.36776   0.10822   0.00000  Uiso   1.00
H325   H     0.57225   0.42472   0.18473   0.00000  Uiso   1.00
H326   H     0.60162   0.58236   0.32538   0.00000  Uiso   1.00
H327   H     0.60062   0.64237   0.40207   0.00000  Uiso   1.00
H328   H     0.59961   0.42211   0.42622   0.00000  Uiso   1.00
H329   H     0.51339   0.33497   0.43968   0.00000  Uiso   1.00
H330   H     0.42695   0.63225   0.39178   0.00000  Uiso   1.00
H331   H     0.42775   0.57528   0.31527   0.00000  Uiso   1.00
H332   H     0.56508   0.53708   0.11859   0.00000  Uiso   1.00
H333   H     0.43491   0.46291   0.38142   0.00000  Uiso   1.00
H334   H     0.37092   0.44490   0.07958   0.00000  Uiso   1.00
H335   H     0.62908   0.55513   0.42041   0.00000  Uiso   1.00
H336   H     0.66240   0.57853   0.00901   0.00000  Uiso   1.00
H337   H     0.33762   0.42152   0.49098   0.00000  Uiso   1.00
H338   H     0.48719   0.55369   0.10001   0.00000  Uiso   1.00
N339   N     0.48029   0.48550   0.23740   0.00000  Uiso   1.00
N340   N     0.51971   0.51450   0.26261   0.00000  Uiso   1.00
O341   O     0.63052   0.57964   0.25310   0.00000  Uiso   1.00
O342   O     0.36948   0.42036   0.24691   0.00000  Uiso   1.00
O343   O     0.39155   0.57035   0.24502   0.00000  Uiso   1.00
O344   O     0.60845   0.42965   0.25498   0.00000  Uiso   1.00
O345   O     0.63662   0.50730   0.32247   0.00000  Uiso   1.00
O346   O     0.36338   0.49270   0.17753   0.00000  Uiso   1.00
O347   O     0.39764   0.49801   0.31439   0.00000  Uiso   1.00
O348   O     0.60236   0.50199   0.18561   0.00000  Uiso   1.00
Zn349  Zn    0.60366   0.50621   0.25539   0.00000  Uiso   1.00
Zn350  Zn    0.39634   0.49379   0.24461   0.00000  Uiso   1.00
C351   C     0.68076   0.59777   0.24933   0.00000  Uiso   1.00
C352   C     0.97935   0.49607   0.15878   0.00000  Uiso   1.00
C353   C     0.69863   0.50916   0.39520   0.00000  Uiso   1.00
C354   C     0.96804   0.49085   0.10480   0.00000  Uiso   1.00
C355   C     0.68684   0.55395   0.48150   0.00000  Uiso   1.00
C356   C     0.97984   0.44609   0.01850   0.00000  Uiso   1.00
C357   C     0.66734   0.54014   0.43122   0.00000  Uiso   1.00
C358   C     0.99933   0.45988   0.06877   0.00000  Uiso   1.00
C359   C     0.74750   0.48926   0.41021   0.00000  Uiso   1.00
C360   C     0.91916   0.51076   0.08979   0.00000  Uiso   1.00
C361   C     0.76991   0.50519   0.45990   0.00000  Uiso   1.00
C362   C     0.98591   0.40223   0.25067   0.00000  Uiso   1.00
C363   C     0.89677   0.49484   0.04010   0.00000  Uiso   1.00
C364   C     0.73822   0.53770   0.49587   0.00000  Uiso   1.00
C365   C     0.92846   0.46234   0.00413   0.00000  Uiso   1.00
C366   C     0.82323   0.49106   0.47443   0.00000  Uiso   1.00
C367   C     0.84345   0.50898   0.02557   0.00000  Uiso   1.00
C368   C     0.81896   0.44116   0.19102   0.00000  Uiso   1.00
C369   C     0.77121   0.41385   0.16300   0.00000  Uiso   1.00
C370   C     0.77105   0.37591   0.11697   0.00000  Uiso   1.00
C371   C     0.81960   0.36087   0.09595   0.00000  Uiso   1.00
C372   C     0.86774   0.38154   0.12280   0.00000  Uiso   1.00
C373   C     0.80929   0.53965   0.06054   0.00000  Uiso   1.00
C374   C     0.86686   0.41864   0.16931   0.00000  Uiso   1.00
C375   C     0.84771   0.55884   0.30898   0.00000  Uiso   1.00
C376   C     0.89546   0.58616   0.33700   0.00000  Uiso   1.00
C377   C     0.89561   0.62410   0.38302   0.00000  Uiso   1.00
C378   C     0.84707   0.63915   0.40405   0.00000  Uiso   1.00
C379   C     0.79893   0.61847   0.37720   0.00000  Uiso   1.00
C380   C     0.79981   0.58136   0.33069   0.00000  Uiso   1.00
C381   C     0.85739   0.46040   0.43946   0.00000  Uiso   1.00
C382   C     0.75805   0.55387   0.04576   0.00000  Uiso   1.00
C383   C     0.90864   0.44618   0.45423   0.00000  Uiso   1.00
C384   C     0.68826   0.65188   0.24860   0.00000  Uiso   1.00
C385   C     0.97841   0.34812   0.25140   0.00000  Uiso   1.00
C386   C     0.68732   0.50393   0.34122   0.00000  Uiso   1.00
H387   H     0.73374   0.57795   0.07377   0.00000  Uiso   1.00
H388   H     0.84617   0.44638   0.39998   0.00000  Uiso   1.00
H389   H     0.72963   0.33391   0.24556   0.00000  Uiso   1.00
H390   H     0.93704   0.66609   0.25444   0.00000  Uiso   1.00
H391   H     0.73171   0.41764   0.17461   0.00000  Uiso   1.00
H392   H     0.73272   0.35765   0.09793   0.00000  Uiso   1.00
H393   H     0.81994   0.66506   0.06032   0.00000  Uiso   1.00
H394   H     0.90639   0.36776   0.10822   0.00000  Uiso   1.00
H395   H     0.90558   0.42472   0.18473   0.00000  Uiso   1.00
H396   H     0.93496   0.58236   0.32538   0.00000  Uiso   1.00
H397   H     0.93395   0.64237   0.40207   0.00000  Uiso   1.00
H398   H     0.93295   0.42211   0.42622   0.00000  Uiso   1.00
H399   H     0.84673   0.33497   0.43968   0.00000  Uiso   1.00
H400   H     0.76028   0.63225   0.39178   0.00000  Uiso   1.00
H401   H     0.76108   0.57528   0.31527   0.00000  Uiso   1.00
H402   H     0.89841   0.53708   0.11859   0.00000  Uiso   1.00
H403   H     0.76825   0.46291   0.38142   0.00000  Uiso   1.00
H404   H     0.70426   0.44490   0.07958   0.00000  Uiso   1.00
H405   H     0.96242   0.55513   0.42041   0.00000  Uiso   1.00
H406   H     0.99574   0.57853   0.00901   0.00000  Uiso   1.00
H407   H     0.67095   0.42152   0.49098   0.00000  Uiso   1.00
H408   H     0.82052   0.55369   0.10001   0.00000  Uiso   1.00
N409   N     0.81362   0.48550   0.23740   0.00000  Uiso   1.00
N410   N     0.85305   0.51450   0.26261   0.00000  Uiso   1.00
O411   O     0.96386   0.57964   0.25310   0.00000  Uiso   1.00
O412   O     0.70281   0.42036   0.24691   0.00000  Uiso   1.00
O413   O     0.72488   0.57035   0.24502   0.00000  Uiso   1.00
O414   O     0.94178   0.42965   0.25498   0.00000  Uiso   1.00
O415   O     0.96995   0.50730   0.32247   0.00000  Uiso   1.00
O416   O     0.69672   0.49270   0.17753   0.00000  Uiso   1.00
O417   O     0.73098   0.49801   0.31439   0.00000  Uiso   1.00
O418   O     0.93569   0.50199   0.18561   0.00000  Uiso   1.00
Zn419  Zn    0.93700   0.50621   0.25539   0.00000  Uiso   1.00
Zn420  Zn    0.72967   0.49379   0.24461   0.00000  Uiso   1.00
C421   C     0.01409   0.93110   0.24933   0.00000  Uiso   1.00
C422   C     0.31268   0.82941   0.15878   0.00000  Uiso   1.00
C423   C     0.03196   0.84249   0.39520   0.00000  Uiso   1.00
C424   C     0.30137   0.82419   0.10480   0.00000  Uiso   1.00
C425   C     0.02017   0.88728   0.48150   0.00000  Uiso   1.00
C426   C     0.31318   0.77942   0.01850   0.00000  Uiso   1.00
C427   C     0.00068   0.87348   0.43122   0.00000  Uiso   1.00
C428   C     0.33266   0.79322   0.06877   0.00000  Uiso   1.00
C429   C     0.08084   0.82259   0.41021   0.00000  Uiso   1.00
C430   C     0.25250   0.84409   0.08979   0.00000  Uiso   1.00
C431   C     0.10324   0.83852   0.45990   0.00000  Uiso   1.00
C432   C     0.31924   0.73557   0.25067   0.00000  Uiso   1.00
C433   C     0.23010   0.82817   0.04010   0.00000  Uiso   1.00
C434   C     0.07155   0.87103   0.49587   0.00000  Uiso   1.00
C435   C     0.26179   0.79567   0.00413   0.00000  Uiso   1.00
C436   C     0.15656   0.82439   0.47443   0.00000  Uiso   1.00
C437   C     0.17678   0.84232   0.02557   0.00000  Uiso   1.00
C438   C     0.15229   0.77449   0.19102   0.00000  Uiso   1.00
C439   C     0.10454   0.74718   0.16300   0.00000  Uiso   1.00
C440   C     0.10439   0.70924   0.11697   0.00000  Uiso   1.00
C441   C     0.15293   0.69420   0.09595   0.00000  Uiso   1.00
C442   C     0.20107   0.71487   0.12280   0.00000  Uiso   1.00
C443   C     0.14263   0.87298   0.06054   0.00000  Uiso   1.00
C444   C     0.20019   0.75197   0.16931   0.00000  Uiso   1.00
C445   C     0.18104   0.89217   0.30898   0.00000  Uiso   1.00
C446   C     0.22879   0.91949   0.33700   0.00000  Uiso   1.00
C447   C     0.22895   0.95743   0.38302   0.00000  Uiso   1.00
C448   C     0.18040   0.97248   0.40405   0.00000  Uiso   1.00
C449   C     0.13226   0.95180   0.37720   0.00000  Uiso   1.00
C450   C     0.13314   0.91470   0.33069   0.00000  Uiso   1.00
C451   C     0.19073   0.79374   0.43946   0.00000  Uiso   1.00
C452   C     0.09138   0.88720   0.04576   0.00000  Uiso   1.00
C453   C     0.24197   0.77952   0.45423   0.00000  Uiso   1.00
C454   C     0.02159   0.98521   0.24860   0.00000  Uiso   1.00
C455   C     0.31174   0.68146   0.25140   0.00000  Uiso   1.00
C456   C     0.02065   0.83726   0.34122   0.00000  Uiso   1.00
H457   H     0.06708   0.91128   0.07377   0.00000  Uiso   1.00
H458   H     0.17951   0.77971   0.39998   0.00000  Uiso   1.00
H459   H     0.06296   0.66724   0.24556   0.00000  Uiso   1.00
H460   H     0.27037   0.99942   0.25444   0.00000  Uiso   1.00
H461   H     0.06504   0.75098   0.17461   0.00000  Uiso   1.00
H462   H     0.06605   0.69098   0.09793   0.00000  Uiso   1.00
H463   H     0.15327   0.99839   0.06032   0.00000  Uiso   1.00
H464   H     0.23972   0.70109   0.10822   0.00000  Uiso   1.00
H465   H     0.23892   0.75805   0.18473   0.00000  Uiso   1.00
H466   H     0.26829   0.91569   0.32538   0.00000  Uiso   1.00
H467   H     0.26728   0.97570   0.40207   0.00000  Uiso   1.00
H468   H     0.26628   0.75545   0.42622   0.00000  Uiso   1.00
H469   H     0.18006   0.66830   0.43968   0.00000  Uiso   1.00
H470   H     0.09361   0.96558   0.39178   0.00000  Uiso   1.00
H471   H     0.09441   0.90862   0.31527   0.00000  Uiso   1.00
H472   H     0.23174   0.87042   0.11859   0.00000  Uiso   1.00
H473   H     0.10158   0.79624   0.38142   0.00000  Uiso   1.00
H474   H     0.03759   0.77823   0.07958   0.00000  Uiso   1.00
H475   H     0.29575   0.88846   0.42041   0.00000  Uiso   1.00
H476   H     0.32907   0.91186   0.00901   0.00000  Uiso   1.00
H477   H     0.00428   0.75485   0.49098   0.00000  Uiso   1.00
H478   H     0.15385   0.88702   0.10001   0.00000  Uiso   1.00
N479   N     0.14695   0.81883   0.23740   0.00000  Uiso   1.00
N480   N     0.18638   0.84784   0.26261   0.00000  Uiso   1.00
O481   O     0.29719   0.91298   0.25310   0.00000  Uiso   1.00
O482   O     0.03614   0.75369   0.24691   0.00000  Uiso   1.00
O483   O     0.05822   0.90368   0.24502   0.00000  Uiso   1.00
O484   O     0.27512   0.76298   0.25498   0.00000  Uiso   1.00
O485   O     0.30328   0.84063   0.32247   0.00000  Uiso   1.00
O486   O     0.03005   0.82603   0.17753   0.00000  Uiso   1.00
O487   O     0.06431   0.83134   0.31439   0.00000  Uiso   1.00
O488   O     0.26902   0.83533   0.18561   0.00000  Uiso   1.00
Zn489  Zn    0.27033   0.83954   0.25539   0.00000  Uiso   1.00
Zn490  Zn    0.06300   0.82713   0.24461   0.00000  Uiso   1.00
C491   C     0.34743   0.93110   0.24933   0.00000  Uiso   1.00
C492   C     0.64602   0.82941   0.15878   0.00000  Uiso   1.00
C493   C     0.36529   0.84249   0.39520   0.00000  Uiso   1.00
C494   C     0.63471   0.82419   0.10480   0.00000  Uiso   1.00
C495   C     0.35350   0.88728   0.48150   0.00000  Uiso   1.00
C496   C     0.64651   0.77942   0.01850   0.00000  Uiso   1.00
C497   C     0.33401   0.87348   0.43122   0.00000  Uiso   1.00
C498   C     0.66600   0.79322   0.06877   0.00000  Uiso   1.00
C499   C     0.41417   0.82259   0.41021   0.00000  Uiso   1.00
C500   C     0.58583   0.84409   0.08979   0.00000  Uiso   1.00
C501   C     0.43657   0.83852   0.45990   0.00000  Uiso   1.00
C502   C     0.65257   0.73557   0.25067   0.00000  Uiso   1.00
C503   C     0.56344   0.82817   0.04010   0.00000  Uiso   1.00
C504   C     0.40489   0.87103   0.49587   0.00000  Uiso   1.00
C505   C     0.59513   0.79567   0.00413   0.00000  Uiso   1.00
C506   C     0.48990   0.82439   0.47443   0.00000  Uiso   1.00
C507   C     0.51012   0.84232   0.02557   0.00000  Uiso   1.00
C508   C     0.48562   0.77449   0.19102   0.00000  Uiso   1.00
C509   C     0.43787   0.74718   0.16300   0.00000  Uiso   1.00
C510   C     0.43772   0.70924   0.11697   0.00000  Uiso   1.00
C511   C     0.48626   0.69420   0.09595   0.00000  Uiso   1.00
C512   C     0.53441   0.71487   0.12280   0.00000  Uiso   1.00
C513   C     0.47596   0.87298   0.06054   0.00000  Uiso   1.00
C514   C     0.53353   0.75197   0.16931   0.00000  Uiso   1.00
C515   C     0.51438   0.89217   0.30898   0.00000  Uiso   1.00
C516   C     0.56213   0.91949   0.33700   0.00000  Uiso   1.00
C517   C     0.56228   0.95743   0.38302   0.00000  Uiso   1.00
C518   C     0.51374   0.97248   0.40405   0.00000  Uiso   1.00
C519   C     0.46559   0.95180   0.37720   0.00000  Uiso   1.00
C520   C     0.46647   0.91470   0.33069   0.00000  Uiso   1.00
C521   C     0.52406   0.79374   0.43946   0.00000  Uiso   1.00
C522   C     0.42471   0.88720   0.04576   0.00000  Uiso   1.00
C523   C     0.57530   0.77952   0.45423   0.00000  Uiso   1.00
C524   C     0.35493   0.98521   0.24860   0.00000  Uiso   1.00
C525   C     0.64507   0.68146   0.25140   0.00000  Uiso   1.00
C526   C     0.35398   0.83726   0.34122   0.00000  Uiso   1.00
H527   H     0.40041   0.91128   0.07377   0.00000  Uiso   1.00
H528   H     0.51284   0.77971   0.39998   0.00000  Uiso   1.00
H529   H     0.39629   0.66724   0.24556   0.00000  Uiso   1.00
H530   H     0.60371   0.99942   0.25444   0.00000  Uiso   1.00
H531   H     0.39838   0.75098   0.17461   0.00000  Uiso   1.00
H532   H     0.39939   0.69098   0.09793   0.00000  Uiso   1.00
H533   H     0.48661   0.99839   0.06032   0.00000  Uiso   1.00
H534   H     0.57305   0.70109   0.10822   0.00000  Uiso   1.00
H535   H     0.57225   0.75805   0.18473   0.00000  Uiso   1.00
H536   H     0.60162   0.91569   0.32538   0.00000  Uiso   1.00
H537   H     0.60062   0.97570   0.40207   0.00000  Uiso   1.00
H538   H     0.59961   0.75545   0.42622   0.00000  Uiso   1.00
H539   H     0.51339   0.66830   0.43968   0.00000  Uiso   1.00
H540   H     0.42695   0.96558   0.39178   0.00000  Uiso   1.00
H541   H     0.42775   0.90862   0.31527   0.00000  Uiso   1.00
H542   H     0.56508   0.87042   0.11859   0.00000  Uiso   1.00
H543   H     0.43491   0.79624   0.38142   0.00000  Uiso   1.00
H544   H     0.37092   0.77823   0.07958   0.00000  Uiso   1.00
H545   H     0.62908   0.88846   0.42041   0.00000  Uiso   1.00
H546   H     0.66240   0.91186   0.00901   0.00000  Uiso   1.00
H547   H     0.33762   0.75485   0.49098   0.00000  Uiso   1.00
H548   H     0.48719   0.88702   0.10001   0.00000  Uiso   1.00
N549   N     0.48029   0.81883   0.23740   0.00000  Uiso   1.00
N550   N     0.51971   0.84784   0.26261   0.00000  Uiso   1.00
O551   O     0.63052   0.91298   0.25310   0.00000  Uiso   1.00
O552   O     0.36948   0.75369   0.24691   0.00000  Uiso   1.00
O553   O     0.39155   0.90368   0.24502   0.00000  Uiso   1.00
O554   O     0.60845   0.76298   0.25498   0.00000  Uiso   1.00
O555   O     0.63662   0.84063   0.32247   0.00000  Uiso   1.00
O556   O     0.36338   0.82603   0.17753   0.00000  Uiso   1.00
O557   O     0.39764   0.83134   0.31439   0.00000  Uiso   1.00
O558   O     0.60236   0.83533   0.18561   0.00000  Uiso   1.00
Zn559  Zn    0.60366   0.83954   0.25539   0.00000  Uiso   1.00
Zn560  Zn    0.39634   0.82713   0.24461   0.00000  Uiso   1.00
C561   C     0.68076   0.93110   0.24933   0.00000  Uiso   1.00
C562   C     0.97935   0.82941   0.15878   0.00000  Uiso   1.00
C563   C     0.69863   0.84249   0.39520   0.00000  Uiso   1.00
C564   C     0.96804   0.82419   0.10480   0.00000  Uiso   1.00
C565   C     0.68684   0.88728   0.48150   0.00000  Uiso   1.00
C566   C     0.97984   0.77942   0.01850   0.00000  Uiso   1.00
C567   C     0.66734   0.87348   0.43122   0.00000  Uiso   1.00
C568   C     0.99933   0.79322   0.06877   0.00000  Uiso   1.00
C569   C     0.74750   0.82259   0.41021   0.00000  Uiso   1.00
C570   C     0.91916   0.84409   0.08979   0.00000  Uiso   1.00
C571   C     0.76991   0.83852   0.45990   0.00000  Uiso   1.00
C572   C     0.98591   0.73557   0.25067   0.00000  Uiso   1.00
C573   C     0.89677   0.82817   0.04010   0.00000  Uiso   1.00
C574   C     0.73822   0.87103   0.49587   0.00000  Uiso   1.00
C575   C     0.92846   0.79567   0.00413   0.00000  Uiso   1.00
C576   C     0.82323   0.82439   0.47443   0.00000  Uiso   1.00
C577   C     0.84345   0.84232   0.02557   0.00000  Uiso   1.00
C578   C     0.81896   0.77449   0.19102   0.00000  Uiso   1.00
C579   C     0.77121   0.74718   0.16300   0.00000  Uiso   1.00
C580   C     0.77105   0.70924   0.11697   0.00000  Uiso   1.00
C581   C     0.81960   0.69420   0.09595   0.00000  Uiso   1.00
C582   C     0.86774   0.71487   0.12280   0.00000  Uiso   1.00
C583   C     0.80929   0.87298   0.06054   0.00000  Uiso   1.00
C584   C     0.86686   0.75197   0.16931   0.00000  Uiso   1.00
C585   C     0.84771   0.89217   0.30898   0.00000  Uiso   1.00
C586   C     0.89546   0.91949   0.33700   0.00000  Uiso   1.00
C587   C     0.89561   0.95743   0.38302   0.00000  Uiso   1.00
C588   C     0.84707   0.97248   0.40405   0.00000  Uiso   1.00
C589   C     0.79893   0.95180   0.37720   0.00000  Uiso   1.00
C590   C     0.79981   0.91470   0.33069   0.00000  Uiso   1.00
C591   C     0.85739   0.79374   0.43946   0.00000  Uiso   1.00
C592   C     0.75805   0.88720   0.04576   0.00000  Uiso   1.00
C593   C     0.90864   0.77952   0.45423   0.00000  Uiso   1.00
C594   C     0.68826   0.98521   0.24860   0.00000  Uiso   1.00
C595   C     0.97841   0.68146   0.25140   0.00000  Uiso   1.00
C596   C     0.68732   0.83726   0.34122   0.00000  Uiso   1.00
H597   H     0.73374   0.91128   0.07377   0.00000  Uiso   1.00
H598   H     0.84617   0.77971   0.39998   0.00000  Uiso   1.00
H599   H     0.72963   0.66724   0.24556   0.00000  Uiso   1.00
H600   H     0.93704   0.99942   0.25444   0.00000  Uiso   1.00
H601   H     0.73171   0.75098   0.17461   0.00000  Uiso   1.00
H602   H     0.73272   0.69098   0.09793   0.00000  Uiso   1.00
H603   H     0.81994   0.99839   0.06032   0.00000  Uiso   1.00
H604   H     0.90639   0.70109   0.10822   0.00000  Uiso   1.00
H605   H     0.90558   0.75805   0.18473   0.00000  Uiso   1.00
H606   H     0.93496   0.91569   0.32538   0.00000  Uiso   1.00
H607   H     0.93395   0.97570   0.40207   0.00000  Uiso   1.00
H608   H     0.93295   0.75545   0.42622   0.00000  Uiso   1.00
H609   H     0.84673   0.66830   0.43968   0.00000  Uiso   1.00
H610   H     0.76028   0.96558   0.39178   0.00000  Uiso   1.00
H611   H     0.76108   0.90862   0.31527   0.00000  Uiso   1.00
H612   H     0.89841   0.87042   0.11859   0.00000  Uiso   1.00
H613   H     0.76825   0.79624   0.38142   0.00000  Uiso   1.00
H614   H     0.70426   0.77823   0.07958   0.00000  Uiso   1.00
H615   H     0.96242   0.88846   0.42041   0.00000  Uiso   1.00
H616   H     0.99574   0.91186   0.00901   0.00000  Uiso   1.00
H617   H     0.67095   0.75485   0.49098   0.00000  Uiso   1.00
H618   H     0.82052   0.88702   0.10001   0.00000  Uiso   1.00
N619   N     0.81362   0.81883   0.23740   0.00000  Uiso   1.00
N620   N     0.85305   0.84784   0.26261   0.00000  Uiso   1.00
O621   O     0.96386   0.91298   0.25310   0.00000  Uiso   1.00
O622   O     0.70281   0.75369   0.24691   0.00000  Uiso   1.00
O623   O     0.72488   0.90368   0.24502   0.00000  Uiso   1.00
O624   O     0.94178   0.76298   0.25498   0.00000  Uiso   1.00
O625   O     0.96995   0.84063   0.32247   0.00000  Uiso   1.00
O626   O     0.69672   0.82603   0.17753   0.00000  Uiso   1.00
O627   O     0.73098   0.83134   0.31439   0.00000  Uiso   1.00
O628   O     0.93569   0.83533   0.18561   0.00000  Uiso   1.00
Zn629  Zn    0.93700   0.83954   0.25539   0.00000  Uiso   1.00
Zn630  Zn    0.72967   0.82713   0.24461   0.00000  Uiso   1.00
C631   C     0.01409   0.26443   0.74933   0.00000  Uiso   1.00
C632   C     0.31268   0.16274   0.65878   0.00000  Uiso   1.00
C633   C     0.03196   0.17582   0.89520   0.00000  Uiso   1.00
C634   C     0.30137   0.15752   0.60480   0.00000  Uiso   1.00
C635   C     0.02017   0.22061   0.98150   0.00000  Uiso   1.00
C636   C     0.31318   0.11276   0.51850   0.00000  Uiso   1.00
C637   C     0.00068   0.20681   0.93122   0.00000  Uiso   1.00
C638   C     0.33266   0.12655   0.56877   0.00000  Uiso   1.00
C639   C     0.08084   0.15592   0.91021   0.00000  Uiso   1.00
C640   C     0.25250   0.17742   0.58979   0.00000  Uiso   1.00
C641   C     0.10324   0.17186   0.95990   0.00000  Uiso   1.00
C642   C     0.31924   0.06890   0.75067   0.00000  Uiso   1.00
C643   C     0.23010   0.16151   0.54010   0.00000  Uiso   1.00
C644   C     0.07155   0.20437   0.99587   0.00000  Uiso   1.00
C645   C     0.26179   0.12901   0.50413   0.00000  Uiso   1.00
C646   C     0.15656   0.15772   0.97443   0.00000  Uiso   1.00
C647   C     0.17678   0.17565   0.52557   0.00000  Uiso   1.00
C648   C     0.15229   0.10783   0.69102   0.00000  Uiso   1.00
C649   C     0.10454   0.08051   0.66300   0.00000  Uiso   1.00
C650   C     0.10439   0.04258   0.61697   0.00000  Uiso   1.00
C651   C     0.15293   0.02754   0.59595   0.00000  Uiso   1.00
C652   C     0.20107   0.04821   0.62280   0.00000  Uiso   1.00
C653   C     0.14263   0.20631   0.56054   0.00000  Uiso   1.00
C654   C     0.20019   0.08530   0.66931   0.00000  Uiso   1.00
C655   C     0.18104   0.22551   0.80898   0.00000  Uiso   1.00
C656   C     0.22879   0.25282   0.83700   0.00000  Uiso   1.00
C657   C     0.22895   0.29077   0.88302   0.00000  Uiso   1.00
C658   C     0.18040   0.30581   0.90405   0.00000  Uiso   1.00
C659   C     0.13226   0.28513   0.87720   0.00000  Uiso   1.00
C660   C     0.13314   0.24803   0.83069   0.00000  Uiso   1.00
C661   C     0.19073   0.12707   0.93946   0.00000  Uiso   1.00
C662   C     0.09138   0.22053   0.54576   0.00000  Uiso   1.00
C663   C     0.24197   0.11285   0.95423   0.00000  Uiso   1.00
C664   C     0.02159   0.31854   0.74860   0.00000  Uiso   1.00
C665   C     0.31174   0.01479   0.75140   0.00000  Uiso   1.00
C666   C     0.02065   0.17060   0.84122   0.00000  Uiso   1.00
H667   H     0.06708   0.24461   0.57377   0.00000  Uiso   1.00
H668   H     0.17951   0.11305   0.89998   0.00000  Uiso   1.00
H669   H     0.06296   0.00057   0.74556   0.00000  Uiso   1.00
H670   H     0.27037   0.33276   0.75444   0.00000  Uiso   1.00
H671   H     0.06504   0.08431   0.67461   0.00000  Uiso   1.00
H672   H     0.06605   0.02431   0.59793   0.00000  Uiso   1.00
H673   H     0.15327   0.33172   0.56032   0.00000  Uiso   1.00
H674   H     0.23972   0.03442   0.60822   0.00000  Uiso   1.00
H675   H     0.23892   0.09138   0.68473   0.00000  Uiso   1.00
H676   H     0.26829   0.24902   0.82538   0.00000  Uiso   1.00
H677   H     0.26728   0.30903   0.90207   0.00000  Uiso   1.00
H678   H     0.26628   0.08878   0.92622   0.00000  Uiso   1.00
H679   H     0.18006   0.00163   0.93968   0.00000  Uiso   1.00
H680   H     0.09361   0.29892   0.89178   0.00000  Uiso   1.00
H681   H     0.09441   0.24195   0.81527   0.00000  Uiso   1.00
H682   H     0.23174   0.20375   0.61859   0.00000  Uiso   1.00
H683   H     0.10158   0.12958   0.88142   0.00000  Uiso   1.00
H684   H     0.03759   0.11157   0.57958   0.00000  Uiso   1.00
H685   H     0.29575   0.22179   0.92041   0.00000  Uiso   1.00
H686   H     0.32907   0.24519   0.50901   0.00000  Uiso   1.00
H687   H     0.00428   0.08819   0.99098   0.00000  Uiso   1.00
H688   H     0.15385   0.22036   0.60001   0.00000  Uiso   1.00
N689   N     0.14695   0.15216   0.73740   0.00000  Uiso   1.00
N690   N     0.18638   0.18117   0.76261   0.00000  Uiso   1.00
O691   O     0.29719   0.24631   0.75310   0.00000  Uiso   1.00
O692   O     0.03614   0.08702   0.74691   0.00000  Uiso   1.00
O693   O     0.05822   0.23702   0.74502   0.00000  Uiso   1.00
O694   O     0.27512   0.09632   0.75498   0.00000  Uiso   1.00
O695   O     0.30328   0.17397   0.82247   0.00000  Uiso   1.00
O696   O     0.03005   0.15937   0.67753   0.00000  Uiso   1.00
O697   O     0.06431   0.16467   0.81439   0.00000  Uiso   1.00
O698   O     0.26902   0.16866   0.68561   0.00000  Uiso   1.00
Zn699  Zn    0.27033   0.17287   0.75539   0.00000  Uiso   1.00
Zn700  Zn    0.06300   0.16046   0.74461   0.00000  Uiso   1.00
C701   C     0.34743   0.26443   0.74933   0.00000  Uiso   1.00
C702   C     0.64602   0.16274   0.65878   0.00000  Uiso   1.00
C703   C     0.36529   0.17582   0.89520   0.00000  Uiso   1.00
C704   C     0.63471   0.15752   0.60480   0.00000  Uiso   1.00
C705   C     0.35350   0.22061   0.98150   0.00000  Uiso   1.00
C706   C     0.64651   0.11276   0.51850   0.00000  Uiso   1.00
C707   C     0.33401   0.20681   0.93122   0.00000  Uiso   1.00
C708   C     0.66600   0.12655   0.56877   0.00000  Uiso   1.00
C709   C     0.41417   0.15592   0.91021   0.00000  Uiso   1.00
C710   C     0.58583   0.17742   0.58979   0.00000  Uiso   1.00
C711   C     0.43657   0.17186   0.95990   0.00000  Uiso   1.00
C712   C     0.65257   0.06890   0.75067   0.00000  Uiso   1.00
C713   C     0.56344   0.16151   0.54010   0.00000  Uiso   1.00
C714   C     0.40489   0.20437   0.99587   0.00000  Uiso   1.00
C715   C     0.59513   0.12901   0.50413   0.00000  Uiso   1.00
C716   C     0.48990   0.15772   0.97443   0.00000  Uiso   1.00
C717   C     0.51012   0.17565   0.52557   0.00000  Uiso   1.00
C718   C     0.48562   0.10783   0.69102   0.00000  Uiso   1.00
C719   C     0.43787   0.08051   0.66300   0.00000  Uiso   1.00
C720   C     0.43772   0.04258   0.61697   0.00000  Uiso   1.00
C721   C     0.48626   0.02754   0.59595   0.00000  Uiso   1.00
C722   C     0.53441   0.04821   0.62280   0.00000  Uiso   1.00
C723   C     0.47596   0.20631   0.56054   0.00000  Uiso   1.00
C724   C     0.53353   0.08530   0.66931   0.00000  Uiso   1.00
C725   C     0.51438   0.22551   0.80898   0.00000  Uiso   1.00
C726   C     0.56213   0.25282   0.83700   0.00000  Uiso   1.00
C727   C     0.56228   0.29077   0.88302   0.00000  Uiso   1.00
C728   C     0.51374   0.30581   0.90405   0.00000  Uiso   1.00
C729   C     0.46559   0.28513   0.87720   0.00000  Uiso   1.00
C730   C     0.46647   0.24803   0.83069   0.00000  Uiso   1.00
C731   C     0.52406   0.12707   0.93946   0.00000  Uiso   1.00
C732   C     0.42471   0.22053   0.54576   0.00000  Uiso   1.00
C733   C     0.57530   0.11285   0.95423   0.00000  Uiso   1.00
C734   C     0.35493   0.31854   0.74860   0.00000  Uiso   1.00
C735   C     0.64507   0.01479   0.75140   0.00000  Uiso   1.00
C736   C     0.35398   0.17060   0.84122   0.00000  Uiso   1.00
H737   H     0.40041   0.24461   0.57377   0.00000  Uiso   1.00
H738   H     0.51284   0.11305   0.89998   0.00000  Uiso   1.00
H739   H     0.39629   0.00057   0.74556   0.00000  Uiso   1.00
H740   H     0.60371   0.33276   0.75444   0.00000  Uiso   1.00
H741   H     0.39838   0.08431   0.67461   0.00000  Uiso   1.00
H742   H     0.39939   0.02431   0.59793   0.00000  Uiso   1.00
H743   H     0.48661   0.33172   0.56032   0.00000  Uiso   1.00
H744   H     0.57305   0.03442   0.60822   0.00000  Uiso   1.00
H745   H     0.57225   0.09138   0.68473   0.00000  Uiso   1.00
H746   H     0.60162   0.24902   0.82538   0.00000  Uiso   1.00
H747   H     0.60062   0.30903   0.90207   0.00000  Uiso   1.00
H748   H     0.59961   0.08878   0.92622   0.00000  Uiso   1.00
H749   H     0.51339   0.00163   0.93968   0.00000  Uiso   1.00
H750   H     0.42695   0.29892   0.89178   0.00000  Uiso   1.00
H751   H     0.42775   0.24195   0.81527   0.00000  Uiso   1.00
H752   H     0.56508   0.20375   0.61859   0.00000  Uiso   1.00
H753   H     0.43491   0.12958   0.88142   0.00000  Uiso   1.00
H754   H     0.37092   0.11157   0.57958   0.00000  Uiso   1.00
H755   H     0.62908   0.22179   0.92041   0.00000  Uiso   1.00
H756   H     0.66240   0.24519   0.50901   0.00000  Uiso   1.00
H757   H     0.33762   0.08819   0.99098   0.00000  Uiso   1.00
H758   H     0.48719   0.22036   0.60001   0.00000  Uiso   1.00
N759   N     0.48029   0.15216   0.73740   0.00000  Uiso   1.00
N760   N     0.51971   0.18117   0.76261   0.00000  Uiso   1.00
O761   O     0.63052   0.24631   0.75310   0.00000  Uiso   1.00
O762   O     0.36948   0.08702   0.74691   0.00000  Uiso   1.00
O763   O     0.39155   0.23702   0.74502   0.00000  Uiso   1.00
O764   O     0.60845   0.09632   0.75498   0.00000  Uiso   1.00
O765   O     0.63662   0.17397   0.82247   0.00000  Uiso   1.00
O766   O     0.36338   0.15937   0.67753   0.00000  Uiso   1.00
O767   O     0.39764   0.16467   0.81439   0.00000  Uiso   1.00
O768   O     0.60236   0.16866   0.68561   0.00000  Uiso   1.00
Zn769  Zn    0.60366   0.17287   0.75539   0.00000  Uiso   1.00
Zn770  Zn    0.39634   0.16046   0.74461   0.00000  Uiso   1.00
C771   C     0.68076   0.26443   0.74933   0.00000  Uiso   1.00
C772   C     0.97935   0.16274   0.65878   0.00000  Uiso   1.00
C773   C     0.69863   0.17582   0.89520   0.00000  Uiso   1.00
C774   C     0.96804   0.15752   0.60480   0.00000  Uiso   1.00
C775   C     0.68684   0.22061   0.98150   0.00000  Uiso   1.00
C776   C     0.97984   0.11276   0.51850   0.00000  Uiso   1.00
C777   C     0.66734   0.20681   0.93122   0.00000  Uiso   1.00
C778   C     0.99933   0.12655   0.56877   0.00000  Uiso   1.00
C779   C     0.74750   0.15592   0.91021   0.00000  Uiso   1.00
C780   C     0.91916   0.17742   0.58979   0.00000  Uiso   1.00
C781   C     0.76991   0.17186   0.95990   0.00000  Uiso   1.00
C782   C     0.98591   0.06890   0.75067   0.00000  Uiso   1.00
C783   C     0.89677   0.16151   0.54010   0.00000  Uiso   1.00
C784   C     0.73822   0.20437   0.99587   0.00000  Uiso   1.00
C785   C     0.92846   0.12901   0.50413   0.00000  Uiso   1.00
C786   C     0.82323   0.15772   0.97443   0.00000  Uiso   1.00
C787   C     0.84345   0.17565   0.52557   0.00000  Uiso   1.00
C788   C     0.81896   0.10783   0.69102   0.00000  Uiso   1.00
C789   C     0.77121   0.08051   0.66300   0.00000  Uiso   1.00
C790   C     0.77105   0.04258   0.61697   0.00000  Uiso   1.00
C791   C     0.81960   0.02754   0.59595   0.00000  Uiso   1.00
C792   C     0.86774   0.04821   0.62280   0.00000  Uiso   1.00
C793   C     0.80929   0.20631   0.56054   0.00000  Uiso   1.00
C794   C     0.86686   0.08530   0.66931   0.00000  Uiso   1.00
C795   C     0.84771   0.22551   0.80898   0.00000  Uiso   1.00
C796   C     0.89546   0.25282   0.83700   0.00000  Uiso   1.00
C797   C     0.89561   0.29077   0.88302   0.00000  Uiso   1.00
C798   C     0.84707   0.30581   0.90405   0.00000  Uiso   1.00
C799   C     0.79893   0.28513   0.87720   0.00000  Uiso   1.00
C800   C     0.79981   0.24803   0.83069   0.00000  Uiso   1.00
C801   C     0.85739   0.12707   0.93946   0.00000  Uiso   1.00
C802   C     0.75805   0.22053   0.54576   0.00000  Uiso   1.00
C803   C     0.90864   0.11285   0.95423   0.00000  Uiso   1.00
C804   C     0.68826   0.31854   0.74860   0.00000  Uiso   1.00
C805   C     0.97841   0.01479   0.75140   0.00000  Uiso   1.00
C806   C     0.68732   0.17060   0.84122   0.00000  Uiso   1.00
H807   H     0.73374   0.24461   0.57377   0.00000  Uiso   1.00
H808   H     0.84617   0.11305   0.89998   0.00000  Uiso   1.00
H809   H     0.72963   0.00057   0.74556   0.00000  Uiso   1.00
H810   H     0.93704   0.33276   0.75444   0.00000  Uiso   1.00
H811   H     0.73171   0.08431   0.67461   0.00000  Uiso   1.00
H812   H     0.73272   0.02431   0.59793   0.00000  Uiso   1.00
H813   H     0.81994   0.33172   0.56032   0.00000  Uiso   1.00
H814   H     0.90639   0.03442   0.60822   0.00000  Uiso   1.00
H815   H     0.90558   0.09138   0.68473   0.00000  Uiso   1.00
H816   H     0.93496   0.24902   0.82538   0.00000  Uiso   1.00
H817   H     0.93395   0.30903   0.90207   0.00000  Uiso   1.00
H818   H     0.93295   0.08878   0.92622   0.00000  Uiso   1.00
H819   H     0.84673   0.00163   0.93968   0.00000  Uiso   1.00
H820   H     0.76028   0.29892   0.89178   0.00000  Uiso   1.00
H821   H     0.76108   0.24195   0.81527   0.00000  Uiso   1.00
H822   H     0.89841   0.20375   0.61859   0.00000  Uiso   1.00
H823   H     0.76825   0.12958   0.88142   0.00000  Uiso   1.00
H824   H     0.70426   0.11157   0.57958   0.00000  Uiso   1.00
H825   H     0.96242   0.22179   0.92041   0.00000  Uiso   1.00
H826   H     0.99574   0.24519   0.50901   0.00000  Uiso   1.00
H827   H     0.67095   0.08819   0.99098   0.00000  Uiso   1.00
H828   H     0.82052   0.22036   0.60001   0.00000  Uiso   1.00
N829   N     0.81362   0.15216   0.73740   0.00000  Uiso   1.00
N830   N     0.85305   0.18117   0.76261   0.00000  Uiso   1.00
O831   O     0.96386   0.24631   0.75310   0.00000  Uiso   1.00
O832   O     0.70281   0.08702   0.74691   0.00000  Uiso   1.00
O833   O     0.72488   0.23702   0.74502   0.00000  Uiso   1.00
O834   O     0.94178   0.09632   0.75498   0.00000  Uiso   1.00
O835   O     0.96995   0.17397   0.82247   0.00000  Uiso   1.00
O836   O     0.69672   0.15937   0.67753   0.00000  Uiso   1.00
O837   O     0.73098   0.16467   0.81439   0.00000  Uiso   1.00
O838   O     0.93569   0.16866   0.68561   0.00000  Uiso   1.00
Zn839  Zn    0.93700   0.17287   0.75539   0.00000  Uiso   1.00
Zn840  Zn    0.72967   0.16046   0.74461   0.00000  Uiso   1.00
C841   C     0.01409   0.59777   0.74933   0.00000  Uiso   1.00
C842   C     0.31268   0.49607   0.65878   0.00000  Uiso   1.00
C843   C     0.03196   0.50916   0.89520   0.00000  Uiso   1.00
C844   C     0.30137   0.49085   0.60480   0.00000  Uiso   1.00
C845   C     0.02017   0.55395   0.98150   0.00000  Uiso   1.00
C846   C     0.31318   0.44609   0.51850   0.00000  Uiso   1.00
C847   C     0.00068   0.54014   0.93122   0.00000  Uiso   1.00
C848   C     0.33266   0.45988   0.56877   0.00000  Uiso   1.00
C849   C     0.08084   0.48926   0.91021   0.00000  Uiso   1.00
C850   C     0.25250   0.51076   0.58979   0.00000  Uiso   1.00
C851   C     0.10324   0.50519   0.95990   0.00000  Uiso   1.00
C852   C     0.31924   0.40223   0.75067   0.00000  Uiso   1.00
C853   C     0.23010   0.49484   0.54010   0.00000  Uiso   1.00
C854   C     0.07155   0.53770   0.99587   0.00000  Uiso   1.00
C855   C     0.26179   0.46234   0.50413   0.00000  Uiso   1.00
C856   C     0.15656   0.49106   0.97443   0.00000  Uiso   1.00
C857   C     0.17678   0.50898   0.52557   0.00000  Uiso   1.00
C858   C     0.15229   0.44116   0.69102   0.00000  Uiso   1.00
C859   C     0.10454   0.41385   0.66300   0.00000  Uiso   1.00
C860   C     0.10439   0.37591   0.61697   0.00000  Uiso   1.00
C861   C     0.15293   0.36087   0.59595   0.00000  Uiso   1.00
C862   C     0.20107   0.38154   0.62280   0.00000  Uiso   1.00
C863   C     0.14263   0.53965   0.56054   0.00000  Uiso   1.00
C864   C     0.20019   0.41864   0.66931   0.00000  Uiso   1.00
C865   C     0.18104   0.55884   0.80898   0.00000  Uiso   1.00
C866   C     0.22879   0.58616   0.83700   0.00000  Uiso   1.00
C867   C     0.22895   0.62410   0.88302   0.00000  Uiso   1.00
C868   C     0.18040   0.63915   0.90405   0.00000  Uiso   1.00
C869   C     0.13226   0.61847   0.87720   0.00000  Uiso   1.00
C870   C     0.13314   0.58136   0.83069   0.00000  Uiso   1.00
C871   C     0.19073   0.46040   0.93946   0.00000  Uiso   1.00
C872   C     0.09138   0.55387   0.54576   0.00000  Uiso   1.00
C873   C     0.24197   0.44618   0.95423   0.00000  Uiso   1.00
C874   C     0.02159   0.65188   0.74860   0.00000  Uiso   1.00
C875   C     0.31174   0.34812   0.75140   0.00000  Uiso   1.00
C876   C     0.02065   0.50393   0.84122   0.00000  Uiso   1.00
H877   H     0.06708   0.57795   0.57377   0.00000  Uiso   1.00
H878   H     0.17951   0.44638   0.89998   0.00000  Uiso   1.00
H879   H     0.06296   0.33391   0.74556   0.00000  Uiso   1.00
H880   H     0.27037   0.66609   0.75444   0.00000  Uiso   1.00
H881   H     0.06504   0.41764   0.67461   0.00000  Uiso   1.00
H882   H     0.06605   0.35765   0.59793   0.00000  Uiso   1.00
H883   H     0.15327   0.66506   0.56032   0.00000  Uiso   1.00
H884   H     0.23972   0.36776   0.60822   0.00000  Uiso   1.00
H885   H     0.23892   0.42472   0.68473   0.00000  Uiso   1.00
H886   H     0.26829   0.58236   0.82538   0.00000  Uiso   1.00
H887   H     0.26728   0.64237   0.90207   0.00000  Uiso   1.00
H888   H     0.26628   0.42211   0.92622   0.00000  Uiso   1.00
H889   H     0.18006   0.33497   0.93968   0.00000  Uiso   1.00
H890   H     0.09361   0.63225   0.89178   0.00000  Uiso   1.00
H891   H     0.09441   0.57528   0.81527   0.00000  Uiso   1.00
H892   H     0.23174   0.53708   0.61859   0.00000  Uiso   1.00
H893   H     0.10158   0.46291   0.88142   0.00000  Uiso   1.00
H894   H     0.03759   0.44490   0.57958   0.00000  Uiso   1.00
H895   H     0.29575   0.55513   0.92041   0.00000  Uiso   1.00
H896   H     0.32907   0.57853   0.50901   0.00000  Uiso   1.00
H897   H     0.00428   0.42152   0.99098   0.00000  Uiso   1.00
H898   H     0.15385   0.55369   0.60001   0.00000  Uiso   1.00
N899   N     0.14695   0.48550   0.73740   0.00000  Uiso   1.00
N900   N     0.18638   0.51450   0.76261   0.00000  Uiso   1.00
O901   O     0.29719   0.57964   0.75310   0.00000  Uiso   1.00
O902   O     0.03614   0.42036   0.74691   0.00000  Uiso   1.00
O903   O     0.05822   0.57035   0.74502   0.00000  Uiso   1.00
O904   O     0.27512   0.42965   0.75498   0.00000  Uiso   1.00
O905   O     0.30328   0.50730   0.82247   0.00000  Uiso   1.00
O906   O     0.03005   0.49270   0.67753   0.00000  Uiso   1.00
O907   O     0.06431   0.49801   0.81439   0.00000  Uiso   1.00
O908   O     0.26902   0.50199   0.68561   0.00000  Uiso   1.00
Zn909  Zn    0.27033   0.50621   0.75539   0.00000  Uiso   1.00
Zn910  Zn    0.06300   0.49379   0.74461   0.00000  Uiso   1.00
C911   C     0.34743   0.59777   0.74933   0.00000  Uiso   1.00
C912   C     0.64602   0.49607   0.65878   0.00000  Uiso   1.00
C913   C     0.36529   0.50916   0.89520   0.00000  Uiso   1.00
C914   C     0.63471   0.49085   0.60480   0.00000  Uiso   1.00
C915   C     0.35350   0.55395   0.98150   0.00000  Uiso   1.00
C916   C     0.64651   0.44609   0.51850   0.00000  Uiso   1.00
C917   C     0.33401   0.54014   0.93122   0.00000  Uiso   1.00
C918   C     0.66600   0.45988   0.56877   0.00000  Uiso   1.00
C919   C     0.41417   0.48926   0.91021   0.00000  Uiso   1.00
C920   C     0.58583   0.51076   0.58979   0.00000  Uiso   1.00
C921   C     0.43657   0.50519   0.95990   0.00000  Uiso   1.00
C922   C     0.65257   0.40223   0.75067   0.00000  Uiso   1.00
C923   C     0.56344   0.49484   0.54010   0.00000  Uiso   1.00
C924   C     0.40489   0.53770   0.99587   0.00000  Uiso   1.00
C925   C     0.59513   0.46234   0.50413   0.00000  Uiso   1.00
C926   C     0.48990   0.49106   0.97443   0.00000  Uiso   1.00
C927   C     0.51012   0.50898   0.52557   0.00000  Uiso   1.00
C928   C     0.48562   0.44116   0.69102   0.00000  Uiso   1.00
C929   C     0.43787   0.41385   0.66300   0.00000  Uiso   1.00
C930   C     0.43772   0.37591   0.61697   0.00000  Uiso   1.00
C931   C     0.48626   0.36087   0.59595   0.00000  Uiso   1.00
C932   C     0.53441   0.38154   0.62280   0.00000  Uiso   1.00
C933   C     0.47596   0.53965   0.56054   0.00000  Uiso   1.00
C934   C     0.53353   0.41864   0.66931   0.00000  Uiso   1.00
C935   C     0.51438   0.55884   0.80898   0.00000  Uiso   1.00
C936   C     0.56213   0.58616   0.83700   0.00000  Uiso   1.00
C937   C     0.56228   0.62410   0.88302   0.00000  Uiso   1.00
C938   C     0.51374   0.63915   0.90405   0.00000  Uiso   1.00
C939   C     0.46559   0.61847   0.87720   0.00000  Uiso   1.00
C940   C     0.46647   0.58136   0.83069   0.00000  Uiso   1.00
C941   C     0.52406   0.46040   0.93946   0.00000  Uiso   1.00
C942   C     0.42471   0.55387   0.54576   0.00000  Uiso   1.00
C943   C     0.57530   0.44618   0.95423   0.00000  Uiso   1.00
C944   C     0.35493   0.65188   0.74860   0.00000  Uiso   1.00
C945   C     0.64507   0.34812   0.75140   0.00000  Uiso   1.00
C946   C     0.35398   0.50393   0.84122   0.00000  Uiso   1.00
H947   H     0.40041   0.57795   0.57377   0.00000  Uiso   1.00
H948   H     0.51284   0.44638   0.89998   0.00000  Uiso   1.00
H949   H     0.39629   0.33391   0.74556   0.00000  Uiso   1.00
H950   H     0.60371   0.66609   0.75444   0.00000  Uiso   1.00
H951   H     0.39838   0.41764   0.67461   0.00000  Uiso   1.00
H952   H     0.39939   0.35765   0.59793   0.00000  Uiso   1.00
H953   H     0.48661   0.66506   0.56032   0.00000  Uiso   1.00
H954   H     0.57305   0.36776   0.60822   0.00000  Uiso   1.00
H955   H     0.57225   0.42472   0.68473   0.00000  Uiso   1.00
H956   H     0.60162   0.58236   0.82538   0.00000  Uiso   1.00
H957   H     0.60062   0.64237   0.90207   0.00000  Uiso   1.00
H958   H     0.59961   0.42211   0.92622   0.00000  Uiso   1.00
H959   H     0.51339   0.33497   0.93968   0.00000  Uiso   1.00
H960   H     0.42695   0.63225   0.89178   0.00000  Uiso   1.00
H961   H     0.42775   0.57528   0.81527   0.00000  Uiso   1.00
H962   H     0.56508   0.53708   0.61859   0.00000  Uiso   1.00
H963   H     0.43491   0.46291   0.88142   0.00000  Uiso   1.00
H964   H     0.37092   0.44490   0.57958   0.00000  Uiso   1.00
H965   H     0.62908   0.55513   0.92041   0.00000  Uiso   1.00
H966   H     0.66240   0.57853   0.50901   0.00000  Uiso   1.00
H967   H     0.33762   0.42152   0.99098   0.00000  Uiso   1.00
H968   H     0.48719   0.55369   0.60001   0.00000  Uiso   1.00
N969   N     0.48029   0.48550   0.73740   0.00000  Uiso   1.00
N970   N     0.51971   0.51450   0.76261   0.00000  Uiso   1.00
O971   O     0.63052   0.57964   0.75310   0.00000  Uiso   1.00
O972   O     0.36948   0.42036   0.74691   0.00000  Uiso   1.00
O973   O     0.39155   0.57035   0.74502   0.00000  Uiso   1.00
O974   O     0.60845   0.42965   0.75498   0.00000  Uiso   1.00
O975   O     0.63662   0.50730   0.82247   0.00000  Uiso   1.00
O976   O     0.36338   0.49270   0.67753   0.00000  Uiso   1.00
O977   O     0.39764   0.49801   0.81439   0.00000  Uiso   1.00
O978   O     0.60236   0.50199   0.68561   0.00000  Uiso   1.00
Zn979  Zn    0.60366   0.50621   0.75539   0.00000  Uiso   1.00
Zn980  Zn    0.39634   0.49379   0.74461   0.00000  Uiso   1.00
C981   C     0.68076   0.59777   0.74933   0.00000  Uiso   1.00
C982   C     0.97935   0.49607   0.65878   0.00000  Uiso   1.00
C983   C     0.69863   0.50916   0.89520   0.00000  Uiso   1.00
C984   C     0.96804   0.49085   0.60480   0.00000  Uiso   1.00
C985   C     0.68684   0.55395   0.98150   0.00000  Uiso   1.00
C986   C     0.97984   0.44609   0.51850   0.00000  Uiso   1.00
C987   C     0.66734   0.54014   0.93122   0.00000  Uiso   1.00
C988   C     0.99933   0.45988   0.56877   0.00000  Uiso   1.00
C989   C     0.74750   0.48926   0.91021   0.00000  Uiso   1.00
C990   C     0.91916   0.51076   0.58979   0.00000  Uiso   1.00
C991   C     0.76991   0.50519   0.95990   0.00000  Uiso   1.00
C992   C     0.98591   0.40223   0.75067   0.00000  Uiso   1.00
C993   C     0.89677   0.49484   0.54010   0.00000  Uiso   1.00
C994   C     0.73822   0.53770   0.99587   0.00000  Uiso   1.00
C995   C     0.92846   0.46234   0.50413   0.00000  Uiso   1.00
C996   C     0.82323   0.49106   0.97443   0.00000  Uiso   1.00
C997   C     0.84345   0.50898   0.52557   0.00000  Uiso   1.00
C998   C     0.81896   0.44116   0.69102   0.00000  Uiso   1.00
C999   C     0.77121   0.41385   0.66300   0.00000  Uiso   1.00
C1000  C     0.77105   0.37591   0.61697   0.00000  Uiso   1.00
C1001  C     0.81960   0.36087   0.59595   0.00000  Uiso   1.00
C1002  C     0.86774   0.38154   0.62280   0.00000  Uiso   1.00
C1003  C     0.80929   0.53965   0.56054   0.00000  Uiso   1.00
C1004  C     0.86686   0.41864   0.66931   0.00000  Uiso   1.00
C1005  C     0.84771   0.55884   0.80898   0.00000  Uiso   1.00
C1006  C     0.89546   0.58616   0.83700   0.00000  Uiso   1.00
C1007  C     0.89561   0.62410   0.88302   0.00000  Uiso   1.00
C1008  C     0.84707   0.63915   0.90405   0.00000  Uiso   1.00
C1009  C     0.79893   0.61847   0.87720   0.00000  Uiso   1.00
C1010  C     0.79981   0.58136   0.83069   0.00000  Uiso   1.00
C1011  C     0.85739   0.46040   0.93946   0.00000  Uiso   1.00
C1012  C     0.75805   0.55387   0.54576   0.00000  Uiso   1.00
C1013  C     0.90864   0.44618   0.95423   0.00000  Uiso   1.00
C1014  C     0.68826   0.65188   0.74860   0.00000  Uiso   1.00
C1015  C     0.97841   0.34812   0.75140   0.00000  Uiso   1.00
C1016  C     0.68732   0.50393   0.84122   0.00000  Uiso   1.00
H1017  H     0.73374   0.57795   0.57377   0.00000  Uiso   1.00
H1018  H     0.84617   0.44638   0.89998   0.00000  Uiso   1.00
H1019  H     0.72963   0.33391   0.74556   0.00000  Uiso   1.00
H1020  H     0.93704   0.66609   0.75444   0.00000  Uiso   1.00
H1021  H     0.73171   0.41764   0.67461   0.00000  Uiso   1.00
H1022  H     0.73272   0.35765   0.59793   0.00000  Uiso   1.00
H1023  H     0.81994   0.66506   0.56032   0.00000  Uiso   1.00
H1024  H     0.90639   0.36776   0.60822   0.00000  Uiso   1.00
H1025  H     0.90558   0.42472   0.68473   0.00000  Uiso   1.00
H1026  H     0.93496   0.58236   0.82538   0.00000  Uiso   1.00
H1027  H     0.93395   0.64237   0.90207   0.00000  Uiso   1.00
H1028  H     0.93295   0.42211   0.92622   0.00000  Uiso   1.00
H1029  H     0.84673   0.33497   0.93968   0.00000  Uiso   1.00
H1030  H     0.76028   0.63225   0.89178   0.00000  Uiso   1.00
H1031  H     0.76108   0.57528   0.81527   0.00000  Uiso   1.00
H1032  H     0.89841   0.53708   0.61859   0.00000  Uiso   1.00
H1033  H     0.76825   0.46291   0.88142   0.00000  Uiso   1.00
H1034  H     0.70426   0.44490   0.57958   0.00000  Uiso   1.00
H1035  H     0.96242   0.55513   0.92041   0.00000  Uiso   1.00
H1036  H     0.99574   0.57853   0.50901   0.00000  Uiso   1.00
H1037  H     0.67095   0.42152   0.99098   0.00000  Uiso   1.00
H1038  H     0.82052   0.55369   0.60001   0.00000  Uiso   1.00
N1039  N     0.81362   0.48550   0.73740   0.00000  Uiso   1.00
N1040  N     0.85305   0.51450   0.76261   0.00000  Uiso   1.00
O1041  O     0.96386   0.57964   0.75310   0.00000  Uiso   1.00
O1042  O     0.70281   0.42036   0.74691   0.00000  Uiso   1.00
O1043  O     0.72488   0.57035   0.74502   0.00000  Uiso   1.00
O1044  O     0.94178   0.42965   0.75498   0.00000  Uiso   1.00
O1045  O     0.96995   0.50730   0.82247   0.00000  Uiso   1.00
O1046  O     0.69672   0.49270   0.67753   0.00000  Uiso   1.00
O1047  O     0.73098   0.49801   0.81439   0.00000  Uiso   1.00
O1048  O     0.93569   0.50199   0.68561   0.00000  Uiso   1.00
Zn1049 Zn    0.93700   0.50621   0.75539   0.00000  Uiso   1.00
Zn1050 Zn    0.72967   0.49379   0.74461   0.00000  Uiso   1.00
C1051  C     0.01409   0.93110   0.74933   0.00000  Uiso   1.00
C1052  C     0.31268   0.82941   0.65878   0.00000  Uiso   1.00
C1053  C     0.03196   0.84249   0.89520   0.00000  Uiso   1.00
C1054  C     0.30137   0.82419   0.60480   0.00000  Uiso   1.00
C1055  C     0.02017   0.88728   0.98150   0.00000  Uiso   1.00
C1056  C     0.31318   0.77942   0.51850   0.00000  Uiso   1.00
C1057  C     0.00068   0.87348   0.93122   0.00000  Uiso   1.00
C1058  C     0.33266   0.79322   0.56877   0.00000  Uiso   1.00
C1059  C     0.08084   0.82259   0.91021   0.00000  Uiso   1.00
C1060  C     0.25250   0.84409   0.58979   0.00000  Uiso   1.00
C1061  C     0.10324   0.83852   0.95990   0.00000  Uiso   1.00
C1062  C     0.31924   0.73557   0.75067   0.00000  Uiso   1.00
C1063  C     0.23010   0.82817   0.54010   0.00000  Uiso   1.00
C1064  C     0.07155   0.87103   0.99587   0.00000  Uiso   1.00
C1065  C     0.26179   0.79567   0.50413   0.00000  Uiso   1.00
C1066  C     0.15656   0.82439   0.97443   0.00000  Uiso   1.00
C1067  C     0.17678   0.84232   0.52557   0.00000  Uiso   1.00
C1068  C     0.15229   0.77449   0.69102   0.00000  Uiso   1.00
C1069  C     0.10454   0.74718   0.66300   0.00000  Uiso   1.00
C1070  C     0.10439   0.70924   0.61697   0.00000  Uiso   1.00
C1071  C     0.15293   0.69420   0.59595   0.00000  Uiso   1.00
C1072  C     0.20107   0.71487   0.62280   0.00000  Uiso   1.00
C1073  C     0.14263   0.87298   0.56054   0.00000  Uiso   1.00
C1074  C     0.20019   0.75197   0.66931   0.00000  Uiso   1.00
C1075  C     0.18104   0.89217   0.80898   0.00000  Uiso   1.00
C1076  C     0.22879   0.91949   0.83700   0.00000  Uiso   1.00
C1077  C     0.22895   0.95743   0.88302   0.00000  Uiso   1.00
C1078  C     0.18040   0.97248   0.90405   0.00000  Uiso   1.00
C1079  C     0.13226   0.95180   0.87720   0.00000  Uiso   1.00
C1080  C     0.13314   0.91470   0.83069   0.00000  Uiso   1.00
C1081  C     0.19073   0.79374   0.93946   0.00000  Uiso   1.00
C1082  C     0.09138   0.88720   0.54576   0.00000  Uiso   1.00
C1083  C     0.24197   0.77952   0.95423   0.00000  Uiso   1.00
C1084  C     0.02159   0.98521   0.74860   0.00000  Uiso   1.00
C1085  C     0.31174   0.68146   0.75140   0.00000  Uiso   1.00
C1086  C     0.02065   0.83726   0.84122   0.00000  Uiso   1.00
H1087  H     0.06708   0.91128   0.57377   0.00000  Uiso   1.00
H1088  H     0.17951   0.77971   0.89998   0.00000  Uiso   1.00
H1089  H     0.06296   0.66724   0.74556   0.00000  Uiso   1.00
H1090  H     0.27037   0.99942   0.75444   0.00000  Uiso   1.00
H1091  H     0.06504   0.75098   0.67461   0.00000  Uiso   1.00
H1092  H     0.06605   0.69098   0.59793   0.00000  Uiso   1.00
H1093  H     0.15327   0.99839   0.56032   0.00000  Uiso   1.00
H1094  H     0.23972   0.70109   0.60822   0.00000  Uiso   1.00
H1095  H     0.23892   0.75805   0.68473   0.00000  Uiso   1.00
H1096  H     0.26829   0.91569   0.82538   0.00000  Uiso   1.00
H1097  H     0.26728   0.97570   0.90207   0.00000  Uiso   1.00
H1098  H     0.26628   0.75545   0.92622   0.00000  Uiso   1.00
H1099  H     0.18006   0.66830   0.93968   0.00000  Uiso   1.00
H1100  H     0.09361   0.96558   0.89178   0.00000  Uiso   1.00
H1101  H     0.09441   0.90862   0.81527   0.00000  Uiso   1.00
H1102  H     0.23174   0.87042   0.61859   0.00000  Uiso   1.00
H1103  H     0.10158   0.79624   0.88142   0.00000  Uiso   1.00
H1104  H     0.03759   0.77823   0.57958   0.00000  Uiso   1.00
H1105  H     0.29575   0.88846   0.92041   0.00000  Uiso   1.00
H1106  H     0.32907   0.91186   0.50901   0.00000  Uiso   1.00
H1107  H     0.00428   0.75485   0.99098   0.00000  Uiso   1.00
H1108  H     0.15385   0.88702   0.60001   0.00000  Uiso   1.00
N1109  N     0.14695   0.81883   0.73740   0.00000  Uiso   1.00
N1110  N     0.18638   0.84784   0.76261   0.00000  Uiso   1.00
O1111  O     0.29719   0.91298   0.75310   0.00000  Uiso   1.00
O1112  O     0.03614   0.75369   0.74691   0.00000  Uiso   1.00
O1113  O     0.05822   0.90368   0.74502   0.00000  Uiso   1.00
O1114  O     0.27512   0.76298   0.75498   0.00000  Uiso   1.00
O1115  O     0.30328   0.84063   0.82247   0.00000  Uiso   1.00
O1116  O     0.03005   0.82603   0.67753   0.00000  Uiso   1.00
O1117  O     0.06431   0.83134   0.81439   0.00000  Uiso   1.00
O1118  O     0.26902   0.83533   0.68561   0.00000  Uiso   1.00
Zn1119 Zn    0.27033   0.83954   0.75539   0.00000  Uiso   1.00
Zn1120 Zn    0.06300   0.82713   0.74461   0.00000  Uiso   1.00
C1121  C     0.34743   0.93110   0.74933   0.00000  Uiso   1.00
C1122  C     0.64602   0.82941   0.65878   0.00000  Uiso   1.00
C1123  C     0.36529   0.84249   0.89520   0.00000  Uiso   1.00
C1124  C     0.63471   0.82419   0.60480   0.00000  Uiso   1.00
C1125  C     0.35350   0.88728   0.98150   0.00000  Uiso   1.00
C1126  C     0.64651   0.77942   0.51850   0.00000  Uiso   1.00
C1127  C     0.33401   0.87348   0.93122   0.00000  Uiso   1.00
C1128  C     0.66600   0.79322   0.56877   0.00000  Uiso   1.00
C1129  C     0.41417   0.82259   0.91021   0.00000  Uiso   1.00
C1130  C     0.58583   0.84409   0.58979   0.00000  Uiso   1.00
C1131  C     0.43657   0.83852   0.95990   0.00000  Uiso   1.00
C1132  C     0.65257   0.73557   0.75067   0.00000  Uiso   1.00
C1133  C     0.56344   0.82817   0.54010   0.00000  Uiso   1.00
C1134  C     0.40489   0.87103   0.99587   0.00000  Uiso   1.00
C1135  C     0.59513   0.79567   0.50413   0.00000  Uiso   1.00
C1136  C     0.48990   0.82439   0.97443   0.00000  Uiso   1.00
C1137  C     0.51012   0.84232   0.52557   0.00000  Uiso   1.00
C1138  C     0.48562   0.77449   0.69102   0.00000  Uiso   1.00
C1139  C     0.43787   0.74718   0.66300   0.00000  Uiso   1.00
C1140  C     0.43772   0.70924   0.61697   0.00000  Uiso   1.00
C1141  C     0.48626   0.69420   0.59595   0.00000  Uiso   1.00
C1142  C     0.53441   0.71487   0.62280   0.00000  Uiso   1.00
C1143  C     0.47596   0.87298   0.56054   0.00000  Uiso   1.00
C1144  C     0.53353   0.75197   0.66931   0.00000  Uiso   1.00
C1145  C     0.51438   0.89217   0.80898   0.00000  Uiso   1.00
C1146  C     0.56213   0.91949   0.83700   0.00000  Uiso   1.00
C1147  C     0.56228   0.95743   0.88302   0.00000  Uiso   1.00
C1148  C     0.51374   0.97248   0.90405   0.00000  Uiso   1.00
C1149  C     0.46559   0.95180   0.87720   0.00000  Uiso   1.00
C1150  C     0.46647   0.91470   0.83069   0.00000  Uiso   1.00
C1151  C     0.52406   0.79374   0.93946   0.00000  Uiso   1.00
C1152  C     0.42471   0.88720   0.54576   0.00000  Uiso   1.00
C1153  C     0.57530   0.77952   0.95423   0.00000  Uiso   1.00
C1154  C     0.35493   0.98521   0.74860   0.00000  Uiso   1.00
C1155  C     0.64507   0.68146   0.75140   0.00000  Uiso   1.00
C1156  C     0.35398   0.83726   0.84122   0.00000  Uiso   1.00
H1157  H     0.40041   0.91128   0.57377   0.00000  Uiso   1.00
H1158  H     0.51284   0.77971   0.89998   0.00000  Uiso   1.00
H1159  H     0.39629   0.66724   0.74556   0.00000  Uiso   1.00
H1160  H     0.60371   0.99942   0.75444   0.00000  Uiso   1.00
H1161  H     0.39838   0.75098   0.67461   0.00000  Uiso   1.00
H1162  H     0.39939   0.69098   0.59793   0.00000  Uiso   1.00
H1163  H     0.48661   0.99839   0.56032   0.00000  Uiso   1.00
H1164  H     0.57305   0.70109   0.60822   0.00000  Uiso   1.00
H1165  H     0.57225   0.75805   0.68473   0.00000  Uiso   1.00
H1166  H     0.60162   0.91569   0.82538   0.00000  Uiso   1.00
H1167  H     0.60062   0.97570   0.90207   0.00000  Uiso   1.00
H1168  H     0.59961   0.75545   0.92622   0.00000  Uiso   1.00
H1169  H     0.51339   0.66830   0.93968   0.00000  Uiso   1.00
H1170  H     0.42695   0.96558   0.89178   0.00000  Uiso   1.00
H1171  H     0.42775   0.90862   0.81527   0.00000  Uiso   1.00
H1172  H     0.56508   0.87042   0.61859   0.00000  Uiso   1.00
H1173  H     0.43491   0.79624   0.88142   0.00000  Uiso   1.00
H1174  H     0.37092   0.77823   0.57958   0.00000  Uiso   1.00
H1175  H     0.62908   0.88846   0.92041   0.00000  Uiso   1.00
H1176  H     0.66240   0.91186   0.50901   0.00000  Uiso   1.00
H1177  H     0.33762   0.75485   0.99098   0.00000  Uiso   1.00
H1178  H     0.48719   0.88702   0.60001   0.00000  Uiso   1.00
N1179  N     0.48029   0.81883   0.73740   0.00000  Uiso   1.00
N1180  N     0.51971   0.84784   0.76261   0.00000  Uiso   1.00
O1181  O     0.63052   0.91298   0.75310   0.00000  Uiso   1.00
O1182  O     0.36948   0.75369   0.74691   0.00000  Uiso   1.00
O1183  O     0.39155   0.90368   0.74502   0.00000  Uiso   1.00
O1184  O     0.60845   0.76298   0.75498   0.00000  Uiso   1.00
O1185  O     0.63662   0.84063   0.82247   0.00000  Uiso   1.00
O1186  O     0.36338   0.82603   0.67753   0.00000  Uiso   1.00
O1187  O     0.39764   0.83134   0.81439   0.00000  Uiso   1.00
O1188  O     0.60236   0.83533   0.68561   0.00000  Uiso   1.00
Zn1189 Zn    0.60366   0.83954   0.75539   0.00000  Uiso   1.00
Zn1190 Zn    0.39634   0.82713   0.74461   0.00000  Uiso   1.00
C1191  C     0.68076   0.93110   0.74933   0.00000  Uiso   1.00
C1192  C     0.97935   0.82941   0.65878   0.00000  Uiso   1.00
C1193  C     0.69863   0.84249   0.89520   0.00000  Uiso   1.00
C1194  C     0.96804   0.82419   0.60480   0.00000  Uiso   1.00
C1195  C     0.68684   0.88728   0.98150   0.00000  Uiso   1.00
C1196  C     0.97984   0.77942   0.51850   0.00000  Uiso   1.00
C1197  C     0.66734   0.87348   0.93122   0.00000  Uiso   1.00
C1198  C     0.99933   0.79322   0.56877   0.00000  Uiso   1.00
C1199  C     0.74750   0.82259   0.91021   0.00000  Uiso   1.00
C1200  C     0.91916   0.84409   0.58979   0.00000  Uiso   1.00
C1201  C     0.76991   0.83852   0.95990   0.00000  Uiso   1.00
C1202  C     0.98591   0.73557   0.75067   0.00000  Uiso   1.00
C1203  C     0.89677   0.82817   0.54010   0.00000  Uiso   1.00
C1204  C     0.73822   0.87103   0.99587   0.00000  Uiso   1.00
C1205  C     0.92846   0.79567   0.50413   0.00000  Uiso   1.00
C1206  C     0.82323   0.82439   0.97443   0.00000  Uiso   1.00
C1207  C     0.84345   0.84232   0.52557   0.00000  Uiso   1.00
C1208  C     0.81896   0.77449   0.69102   0.00000  Uiso   1.00
C1209  C     0.77121   0.74718   0.66300   0.00000  Uiso   1.00
C1210  C     0.77105   0.70924   0.61697   0.00000  Uiso   1.00
C1211  C     0.81960   0.69420   0.59595   0.00000  Uiso   1.00
C1212  C     0.86774   0.71487   0.62280   0.00000  Uiso   1.00
C1213  C     0.80929   0.87298   0.56054   0.00000  Uiso   1.00
C1214  C     0.86686   0.75197   0.66931   0.00000  Uiso   1.00
C1215  C     0.84771   0.89217   0.80898   0.00000  Uiso   1.00
C1216  C     0.89546   0.91949   0.83700   0.00000  Uiso   1.00
C1217  C     0.89561   0.95743   0.88302   0.00000  Uiso   1.00
C1218  C     0.84707   0.97248   0.90405   0.00000  Uiso   1.00
C1219  C     0.79893   0.95180   0.87720   0.00000  Uiso   1.00
C1220  C     0.79981   0.91470   0.83069   0.00000  Uiso   1.00
C1221  C     0.85739   0.79374   0.93946   0.00000  Uiso   1.00
C1222  C     0.75805   0.88720   0.54576   0.00000  Uiso   1.00
C1223  C     0.90864   0.77952   0.95423   0.00000  Uiso   1.00
C1224  C     0.68826   0.98521   0.74860   0.00000  Uiso   1.00
C1225  C     0.97841   0.68146   0.75140   0.00000  Uiso   1.00
C1226  C     0.68732   0.83726   0.84122   0.00000  Uiso   1.00
H1227  H     0.73374   0.91128   0.57377   0.00000  Uiso   1.00
H1228  H     0.84617   0.77971   0.89998   0.00000  Uiso   1.00
H1229  H     0.72963   0.66724   0.74556   0.00000  Uiso   1.00
H1230  H     0.93704   0.99942   0.75444   0.00000  Uiso   1.00
H1231  H     0.73171   0.75098   0.67461   0.00000  Uiso   1.00
H1232  H     0.73272   0.69098   0.59793   0.00000  Uiso   1.00
H1233  H     0.81994   0.99839   0.56032   0.00000  Uiso   1.00
H1234  H     0.90639   0.70109   0.60822   0.00000  Uiso   1.00
H1235  H     0.90558   0.75805   0.68473   0.00000  Uiso   1.00
H1236  H     0.93496   0.91569   0.82538   0.00000  Uiso   1.00
H1237  H     0.93395   0.97570   0.90207   0.00000  Uiso   1.00
H1238  H     0.93295   0.75545   0.92622   0.00000  Uiso   1.00
H1239  H     0.84673   0.66830   0.93968   0.00000  Uiso   1.00
H1240  H     0.76028   0.96558   0.89178   0.00000  Uiso   1.00
H1241  H     0.76108   0.90862   0.81527   0.00000  Uiso   1.00
H1242  H     0.89841   0.87042   0.61859   0.00000  Uiso   1.00
H1243  H     0.76825   0.79624   0.88142   0.00000  Uiso   1.00
H1244  H     0.70426   0.77823   0.57958   0.00000  Uiso   1.00
H1245  H     0.96242   0.88846   0.92041   0.00000  Uiso   1.00
H1246  H     0.99574   0.91186   0.50901   0.00000  Uiso   1.00
H1247  H     0.67095   0.75485   0.99098   0.00000  Uiso   1.00
H1248  H     0.82052   0.88702   0.60001   0.00000  Uiso   1.00
N1249  N     0.81362   0.81883   0.73740   0.00000  Uiso   1.00
N1250  N     0.85305   0.84784   0.76261   0.00000  Uiso   1.00
O1251  O     0.96386   0.91298   0.75310   0.00000  Uiso   1.00
O1252  O     0.70281   0.75369   0.74691   0.00000  Uiso   1.00
O1253  O     0.72488   0.90368   0.74502   0.00000  Uiso   1.00
O1254  O     0.94178   0.76298   0.75498   0.00000  Uiso   1.00
O1255  O     0.96995   0.84063   0.82247   0.00000  Uiso   1.00
O1256  O     0.69672   0.82603   0.67753   0.00000  Uiso   1.00
O1257  O     0.73098   0.83134   0.81439   0.00000  Uiso   1.00
O1258  O     0.93569   0.83533   0.68561   0.00000  Uiso   1.00
Zn1259 Zn    0.93700   0.83954   0.75539   0.00000  Uiso   1.00
Zn1260 Zn    0.72967   0.82713   0.74461   0.00000  Uiso   1.00
loop_
_geom_bond_atom_site_label_1
_geom_bond_atom_site_label_2
_geom_bond_distance
_geom_bond_site_symmetry_2
_ccdc_geom_bond_type
C1     C34     1.408   .     S
C1     O63     1.307   .     A
C1     O201    1.317   1_455 S
C2     C4      1.467   .     S
C2     O68     1.321   .     A
C2     O136    1.332   .     S
C3     C9      1.400   .     A
C3     C36     1.467   .     S
C3     C7      1.395   .     A
C4     C8      1.395   .     A
C4     C10     1.400   .     A
C5     C14     1.407   .     A
C5     C7      1.394   .     A
C5     H826    1.084   1_455 S
C6     C8      1.394   .     A
C6     C15     1.407   .     A
C6     H757    1.084   1_554 S
C7     H195    1.080   1_455 S
C8     H124    1.080   .     S
C9     C11     1.403   .     A
C9     H53     1.074   .     S
C10    H52     1.074   .     S
C10    C13     1.403   .     A
C11    C16     1.430   .     A
C11    C14     1.418   .     A
C12    O64     1.307   .     A
C12    C35     1.408   .     S
C12    O132    1.317   .     S
C13    C17     1.430   .     A
C13    C15     1.418   .     A
C14    C662    1.389   .     S
C15    C663    1.389   1_554 S
C16    C31     1.419   .     A
C16    C647    1.425   .     S
C17    C23     1.419   .     A
C17    C646    1.425   1_554 S
C18    C24     1.422   .     A
C18    N59     1.509   .     S
C18    C19     1.429   .     A
C19    C20     1.401   .     A
C19    H41     1.034   .     S
C20    H42     1.084   .     S
C20    C21     1.375   .     A
C21    C22     1.375   .     A
C21    H463    1.083   1_545 S
C22    C24     1.402   .     A
C22    H44     1.084   .     S
C23    H58     1.075   .     S
C23    C32     1.387   .     A
C24    H45     1.009   .     S
C25    N60     1.509   .     S
C25    C26     1.429   .     A
C25    C30     1.422   .     A
C26    C27     1.401   .     A
C26    H46     1.034   .     S
C27    H47     1.084   .     S
C27    C28     1.375   .     A
C28    C29     1.375   .     A
C28    H259    1.083   .     S
C29    C30     1.402   .     A
C29    H50     1.084   .     S
C30    H51     1.009   .     S
C31    C33     1.387   .     A
C31    H38     1.075   .     S
C32    H37     1.084   .     S
C32    C644    1.389   1_554 S
C33    H48     1.084   .     S
C33    C645    1.389   .     S
C34    C385    1.321   1_455 S
C34    H249    1.088   .     S
C35    C524    1.321   1_545 S
C35    H460    1.088   1_545 S
C36    O67     1.321   .     A
C36    O205    1.332   1_455 S
H39    C454    1.088   1_545 S
H40    C245    1.088   .     S
H43    C231    1.083   .     S
H49    C448    1.083   1_545 S
H54    C148    1.080   1_455 S
H55    C77     1.080   .     S
H56    C705    1.084   1_554 S
H57    C776    1.084   1_455 S
N59    N60     1.265   .     D
N59    Zn70    2.087   .     S
N60    Zn69    2.087   .     S
O61    Zn69    2.002   .     S
O61    C71     1.317   .     S
O62    Zn70    2.002   .     S
O62    C152    1.317   1_455 S
O63    Zn70    1.983   .     S
O64    Zn69    1.983   .     S
O65    Zn69    1.966   .     S
O65    C106    1.332   .     S
O66    Zn70    1.966   .     S
O66    C142    1.332   1_455 S
O67    Zn70    1.892   .     S
O68    Zn69    1.892   .     S
C71    C104    1.408   .     S
C71    O133    1.307   .     A
C72    C74     1.467   .     S
C72    O138    1.321   .     A
C72    O206    1.332   .     S
C73    C79     1.400   .     A
C73    C106    1.467   .     S
C73    C77     1.395   .     A
C74    C78     1.395   .     A
C74    C80     1.400   .     A
C75    C84     1.407   .     A
C75    C77     1.394   .     A
C75    H686    1.084   .     S
C76    C78     1.394   .     A
C76    C85     1.407   .     A
C76    H827    1.084   1_554 S
C78    H194    1.080   .     S
C79    C81     1.403   .     A
C79    H123    1.074   .     S
C80    H122    1.074   .     S
C80    C83     1.403   .     A
C81    C86     1.430   .     A
C81    C84     1.418   .     A
C82    O134    1.307   .     A
C82    C105    1.408   .     S
C82    O202    1.317   .     S
C83    C87     1.430   .     A
C83    C85     1.418   .     A
C84    C732    1.389   .     S
C85    C733    1.389   1_554 S
C86    C101    1.419   .     A
C86    C717    1.425   .     S
C87    C93     1.419   .     A
C87    C716    1.425   1_554 S
C88    C94     1.422   .     A
C88    N129    1.509   .     S
C88    C89     1.429   .     A
C89    C90     1.401   .     A
C89    H111    1.034   .     S
C90    H112    1.084   .     S
C90    C91     1.375   .     A
C91    C92     1.375   .     A
C91    H533    1.083   1_545 S
C92    C94     1.402   .     A
C92    H114    1.084   .     S
C93    H128    1.075   .     S
C93    C102    1.387   .     A
C94    H115    1.009   .     S
C95    N130    1.509   .     S
C95    C96     1.429   .     A
C95    C100    1.422   .     A
C96    C97     1.401   .     A
C96    H116    1.034   .     S
C97    H117    1.084   .     S
C97    C98     1.375   .     A
C98    C99     1.375   .     A
C98    H329    1.083   .     S
C99    C100    1.402   .     A
C99    H120    1.084   .     S
C100   H121    1.009   .     S
C101   C103    1.387   .     A
C101   H108    1.075   .     S
C102   H107    1.084   .     S
C102   C714    1.389   1_554 S
C103   H118    1.084   .     S
C103   C715    1.389   .     S
C104   C245    1.321   .     S
C104   H319    1.088   .     S
C105   C594    1.321   1_545 S
C105   H530    1.088   1_545 S
C106   O137    1.321   .     A
H109   C524    1.088   1_545 S
H110   C315    1.088   .     S
H113   C301    1.083   .     S
H119   C518    1.083   1_545 S
H125   C147    1.080   .     S
H126   C775    1.084   1_554 S
H127   C636    1.084   .     S
N129   N130    1.265   .     D
N129   Zn140   2.087   .     S
N130   Zn139   2.087   .     S
O131   Zn139   2.002   .     S
O131   C141    1.317   .     S
O132   Zn140   2.002   .     S
O133   Zn140   1.983   .     S
O134   Zn139   1.983   .     S
O135   Zn139   1.966   .     S
O135   C176    1.332   .     S
O136   Zn140   1.966   .     S
O137   Zn140   1.892   .     S
O138   Zn139   1.892   .     S
C141   C174    1.408   .     S
C141   O203    1.307   .     A
C142   C144    1.467   .     S
C142   O208    1.321   .     A
C142   O66     1.332   1_655 S
C143   C149    1.400   .     A
C143   C176    1.467   .     S
C143   C147    1.395   .     A
C144   C148    1.395   .     A
C144   C150    1.400   .     A
C145   C154    1.407   .     A
C145   C147    1.394   .     A
C145   H756    1.084   .     S
C146   C148    1.394   .     A
C146   C155    1.407   .     A
C146   H687    1.084   1_654 S
C148   H54     1.080   1_655 S
C149   C151    1.403   .     A
C149   H193    1.074   .     S
C150   H192    1.074   .     S
C150   C153    1.403   .     A
C151   C156    1.430   .     A
C151   C154    1.418   .     A
C152   O204    1.307   .     A
C152   C175    1.408   .     S
C152   O62     1.317   1_655 S
C153   C157    1.430   .     A
C153   C155    1.418   .     A
C154   C802    1.389   .     S
C155   C803    1.389   1_554 S
C156   C171    1.419   .     A
C156   C787    1.425   .     S
C157   C163    1.419   .     A
C157   C786    1.425   1_554 S
C158   C164    1.422   .     A
C158   N199    1.509   .     S
C158   C159    1.429   .     A
C159   C160    1.401   .     A
C159   H181    1.034   .     S
C160   H182    1.084   .     S
C160   C161    1.375   .     A
C161   C162    1.375   .     A
C161   H603    1.083   1_545 S
C162   C164    1.402   .     A
C162   H184    1.084   .     S
C163   H198    1.075   .     S
C163   C172    1.387   .     A
C164   H185    1.009   .     S
C165   N200    1.509   .     S
C165   C166    1.429   .     A
C165   C170    1.422   .     A
C166   C167    1.401   .     A
C166   H186    1.034   .     S
C167   H187    1.084   .     S
C167   C168    1.375   .     A
C168   C169    1.375   .     A
C168   H399    1.083   .     S
C169   C170    1.402   .     A
C169   H190    1.084   .     S
C170   H191    1.009   .     S
C171   C173    1.387   .     A
C171   H178    1.075   .     S
C172   H177    1.084   .     S
C172   C784    1.389   1_554 S
C173   H188    1.084   .     S
C173   C785    1.389   .     S
C174   C315    1.321   .     S
C174   H389    1.088   .     S
C175   C454    1.321   1_645 S
C175   H600    1.088   1_545 S
C176   O207    1.321   .     A
H179   C594    1.088   1_545 S
H180   C385    1.088   .     S
H183   C371    1.083   .     S
H189   C588    1.083   1_545 S
H195   C7      1.080   1_655 S
H196   C635    1.084   1_654 S
H197   C706    1.084   .     S
N199   N200    1.265   .     D
N199   Zn210   2.087   .     S
N200   Zn209   2.087   .     S
O201   Zn209   2.002   .     S
O201   C1      1.317   1_655 S
O202   Zn210   2.002   .     S
O203   Zn210   1.983   .     S
O204   Zn209   1.983   .     S
O205   Zn209   1.966   .     S
O205   C36     1.332   1_655 S
O206   Zn210   1.966   .     S
O207   Zn210   1.892   .     S
O208   Zn209   1.892   .     S
C211   C244    1.408   .     S
C211   O273    1.307   .     A
C211   O411    1.317   1_455 S
C212   C214    1.467   .     S
C212   O278    1.321   .     A
C212   O346    1.332   .     S
C213   C219    1.400   .     A
C213   C246    1.467   .     S
C213   C217    1.395   .     A
C214   C218    1.395   .     A
C214   C220    1.400   .     A
C215   C224    1.407   .     A
C215   C217    1.394   .     A
C215   H1036   1.084   1_455 S
C216   C218    1.394   .     A
C216   C225    1.407   .     A
C216   H967    1.084   1_554 S
C217   H405    1.080   1_455 S
C218   H334    1.080   .     S
C219   C221    1.403   .     A
C219   H263    1.074   .     S
C220   H262    1.074   .     S
C220   C223    1.403   .     A
C221   C226    1.430   .     A
C221   C224    1.418   .     A
C222   O274    1.307   .     A
C222   C245    1.408   .     S
C222   O342    1.317   .     S
C223   C227    1.430   .     A
C223   C225    1.418   .     A
C224   C872    1.389   .     S
C225   C873    1.389   1_554 S
C226   C241    1.419   .     A
C226   C857    1.425   .     S
C227   C233    1.419   .     A
C227   C856    1.425   1_554 S
C228   C234    1.422   .     A
C228   N269    1.509   .     S
C228   C229    1.429   .     A
C229   C230    1.401   .     A
C229   H251    1.034   .     S
C230   H252    1.084   .     S
C230   C231    1.375   .     A
C231   C232    1.375   .     A
C232   C234    1.402   .     A
C232   H254    1.084   .     S
C233   H268    1.075   .     S
C233   C242    1.387   .     A
C234   H255    1.009   .     S
C235   N270    1.509   .     S
C235   C236    1.429   .     A
C235   C240    1.422   .     A
C236   C237    1.401   .     A
C236   H256    1.034   .     S
C237   H257    1.084   .     S
C237   C238    1.375   .     A
C238   C239    1.375   .     A
C238   H469    1.083   .     S
C239   C240    1.402   .     A
C239   H260    1.084   .     S
C240   H261    1.009   .     S
C241   C243    1.387   .     A
C241   H248    1.075   .     S
C242   H247    1.084   .     S
C242   C854    1.389   1_554 S
C243   H258    1.084   .     S
C243   C855    1.389   .     S
C244   C595    1.321   1_455 S
C244   H459    1.088   .     S
C246   O277    1.321   .     A
C246   O415    1.332   1_455 S
H250   C455    1.088   .     S
H253   C441    1.083   .     S
H264   C358    1.080   1_455 S
H265   C287    1.080   .     S
H266   C915    1.084   1_554 S
H267   C986    1.084   1_455 S
N269   N270    1.265   .     D
N269   Zn280   2.087   .     S
N270   Zn279   2.087   .     S
O271   Zn279   2.002   .     S
O271   C281    1.317   .     S
O272   Zn280   2.002   .     S
O272   C362    1.317   1_455 S
O273   Zn280   1.983   .     S
O274   Zn279   1.983   .     S
O275   Zn279   1.966   .     S
O275   C316    1.332   .     S
O276   Zn280   1.966   .     S
O276   C352    1.332   1_455 S
O277   Zn280   1.892   .     S
O278   Zn279   1.892   .     S
C281   C314    1.408   .     S
C281   O343    1.307   .     A
C282   C284    1.467   .     S
C282   O348    1.321   .     A
C282   O416    1.332   .     S
C283   C289    1.400   .     A
C283   C316    1.467   .     S
C283   C287    1.395   .     A
C284   C288    1.395   .     A
C284   C290    1.400   .     A
C285   C294    1.407   .     A
C285   C287    1.394   .     A
C285   H896    1.084   .     S
C286   C288    1.394   .     A
C286   C295    1.407   .     A
C286   H1037   1.084   1_554 S
C288   H404    1.080   .     S
C289   C291    1.403   .     A
C289   H333    1.074   .     S
C290   H332    1.074   .     S
C290   C293    1.403   .     A
C291   C296    1.430   .     A
C291   C294    1.418   .     A
C292   O344    1.307   .     A
C292   C315    1.408   .     S
C292   O412    1.317   .     S
C293   C297    1.430   .     A
C293   C295    1.418   .     A
C294   C942    1.389   .     S
C295   C943    1.389   1_554 S
C296   C311    1.419   .     A
C296   C927    1.425   .     S
C297   C303    1.419   .     A
C297   C926    1.425   1_554 S
C298   C304    1.422   .     A
C298   N339    1.509   .     S
C298   C299    1.429   .     A
C299   C300    1.401   .     A
C299   H321    1.034   .     S
C300   H322    1.084   .     S
C300   C301    1.375   .     A
C301   C302    1.375   .     A
C302   C304    1.402   .     A
C302   H324    1.084   .     S
C303   H338    1.075   .     S
C303   C312    1.387   .     A
C304   H325    1.009   .     S
C305   N340    1.509   .     S
C305   C306    1.429   .     A
C305   C310    1.422   .     A
C306   C307    1.401   .     A
C306   H326    1.034   .     S
C307   H327    1.084   .     S
C307   C308    1.375   .     A
C308   C309    1.375   .     A
C308   H539    1.083   .     S
C309   C310    1.402   .     A
C309   H330    1.084   .     S
C310   H331    1.009   .     S
C311   C313    1.387   .     A
C311   H318    1.075   .     S
C312   H317    1.084   .     S
C312   C924    1.389   1_554 S
C313   H328    1.084   .     S
C313   C925    1.389   .     S
C314   C455    1.321   .     S
C314   H529    1.088   .     S
C316   O347    1.321   .     A
H320   C525    1.088   .     S
H323   C511    1.083   .     S
H335   C357    1.080   .     S
H336   C985    1.084   1_554 S
H337   C846    1.084   .     S
N339   N340    1.265   .     D
N339   Zn350   2.087   .     S
N340   Zn349   2.087   .     S
O341   Zn349   2.002   .     S
O341   C351    1.317   .     S
O342   Zn350   2.002   .     S
O343   Zn350   1.983   .     S
O344   Zn349   1.983   .     S
O345   Zn349   1.966   .     S
O345   C386    1.332   .     S
O346   Zn350   1.966   .     S
O347   Zn350   1.892   .     S
O348   Zn349   1.892   .     S
C351   C384    1.408   .     S
C351   O413    1.307   .     A
C352   C354    1.467   .     S
C352   O418    1.321   .     A
C352   O276    1.332   1_655 S
C353   C359    1.400   .     A
C353   C386    1.467   .     S
C353   C357    1.395   .     A
C354   C358    1.395   .     A
C354   C360    1.400   .     A
C355   C364    1.407   .     A
C355   C357    1.394   .     A
C355   H966    1.084   .     S
C356   C358    1.394   .     A
C356   C365    1.407   .     A
C356   H897    1.084   1_654 S
C358   H264    1.080   1_655 S
C359   C361    1.403   .     A
C359   H403    1.074   .     S
C360   H402    1.074   .     S
C360   C363    1.403   .     A
C361   C366    1.430   .     A
C361   C364    1.418   .     A
C362   O414    1.307   .     A
C362   C385    1.408   .     S
C362   O272    1.317   1_655 S
C363   C367    1.430   .     A
C363   C365    1.418   .     A
C364   C1012   1.389   .     S
C365   C1013   1.389   1_554 S
C366   C381    1.419   .     A
C366   C997    1.425   .     S
C367   C373    1.419   .     A
C367   C996    1.425   1_554 S
C368   C374    1.422   .     A
C368   N409    1.509   .     S
C368   C369    1.429   .     A
C369   C370    1.401   .     A
C369   H391    1.034   .     S
C370   H392    1.084   .     S
C370   C371    1.375   .     A
C371   C372    1.375   .     A
C372   C374    1.402   .     A
C372   H394    1.084   .     S
C373   H408    1.075   .     S
C373   C382    1.387   .     A
C374   H395    1.009   .     S
C375   N410    1.509   .     S
C375   C376    1.429   .     A
C375   C380    1.422   .     A
C376   C377    1.401   .     A
C376   H396    1.034   .     S
C377   H397    1.084   .     S
C377   C378    1.375   .     A
C378   C379    1.375   .     A
C378   H609    1.083   .     S
C379   C380    1.402   .     A
C379   H400    1.084   .     S
C380   H401    1.009   .     S
C381   C383    1.387   .     A
C381   H388    1.075   .     S
C382   H387    1.084   .     S
C382   C994    1.389   1_554 S
C383   H398    1.084   .     S
C383   C995    1.389   .     S
C384   C525    1.321   .     S
C384   H599    1.088   .     S
C385   C34     1.321   1_655 S
C386   O417    1.321   .     A
H390   C595    1.088   .     S
H393   C581    1.083   .     S
H405   C217    1.080   1_655 S
H406   C845    1.084   1_654 S
H407   C916    1.084   .     S
N409   N410    1.265   .     D
N409   Zn420   2.087   .     S
N410   Zn419   2.087   .     S
O411   Zn419   2.002   .     S
O411   C211    1.317   1_655 S
O412   Zn420   2.002   .     S
O413   Zn420   1.983   .     S
O414   Zn419   1.983   .     S
O415   Zn419   1.966   .     S
O415   C246    1.332   1_655 S
O416   Zn420   1.966   .     S
O417   Zn420   1.892   .     S
O418   Zn419   1.892   .     S
C421   C454    1.408   .     S
C421   O483    1.307   .     A
C421   O621    1.317   1_455 S
C422   C424    1.467   .     S
C422   O488    1.321   .     A
C422   O556    1.332   .     S
C423   C429    1.400   .     A
C423   C456    1.467   .     S
C423   C427    1.395   .     A
C424   C428    1.395   .     A
C424   C430    1.400   .     A
C425   C434    1.407   .     A
C425   C427    1.394   .     A
C425   H1246   1.084   1_455 S
C426   C428    1.394   .     A
C426   C435    1.407   .     A
C426   H1177   1.084   1_554 S
C427   H615    1.080   1_455 S
C428   H544    1.080   .     S
C429   C431    1.403   .     A
C429   H473    1.074   .     S
C430   H472    1.074   .     S
C430   C433    1.403   .     A
C431   C436    1.430   .     A
C431   C434    1.418   .     A
C432   O484    1.307   .     A
C432   C455    1.408   .     S
C432   O552    1.317   .     S
C433   C437    1.430   .     A
C433   C435    1.418   .     A
C434   C1082   1.389   .     S
C435   C1083   1.389   1_554 S
C436   C451    1.419   .     A
C436   C1067   1.425   .     S
C437   C443    1.419   .     A
C437   C1066   1.425   1_554 S
C438   C444    1.422   .     A
C438   N479    1.509   .     S
C438   C439    1.429   .     A
C439   C440    1.401   .     A
C439   H461    1.034   .     S
C440   H462    1.084   .     S
C440   C441    1.375   .     A
C441   C442    1.375   .     A
C442   C444    1.402   .     A
C442   H464    1.084   .     S
C443   H478    1.075   .     S
C443   C452    1.387   .     A
C444   H465    1.009   .     S
C445   N480    1.509   .     S
C445   C446    1.429   .     A
C445   C450    1.422   .     A
C446   C447    1.401   .     A
C446   H466    1.034   .     S
C447   H467    1.084   .     S
C447   C448    1.375   .     A
C448   C449    1.375   .     A
C448   H49     1.083   1_565 S
C449   C450    1.402   .     A
C449   H470    1.084   .     S
C450   H471    1.009   .     S
C451   C453    1.387   .     A
C451   H458    1.075   .     S
C452   H457    1.084   .     S
C452   C1064   1.389   1_554 S
C453   H468    1.084   .     S
C453   C1065   1.389   .     S
C454   C175    1.321   1_465 S
C454   H39     1.088   1_565 S
C456   O487    1.321   .     A
C456   O625    1.332   1_455 S
H460   C35     1.088   1_565 S
H463   C21     1.083   1_565 S
H474   C568    1.080   1_455 S
H475   C497    1.080   .     S
H476   C1125   1.084   1_554 S
H477   C1196   1.084   1_455 S
N479   N480    1.265   .     D
N479   Zn490   2.087   .     S
N480   Zn489   2.087   .     S
O481   Zn489   2.002   .     S
O481   C491    1.317   .     S
O482   Zn490   2.002   .     S
O482   C572    1.317   1_455 S
O483   Zn490   1.983   .     S
O484   Zn489   1.983   .     S
O485   Zn489   1.966   .     S
O485   C526    1.332   .     S
O486   Zn490   1.966   .     S
O486   C562    1.332   1_455 S
O487   Zn490   1.892   .     S
O488   Zn489   1.892   .     S
C491   C524    1.408   .     S
C491   O553    1.307   .     A
C492   C494    1.467   .     S
C492   O558    1.321   .     A
C492   O626    1.332   .     S
C493   C499    1.400   .     A
C493   C526    1.467   .     S
C493   C497    1.395   .     A
C494   C498    1.395   .     A
C494   C500    1.400   .     A
C495   C504    1.407   .     A
C495   C497    1.394   .     A
C495   H1106   1.084   .     S
C496   C498    1.394   .     A
C496   C505    1.407   .     A
C496   H1247   1.084   1_554 S
C498   H614    1.080   .     S
C499   C501    1.403   .     A
C499   H543    1.074   .     S
C500   H542    1.074   .     S
C500   C503    1.403   .     A
C501   C506    1.430   .     A
C501   C504    1.418   .     A
C502   O554    1.307   .     A
C502   C525    1.408   .     S
C502   O622    1.317   .     S
C503   C507    1.430   .     A
C503   C505    1.418   .     A
C504   C1152   1.389   .     S
C505   C1153   1.389   1_554 S
C506   C521    1.419   .     A
C506   C1137   1.425   .     S
C507   C513    1.419   .     A
C507   C1136   1.425   1_554 S
C508   C514    1.422   .     A
C508   N549    1.509   .     S
C508   C509    1.429   .     A
C509   C510    1.401   .     A
C509   H531    1.034   .     S
C510   H532    1.084   .     S
C510   C511    1.375   .     A
C511   C512    1.375   .     A
C512   C514    1.402   .     A
C512   H534    1.084   .     S
C513   H548    1.075   .     S
C513   C522    1.387   .     A
C514   H535    1.009   .     S
C515   N550    1.509   .     S
C515   C516    1.429   .     A
C515   C520    1.422   .     A
C516   C517    1.401   .     A
C516   H536    1.034   .     S
C517   H537    1.084   .     S
C517   C518    1.375   .     A
C518   C519    1.375   .     A
C518   H119    1.083   1_565 S
C519   C520    1.402   .     A
C519   H540    1.084   .     S
C520   H541    1.009   .     S
C521   C523    1.387   .     A
C521   H528    1.075   .     S
C522   H527    1.084   .     S
C522   C1134   1.389   1_554 S
C523   H538    1.084   .     S
C523   C1135   1.389   .     S
C524   C35     1.321   1_565 S
C524   H109    1.088   1_565 S
C526   O557    1.321   .     A
H530   C105    1.088   1_565 S
H533   C91     1.083   1_565 S
H545   C567    1.080   .     S
H546   C1195   1.084   1_554 S
H547   C1056   1.084   .     S
N549   N550    1.265   .     D
N549   Zn560   2.087   .     S
N550   Zn559   2.087   .     S
O551   Zn559   2.002   .     S
O551   C561    1.317   .     S
O552   Zn560   2.002   .     S
O553   Zn560   1.983   .     S
O554   Zn559   1.983   .     S
O555   Zn559   1.966   .     S
O555   C596    1.332   .     S
O556   Zn560   1.966   .     S
O557   Zn560   1.892   .     S
O558   Zn559   1.892   .     S
C561   C594    1.408   .     S
C561   O623    1.307   .     A
C562   C564    1.467   .     S
C562   O628    1.321   .     A
C562   O486    1.332   1_655 S
C563   C569    1.400   .     A
C563   C596    1.467   .     S
C563   C567    1.395   .     A
C564   C568    1.395   .     A
C564   C570    1.400   .     A
C565   C574    1.407   .     A
C565   C567    1.394   .     A
C565   H1176   1.084   .     S
C566   C568    1.394   .     A
C566   C575    1.407   .     A
C566   H1107   1.084   1_654 S
C568   H474    1.080   1_655 S
C569   C571    1.403   .     A
C569   H613    1.074   .     S
C570   H612    1.074   .     S
C570   C573    1.403   .     A
C571   C576    1.430   .     A
C571   C574    1.418   .     A
C572   O624    1.307   .     A
C572   C595    1.408   .     S
C572   O482    1.317   1_655 S
C573   C577    1.430   .     A
C573   C575    1.418   .     A
C574   C1222   1.389   .     S
C575   C1223   1.389   1_554 S
C576   C591    1.419   .     A
C576   C1207   1.425   .     S
C577   C583    1.419   .     A
C577   C1206   1.425   1_554 S
C578   C584    1.422   .     A
C578   N619    1.509   .     S
C578   C579    1.429   .     A
C579   C580    1.401   .     A
C579   H601    1.034   .     S
C580   H602    1.084   .     S
C580   C581    1.375   .     A
C581   C582    1.375   .     A
C582   C584    1.402   .     A
C582   H604    1.084   .     S
C583   H618    1.075   .     S
C583   C592    1.387   .     A
C584   H605    1.009   .     S
C585   N620    1.509   .     S
C585   C586    1.429   .     A
C585   C590    1.422   .     A
C586   C587    1.401   .     A
C586   H606    1.034   .     S
C587   H607    1.084   .     S
C587   C588    1.375   .     A
C588   C589    1.375   .     A
C588   H189    1.083   1_565 S
C589   C590    1.402   .     A
C589   H610    1.084   .     S
C590   H611    1.009   .     S
C591   C593    1.387   .     A
C591   H598    1.075   .     S
C592   H597    1.084   .     S
C592   C1204   1.389   1_554 S
C593   H608    1.084   .     S
C593   C1205   1.389   .     S
C594   C105    1.321   1_565 S
C594   H179    1.088   1_565 S
C595   C244    1.321   1_655 S
C596   O627    1.321   .     A
H600   C175    1.088   1_565 S
H603   C161    1.083   1_565 S
H615   C427    1.080   1_655 S
H616   C1055   1.084   1_654 S
H617   C1126   1.084   .     S
N619   N620    1.265   .     D
N619   Zn630   2.087   .     S
N620   Zn629   2.087   .     S
O621   Zn629   2.002   .     S
O621   C421    1.317   1_655 S
O622   Zn630   2.002   .     S
O623   Zn630   1.983   .     S
O624   Zn629   1.983   .     S
O625   Zn629   1.966   .     S
O625   C456    1.332   1_655 S
O626   Zn630   1.966   .     S
O627   Zn630   1.892   .     S
O628   Zn629   1.892   .     S
C631   C664    1.408   .     S
C631   O693    1.307   .     A
C631   O831    1.317   1_455 S
C632   C634    1.467   .     S
C632   O698    1.321   .     A
C632   O766    1.332   .     S
C633   C639    1.400   .     A
C633   C666    1.467   .     S
C633   C637    1.395   .     A
C634   C638    1.395   .     A
C634   C640    1.400   .     A
C635   C644    1.407   .     A
C635   C637    1.394   .     A
C635   H196    1.084   1_456 S
C636   C638    1.394   .     A
C636   C645    1.407   .     A
C637   H825    1.080   1_455 S
C638   H754    1.080   .     S
C639   C641    1.403   .     A
C639   H683    1.074   .     S
C640   H682    1.074   .     S
C640   C643    1.403   .     A
C641   C646    1.430   .     A
C641   C644    1.418   .     A
C642   O694    1.307   .     A
C642   C665    1.408   .     S
C642   O762    1.317   .     S
C643   C647    1.430   .     A
C643   C645    1.418   .     A
C644   C32     1.389   1_556 S
C646   C661    1.419   .     A
C646   C17     1.425   1_556 S
C647   C653    1.419   .     A
C648   C654    1.422   .     A
C648   N689    1.509   .     S
C648   C649    1.429   .     A
C649   C650    1.401   .     A
C649   H671    1.034   .     S
C650   H672    1.084   .     S
C650   C651    1.375   .     A
C651   C652    1.375   .     A
C651   H1093   1.083   1_545 S
C652   C654    1.402   .     A
C652   H674    1.084   .     S
C653   H688    1.075   .     S
C653   C662    1.387   .     A
C654   H675    1.009   .     S
C655   N690    1.509   .     S
C655   C656    1.429   .     A
C655   C660    1.422   .     A
C656   C657    1.401   .     A
C656   H676    1.034   .     S
C657   H677    1.084   .     S
C657   C658    1.375   .     A
C658   C659    1.375   .     A
C658   H889    1.083   .     S
C659   C660    1.402   .     A
C659   H680    1.084   .     S
C660   H681    1.009   .     S
C661   C663    1.387   .     A
C661   H668    1.075   .     S
C662   H667    1.084   .     S
C663   H678    1.084   .     S
C663   C15     1.389   1_556 S
C664   C1015   1.321   1_455 S
C664   H879    1.088   .     S
C665   C1154   1.321   1_545 S
C665   H1090   1.088   1_545 S
C666   O697    1.321   .     A
C666   O835    1.332   1_455 S
H669   C1084   1.088   1_545 S
H670   C875    1.088   .     S
H673   C861    1.083   .     S
H679   C1078   1.083   1_545 S
H684   C778    1.080   1_455 S
H685   C707    1.080   .     S
H687   C146    1.084   1_456 S
N689   N690    1.265   .     D
N689   Zn700   2.087   .     S
N690   Zn699   2.087   .     S
O691   Zn699   2.002   .     S
O691   C701    1.317   .     S
O692   Zn700   2.002   .     S
O692   C782    1.317   1_455 S
O693   Zn700   1.983   .     S
O694   Zn699   1.983   .     S
O695   Zn699   1.966   .     S
O695   C736    1.332   .     S
O696   Zn700   1.966   .     S
O696   C772    1.332   1_455 S
O697   Zn700   1.892   .     S
O698   Zn699   1.892   .     S
C701   C734    1.408   .     S
C701   O763    1.307   .     A
C702   C704    1.467   .     S
C702   O768    1.321   .     A
C702   O836    1.332   .     S
C703   C709    1.400   .     A
C703   C736    1.467   .     S
C703   C707    1.395   .     A
C704   C708    1.395   .     A
C704   C710    1.400   .     A
C705   C714    1.407   .     A
C705   C707    1.394   .     A
C705   H56     1.084   1_556 S
C706   C708    1.394   .     A
C706   C715    1.407   .     A
C708   H824    1.080   .     S
C709   C711    1.403   .     A
C709   H753    1.074   .     S
C710   H752    1.074   .     S
C710   C713    1.403   .     A
C711   C716    1.430   .     A
C711   C714    1.418   .     A
C712   O764    1.307   .     A
C712   C735    1.408   .     S
C712   O832    1.317   .     S
C713   C717    1.430   .     A
C713   C715    1.418   .     A
C714   C102    1.389   1_556 S
C716   C731    1.419   .     A
C716   C87     1.425   1_556 S
C717   C723    1.419   .     A
C718   C724    1.422   .     A
C718   N759    1.509   .     S
C718   C719    1.429   .     A
C719   C720    1.401   .     A
C719   H741    1.034   .     S
C720   H742    1.084   .     S
C720   C721    1.375   .     A
C721   C722    1.375   .     A
C721   H1163   1.083   1_545 S
C722   C724    1.402   .     A
C722   H744    1.084   .     S
C723   H758    1.075   .     S
C723   C732    1.387   .     A
C724   H745    1.009   .     S
C725   N760    1.509   .     S
C725   C726    1.429   .     A
C725   C730    1.422   .     A
C726   C727    1.401   .     A
C726   H746    1.034   .     S
C727   H747    1.084   .     S
C727   C728    1.375   .     A
C728   C729    1.375   .     A
C728   H959    1.083   .     S
C729   C730    1.402   .     A
C729   H750    1.084   .     S
C730   H751    1.009   .     S
C731   C733    1.387   .     A
C731   H738    1.075   .     S
C732   H737    1.084   .     S
C733   H748    1.084   .     S
C733   C85     1.389   1_556 S
C734   C875    1.321   .     S
C734   H949    1.088   .     S
C735   C1224   1.321   1_545 S
C735   H1160   1.088   1_545 S
C736   O767    1.321   .     A
H739   C1154   1.088   1_545 S
H740   C945    1.088   .     S
H743   C931    1.083   .     S
H749   C1148   1.083   1_545 S
H755   C777    1.080   .     S
H757   C6      1.084   1_556 S
N759   N760    1.265   .     D
N759   Zn770   2.087   .     S
N760   Zn769   2.087   .     S
O761   Zn769   2.002   .     S
O761   C771    1.317   .     S
O762   Zn770   2.002   .     S
O763   Zn770   1.983   .     S
O764   Zn769   1.983   .     S
O765   Zn769   1.966   .     S
O765   C806    1.332   .     S
O766   Zn770   1.966   .     S
O767   Zn770   1.892   .     S
O768   Zn769   1.892   .     S
C771   C804    1.408   .     S
C771   O833    1.307   .     A
C772   C774    1.467   .     S
C772   O838    1.321   .     A
C772   O696    1.332   1_655 S
C773   C779    1.400   .     A
C773   C806    1.467   .     S
C773   C777    1.395   .     A
C774   C778    1.395   .     A
C774   C780    1.400   .     A
C775   C784    1.407   .     A
C775   C777    1.394   .     A
C775   H126    1.084   1_556 S
C776   C778    1.394   .     A
C776   C785    1.407   .     A
C776   H57     1.084   1_655 S
C778   H684    1.080   1_655 S
C779   C781    1.403   .     A
C779   H823    1.074   .     S
C780   H822    1.074   .     S
C780   C783    1.403   .     A
C781   C786    1.430   .     A
C781   C784    1.418   .     A
C782   O834    1.307   .     A
C782   C805    1.408   .     S
C782   O692    1.317   1_655 S
C783   C787    1.430   .     A
C783   C785    1.418   .     A
C784   C172    1.389   1_556 S
C786   C801    1.419   .     A
C786   C157    1.425   1_556 S
C787   C793    1.419   .     A
C788   C794    1.422   .     A
C788   N829    1.509   .     S
C788   C789    1.429   .     A
C789   C790    1.401   .     A
C789   H811    1.034   .     S
C790   H812    1.084   .     S
C790   C791    1.375   .     A
C791   C792    1.375   .     A
C791   H1233   1.083   1_545 S
C792   C794    1.402   .     A
C792   H814    1.084   .     S
C793   H828    1.075   .     S
C793   C802    1.387   .     A
C794   H815    1.009   .     S
C795   N830    1.509   .     S
C795   C796    1.429   .     A
C795   C800    1.422   .     A
C796   C797    1.401   .     A
C796   H816    1.034   .     S
C797   H817    1.084   .     S
C797   C798    1.375   .     A
C798   C799    1.375   .     A
C798   H1029   1.083   .     S
C799   C800    1.402   .     A
C799   H820    1.084   .     S
C800   H821    1.009   .     S
C801   C803    1.387   .     A
C801   H808    1.075   .     S
C802   H807    1.084   .     S
C803   H818    1.084   .     S
C803   C155    1.389   1_556 S
C804   C945    1.321   .     S
C804   H1019   1.088   .     S
C805   C1084   1.321   1_645 S
C805   H1230   1.088   1_545 S
C806   O837    1.321   .     A
H809   C1224   1.088   1_545 S
H810   C1015   1.088   .     S
H813   C1001   1.083   .     S
H819   C1218   1.083   1_545 S
H825   C637    1.080   1_655 S
H826   C5      1.084   1_655 S
H827   C76     1.084   1_556 S
N829   N830    1.265   .     D
N829   Zn840   2.087   .     S
N830   Zn839   2.087   .     S
O831   Zn839   2.002   .     S
O831   C631    1.317   1_655 S
O832   Zn840   2.002   .     S
O833   Zn840   1.983   .     S
O834   Zn839   1.983   .     S
O835   Zn839   1.966   .     S
O835   C666    1.332   1_655 S
O836   Zn840   1.966   .     S
O837   Zn840   1.892   .     S
O838   Zn839   1.892   .     S
C841   C874    1.408   .     S
C841   O903    1.307   .     A
C841   O1041   1.317   1_455 S
C842   C844    1.467   .     S
C842   O908    1.321   .     A
C842   O976    1.332   .     S
C843   C849    1.400   .     A
C843   C876    1.467   .     S
C843   C847    1.395   .     A
C844   C848    1.395   .     A
C844   C850    1.400   .     A
C845   C854    1.407   .     A
C845   C847    1.394   .     A
C845   H406    1.084   1_456 S
C846   C848    1.394   .     A
C846   C855    1.407   .     A
C847   H1035   1.080   1_455 S
C848   H964    1.080   .     S
C849   C851    1.403   .     A
C849   H893    1.074   .     S
C850   H892    1.074   .     S
C850   C853    1.403   .     A
C851   C856    1.430   .     A
C851   C854    1.418   .     A
C852   O904    1.307   .     A
C852   C875    1.408   .     S
C852   O972    1.317   .     S
C853   C857    1.430   .     A
C853   C855    1.418   .     A
C854   C242    1.389   1_556 S
C856   C871    1.419   .     A
C856   C227    1.425   1_556 S
C857   C863    1.419   .     A
C858   C864    1.422   .     A
C858   N899    1.509   .     S
C858   C859    1.429   .     A
C859   C860    1.401   .     A
C859   H881    1.034   .     S
C860   H882    1.084   .     S
C860   C861    1.375   .     A
C861   C862    1.375   .     A
C862   C864    1.402   .     A
C862   H884    1.084   .     S
C863   H898    1.075   .     S
C863   C872    1.387   .     A
C864   H885    1.009   .     S
C865   N900    1.509   .     S
C865   C866    1.429   .     A
C865   C870    1.422   .     A
C866   C867    1.401   .     A
C866   H886    1.034   .     S
C867   H887    1.084   .     S
C867   C868    1.375   .     A
C868   C869    1.375   .     A
C868   H1099   1.083   .     S
C869   C870    1.402   .     A
C869   H890    1.084   .     S
C870   H891    1.009   .     S
C871   C873    1.387   .     A
C871   H878    1.075   .     S
C872   H877    1.084   .     S
C873   H888    1.084   .     S
C873   C225    1.389   1_556 S
C874   C1225   1.321   1_455 S
C874   H1089   1.088   .     S
C876   O907    1.321   .     A
C876   O1045   1.332   1_455 S
H880   C1085   1.088   .     S
H883   C1071   1.083   .     S
H894   C988    1.080   1_455 S
H895   C917    1.080   .     S
H897   C356    1.084   1_456 S
N899   N900    1.265   .     D
N899   Zn910   2.087   .     S
N900   Zn909   2.087   .     S
O901   Zn909   2.002   .     S
O901   C911    1.317   .     S
O902   Zn910   2.002   .     S
O902   C992    1.317   1_455 S
O903   Zn910   1.983   .     S
O904   Zn909   1.983   .     S
O905   Zn909   1.966   .     S
O905   C946    1.332   .     S
O906   Zn910   1.966   .     S
O906   C982    1.332   1_455 S
O907   Zn910   1.892   .     S
O908   Zn909   1.892   .     S
C911   C944    1.408   .     S
C911   O973    1.307   .     A
C912   C914    1.467   .     S
C912   O978    1.321   .     A
C912   O1046   1.332   .     S
C913   C919    1.400   .     A
C913   C946    1.467   .     S
C913   C917    1.395   .     A
C914   C918    1.395   .     A
C914   C920    1.400   .     A
C915   C924    1.407   .     A
C915   C917    1.394   .     A
C915   H266    1.084   1_556 S
C916   C918    1.394   .     A
C916   C925    1.407   .     A
C918   H1034   1.080   .     S
C919   C921    1.403   .     A
C919   H963    1.074   .     S
C920   H962    1.074   .     S
C920   C923    1.403   .     A
C921   C926    1.430   .     A
C921   C924    1.418   .     A
C922   O974    1.307   .     A
C922   C945    1.408   .     S
C922   O1042   1.317   .     S
C923   C927    1.430   .     A
C923   C925    1.418   .     A
C924   C312    1.389   1_556 S
C926   C941    1.419   .     A
C926   C297    1.425   1_556 S
C927   C933    1.419   .     A
C928   C934    1.422   .     A
C928   N969    1.509   .     S
C928   C929    1.429   .     A
C929   C930    1.401   .     A
C929   H951    1.034   .     S
C930   H952    1.084   .     S
C930   C931    1.375   .     A
C931   C932    1.375   .     A
C932   C934    1.402   .     A
C932   H954    1.084   .     S
C933   H968    1.075   .     S
C933   C942    1.387   .     A
C934   H955    1.009   .     S
C935   N970    1.509   .     S
C935   C936    1.429   .     A
C935   C940    1.422   .     A
C936   C937    1.401   .     A
C936   H956    1.034   .     S
C937   H957    1.084   .     S
C937   C938    1.375   .     A
C938   C939    1.375   .     A
C938   H1169   1.083   .     S
C939   C940    1.402   .     A
C939   H960    1.084   .     S
C940   H961    1.009   .     S
C941   C943    1.387   .     A
C941   H948    1.075   .     S
C942   H947    1.084   .     S
C943   H958    1.084   .     S
C943   C295    1.389   1_556 S
C944   C1085   1.321   .     S
C944   H1159   1.088   .     S
C946   O977    1.321   .     A
H950   C1155   1.088   .     S
H953   C1141   1.083   .     S
H965   C987    1.080   .     S
H967   C216    1.084   1_556 S
N969   N970    1.265   .     D
N969   Zn980   2.087   .     S
N970   Zn979   2.087   .     S
O971   Zn979   2.002   .     S
O971   C981    1.317   .     S
O972   Zn980   2.002   .     S
O973   Zn980   1.983   .     S
O974   Zn979   1.983   .     S
O975   Zn979   1.966   .     S
O975   C1016   1.332   .     S
O976   Zn980   1.966   .     S
O977   Zn980   1.892   .     S
O978   Zn979   1.892   .     S
C981   C1014   1.408   .     S
C981   O1043   1.307   .     A
C982   C984    1.467   .     S
C982   O1048   1.321   .     A
C982   O906    1.332   1_655 S
C983   C989    1.400   .     A
C983   C1016   1.467   .     S
C983   C987    1.395   .     A
C984   C988    1.395   .     A
C984   C990    1.400   .     A
C985   C994    1.407   .     A
C985   C987    1.394   .     A
C985   H336    1.084   1_556 S
C986   C988    1.394   .     A
C986   C995    1.407   .     A
C986   H267    1.084   1_655 S
C988   H894    1.080   1_655 S
C989   C991    1.403   .     A
C989   H1033   1.074   .     S
C990   H1032   1.074   .     S
C990   C993    1.403   .     A
C991   C996    1.430   .     A
C991   C994    1.418   .     A
C992   O1044   1.307   .     A
C992   C1015   1.408   .     S
C992   O902    1.317   1_655 S
C993   C997    1.430   .     A
C993   C995    1.418   .     A
C994   C382    1.389   1_556 S
C996   C1011   1.419   .     A
C996   C367    1.425   1_556 S
C997   C1003   1.419   .     A
C998   C1004   1.422   .     A
C998   N1039   1.509   .     S
C998   C999    1.429   .     A
C999   C1000   1.401   .     A
C999   H1021   1.034   .     S
C1000  H1022   1.084   .     S
C1000  C1001   1.375   .     A
C1001  C1002   1.375   .     A
C1002  C1004   1.402   .     A
C1002  H1024   1.084   .     S
C1003  H1038   1.075   .     S
C1003  C1012   1.387   .     A
C1004  H1025   1.009   .     S
C1005  N1040   1.509   .     S
C1005  C1006   1.429   .     A
C1005  C1010   1.422   .     A
C1006  C1007   1.401   .     A
C1006  H1026   1.034   .     S
C1007  H1027   1.084   .     S
C1007  C1008   1.375   .     A
C1008  C1009   1.375   .     A
C1008  H1239   1.083   .     S
C1009  C1010   1.402   .     A
C1009  H1030   1.084   .     S
C1010  H1031   1.009   .     S
C1011  C1013   1.387   .     A
C1011  H1018   1.075   .     S
C1012  H1017   1.084   .     S
C1013  H1028   1.084   .     S
C1013  C365    1.389   1_556 S
C1014  C1155   1.321   .     S
C1014  H1229   1.088   .     S
C1015  C664    1.321   1_655 S
C1016  O1047   1.321   .     A
H1020  C1225   1.088   .     S
H1023  C1211   1.083   .     S
H1035  C847    1.080   1_655 S
H1036  C215    1.084   1_655 S
H1037  C286    1.084   1_556 S
N1039  N1040   1.265   .     D
N1039  Zn1050  2.087   .     S
N1040  Zn1049  2.087   .     S
O1041  Zn1049  2.002   .     S
O1041  C841    1.317   1_655 S
O1042  Zn1050  2.002   .     S
O1043  Zn1050  1.983   .     S
O1044  Zn1049  1.983   .     S
O1045  Zn1049  1.966   .     S
O1045  C876    1.332   1_655 S
O1046  Zn1050  1.966   .     S
O1047  Zn1050  1.892   .     S
O1048  Zn1049  1.892   .     S
C1051  C1084   1.408   .     S
C1051  O1113   1.307   .     A
C1051  O1251   1.317   1_455 S
C1052  C1054   1.467   .     S
C1052  O1118   1.321   .     A
C1052  O1186   1.332   .     S
C1053  C1059   1.400   .     A
C1053  C1086   1.467   .     S
C1053  C1057   1.395   .     A
C1054  C1058   1.395   .     A
C1054  C1060   1.400   .     A
C1055  C1064   1.407   .     A
C1055  C1057   1.394   .     A
C1055  H616    1.084   1_456 S
C1056  C1058   1.394   .     A
C1056  C1065   1.407   .     A
C1057  H1245   1.080   1_455 S
C1058  H1174   1.080   .     S
C1059  C1061   1.403   .     A
C1059  H1103   1.074   .     S
C1060  H1102   1.074   .     S
C1060  C1063   1.403   .     A
C1061  C1066   1.430   .     A
C1061  C1064   1.418   .     A
C1062  O1114   1.307   .     A
C1062  C1085   1.408   .     S
C1062  O1182   1.317   .     S
C1063  C1067   1.430   .     A
C1063  C1065   1.418   .     A
C1064  C452    1.389   1_556 S
C1066  C1081   1.419   .     A
C1066  C437    1.425   1_556 S
C1067  C1073   1.419   .     A
C1068  C1074   1.422   .     A
C1068  N1109   1.509   .     S
C1068  C1069   1.429   .     A
C1069  C1070   1.401   .     A
C1069  H1091   1.034   .     S
C1070  H1092   1.084   .     S
C1070  C1071   1.375   .     A
C1071  C1072   1.375   .     A
C1072  C1074   1.402   .     A
C1072  H1094   1.084   .     S
C1073  H1108   1.075   .     S
C1073  C1082   1.387   .     A
C1074  H1095   1.009   .     S
C1075  N1110   1.509   .     S
C1075  C1076   1.429   .     A
C1075  C1080   1.422   .     A
C1076  C1077   1.401   .     A
C1076  H1096   1.034   .     S
C1077  H1097   1.084   .     S
C1077  C1078   1.375   .     A
C1078  C1079   1.375   .     A
C1078  H679    1.083   1_565 S
C1079  C1080   1.402   .     A
C1079  H1100   1.084   .     S
C1080  H1101   1.009   .     S
C1081  C1083   1.387   .     A
C1081  H1088   1.075   .     S
C1082  H1087   1.084   .     S
C1083  H1098   1.084   .     S
C1083  C435    1.389   1_556 S
C1084  C805    1.321   1_465 S
C1084  H669    1.088   1_565 S
C1086  O1117   1.321   .     A
C1086  O1255   1.332   1_455 S
H1090  C665    1.088   1_565 S
H1093  C651    1.083   1_565 S
H1104  C1198   1.080   1_455 S
H1105  C1127   1.080   .     S
H1107  C566    1.084   1_456 S
N1109  N1110   1.265   .     D
N1109  Zn1120  2.087   .     S
N1110  Zn1119  2.087   .     S
O1111  Zn1119  2.002   .     S
O1111  C1121   1.317   .     S
O1112  Zn1120  2.002   .     S
O1112  C1202   1.317   1_455 S
O1113  Zn1120  1.983   .     S
O1114  Zn1119  1.983   .     S
O1115  Zn1119  1.966   .     S
O1115  C1156   1.332   .     S
O1116  Zn1120  1.966   .     S
O1116  C1192   1.332   1_455 S
O1117  Zn1120  1.892   .     S
O1118  Zn1119  1.892   .     S
C1121  C1154   1.408   .     S
C1121  O1183   1.307   .     A
C1122  C1124   1.467   .     S
C1122  O1188   1.321   .     A
C1122  O1256   1.332   .     S
C1123  C1129   1.400   .     A
C1123  C1156   1.467   .     S
C1123  C1127   1.395   .     A
C1124  C1128   1.395   .     A
C1124  C1130   1.400   .     A
C1125  C1134   1.407   .     A
C1125  C1127   1.394   .     A
C1125  H476    1.084   1_556 S
C1126  C1128   1.394   .     A
C1126  C1135   1.407   .     A
C1128  H1244   1.080   .     S
C1129  C1131   1.403   .     A
C1129  H1173   1.074   .     S
C1130  H1172   1.074   .     S
C1130  C1133   1.403   .     A
C1131  C1136   1.430   .     A
C1131  C1134   1.418   .     A
C1132  O1184   1.307   .     A
C1132  C1155   1.408   .     S
C1132  O1252   1.317   .     S
C1133  C1137   1.430   .     A
C1133  C1135   1.418   .     A
C1134  C522    1.389   1_556 S
C1136  C1151   1.419   .     A
C1136  C507    1.425   1_556 S
C1137  C1143   1.419   .     A
C1138  C1144   1.422   .     A
C1138  N1179   1.509   .     S
C1138  C1139   1.429   .     A
C1139  C1140   1.401   .     A
C1139  H1161   1.034   .     S
C1140  H1162   1.084   .     S
C1140  C1141   1.375   .     A
C1141  C1142   1.375   .     A
C1142  C1144   1.402   .     A
C1142  H1164   1.084   .     S
C1143  H1178   1.075   .     S
C1143  C1152   1.387   .     A
C1144  H1165   1.009   .     S
C1145  N1180   1.509   .     S
C1145  C1146   1.429   .     A
C1145  C1150   1.422   .     A
C1146  C1147   1.401   .     A
C1146  H1166   1.034   .     S
C1147  H1167   1.084   .     S
C1147  C1148   1.375   .     A
C1148  C1149   1.375   .     A
C1148  H749    1.083   1_565 S
C1149  C1150   1.402   .     A
C1149  H1170   1.084   .     S
C1150  H1171   1.009   .     S
C1151  C1153   1.387   .     A
C1151  H1158   1.075   .     S
C1152  H1157   1.084   .     S
C1153  H1168   1.084   .     S
C1153  C505    1.389   1_556 S
C1154  C665    1.321   1_565 S
C1154  H739    1.088   1_565 S
C1156  O1187   1.321   .     A
H1160  C735    1.088   1_565 S
H1163  C721    1.083   1_565 S
H1175  C1197   1.080   .     S
H1177  C426    1.084   1_556 S
N1179  N1180   1.265   .     D
N1179  Zn1190  2.087   .     S
N1180  Zn1189  2.087   .     S
O1181  Zn1189  2.002   .     S
O1181  C1191   1.317   .     S
O1182  Zn1190  2.002   .     S
O1183  Zn1190  1.983   .     S
O1184  Zn1189  1.983   .     S
O1185  Zn1189  1.966   .     S
O1185  C1226   1.332   .     S
O1186  Zn1190  1.966   .     S
O1187  Zn1190  1.892   .     S
O1188  Zn1189  1.892   .     S
C1191  C1224   1.408   .     S
C1191  O1253   1.307   .     A
C1192  C1194   1.467   .     S
C1192  O1258   1.321   .     A
C1192  O1116   1.332   1_655 S
C1193  C1199   1.400   .     A
C1193  C1226   1.467   .     S
C1193  C1197   1.395   .     A
C1194  C1198   1.395   .     A
C1194  C1200   1.400   .     A
C1195  C1204   1.407   .     A
C1195  C1197   1.394   .     A
C1195  H546    1.084   1_556 S
C1196  C1198   1.394   .     A
C1196  C1205   1.407   .     A
C1196  H477    1.084   1_655 S
C1198  H1104   1.080   1_655 S
C1199  C1201   1.403   .     A
C1199  H1243   1.074   .     S
C1200  H1242   1.074   .     S
C1200  C1203   1.403   .     A
C1201  C1206   1.430   .     A
C1201  C1204   1.418   .     A
C1202  O1254   1.307   .     A
C1202  C1225   1.408   .     S
C1202  O1112   1.317   1_655 S
C1203  C1207   1.430   .     A
C1203  C1205   1.418   .     A
C1204  C592    1.389   1_556 S
C1206  C1221   1.419   .     A
C1206  C577    1.425   1_556 S
C1207  C1213   1.419   .     A
C1208  C1214   1.422   .     A
C1208  N1249   1.509   .     S
C1208  C1209   1.429   .     A
C1209  C1210   1.401   .     A
C1209  H1231   1.034   .     S
C1210  H1232   1.084   .     S
C1210  C1211   1.375   .     A
C1211  C1212   1.375   .     A
C1212  C1214   1.402   .     A
C1212  H1234   1.084   .     S
C1213  H1248   1.075   .     S
C1213  C1222   1.387   .     A
C1214  H1235   1.009   .     S
C1215  N1250   1.509   .     S
C1215  C1216   1.429   .     A
C1215  C1220   1.422   .     A
C1216  C1217   1.401   .     A
C1216  H1236   1.034   .     S
C1217  H1237   1.084   .     S
C1217  C1218   1.375   .     A
C1218  C1219   1.375   .     A
C1218  H819    1.083   1_565 S
C1219  C1220   1.402   .     A
C1219  H1240   1.084   .     S
C1220  H1241   1.009   .     S
C1221  C1223   1.387   .     A
C1221  H1228   1.075   .     S
C1222  H1227   1.084   .     S
C1223  H1238   1.084   .     S
C1223  C575    1.389   1_556 S
C1224  C735    1.321   1_565 S
C1224  H809    1.088   1_565 S
C1225  C874    1.321   1_655 S
C1226  O1257   1.321   .     A
H1230  C805    1.088   1_565 S
H1233  C791    1.083   1_565 S
H1245  C1057   1.080   1_655 S
H1246  C425    1.084   1_655 S
H1247  C496    1.084   1_556 S
N1249  N1250   1.265   .     D
N1249  Zn1260  2.087   .     S
N1250  Zn1259  2.087   .     S
O1251  Zn1259  2.002   .     S
O1251  C1051   1.317   1_655 S
O1252  Zn1260  2.002   .     S
O1253  Zn1260  1.983   .     S
O1254  Zn1259  1.983   .     S
O1255  Zn1259  1.966   .     S
O1255  C1086   1.332   1_655 S
O1256  Zn1260  1.966   .     S
O1257  Zn1260  1.892   .     S
O1258  Zn1259  1.892   .     S
