data_str_m3_o1_o16_pcu_sym.157
_audit_creation_date              2020-01-03
_audit_creation_method            'Materials Studio'
_symmetry_space_group_name_H-M    'P1'
_symmetry_Int_Tables_number       1
_symmetry_cell_setting            triclinic
loop_
_symmetry_equiv_pos_as_xyz
  x,y,z
_cell_length_a                    29.7546
_cell_length_b                    32.5063
_cell_length_c                    27.2334
_cell_angle_alpha                 90.4548
_cell_angle_beta                  74.8499
_cell_angle_gamma                 91.1617
loop_
_atom_site_label
_atom_site_type_symbol
_atom_site_fract_x
_atom_site_fract_y
_atom_site_fract_z
_atom_site_U_iso_or_equiv
_atom_site_adp_type
_atom_site_occupancy
C1     C     0.16889   0.24618   0.24291   0.00000  Uiso   1.00
C2     C     0.15031   0.14899   0.48527   0.00000  Uiso   1.00
C3     C     0.16419   0.15043   0.43211   0.00000  Uiso   1.00
C4     C     0.18315   0.16195   0.01253   0.00000  Uiso   1.00
C5     C     0.23113   0.16298   0.48645   0.00000  Uiso   1.00
C6     C     0.24441   0.14614   0.43705   0.00000  Uiso   1.00
C7     C     0.21033   0.13840   0.41071   0.00000  Uiso   1.00
C8     C     0.16994   0.17190   0.06486   0.00000  Uiso   1.00
C9     C     0.25099   0.18131   0.06525   0.00000  Uiso   1.00
C10    C     0.13057   0.14575   0.40398   0.00000  Uiso   1.00
C11    C     0.21255   0.31331   0.23410   0.00000  Uiso   1.00
C12    C     0.14219   0.16043   0.35000   0.00000  Uiso   1.00
C13    C     0.20680   0.02021   0.25213   0.00000  Uiso   1.00
C14    C     0.16462   0.04080   0.25521   0.00000  Uiso   1.00
C15    C     0.12454   0.01757   0.25149   0.00000  Uiso   1.00
C16    C     0.13108   0.31059   0.23269   0.00000  Uiso   1.00
C17    C     0.17204   0.29042   0.23342   0.00000  Uiso   1.00
C18    C     0.31439   0.13693   0.22482   0.00000  Uiso   1.00
C19    C     0.02795   0.13511   0.22840   0.00000  Uiso   1.00
C20    C     0.01906   0.19714   0.27421   0.00000  Uiso   1.00
C21    C     0.30416   0.19691   0.27475   0.00000  Uiso   1.00
C22    C     0.16539   0.08624   0.25362   0.00000  Uiso   1.00
C23    C     0.19131   0.16959   0.14904   0.00000  Uiso   1.00
C24    C     0.26412   0.17713   0.01205   0.00000  Uiso   1.00
C25    C     0.20417   0.17421   0.09254   0.00000  Uiso   1.00
C26    C     0.09245   0.11869   0.42483   0.00000  Uiso   1.00
C27    C     0.08229   0.10835   0.47684   0.00000  Uiso   1.00
C28    C     0.11159   0.12299   0.00686   0.00000  Uiso   1.00
N29    N     0.04760   0.16668   0.25001   0.00000  Uiso   1.00
N30    N     0.28573   0.16665   0.25000   0.00000  Uiso   1.00
O31    O     0.12846   0.22775   0.25000   0.00000  Uiso   1.00
O32    O     0.20490   0.22774   0.25000   0.00000  Uiso   1.00
O33    O     0.10947   0.16666   0.32681   0.00000  Uiso   1.00
O34    O     0.18591   0.16665   0.32681   0.00000  Uiso   1.00
O35    O     0.12843   0.10559   0.24999   0.00000  Uiso   1.00
O36    O     0.20488   0.10558   0.24999   0.00000  Uiso   1.00
O37    O     0.14742   0.16668   0.17319   0.00000  Uiso   1.00
O38    O     0.22387   0.16667   0.17319   0.00000  Uiso   1.00
Zn39   Zn    0.11562   0.16667   0.25000   0.00000  Uiso   1.00
Zn40   Zn    0.21771   0.16666   0.25000   0.00000  Uiso   1.00
N41    N     0.28433   0.19540   0.09104   0.00000  Uiso   1.00
H42    H     0.31746   0.18472   0.07606   0.00000  Uiso   1.00
C43    C     0.28471   0.23933   0.09852   0.00000  Uiso   1.00
H44    H     0.29486   0.25550   0.06134   0.00000  Uiso   1.00
H45    H     0.31075   0.24708   0.11977   0.00000  Uiso   1.00
H46    H     0.24981   0.24970   0.12039   0.00000  Uiso   1.00
C47    C     0.24218   0.03646   0.27481   0.00000  Uiso   1.00
N48    N     0.27152   0.04793   0.29250   0.00000  Uiso   1.00
N49    N     0.07835   0.03321   0.27046   0.00000  Uiso   1.00
H50    H     0.07631   0.06005   0.29069   0.00000  Uiso   1.00
C51    C     0.04144   0.00581   0.29778   0.00000  Uiso   1.00
H52    H     0.05498   0.31799   0.32176   0.00000  Uiso   1.00
H53    H     0.02465   0.32280   0.27134   0.00000  Uiso   1.00
H54    H     0.01351   0.02381   0.32363   0.00000  Uiso   1.00
N55    N     0.09937   0.29095   0.20830   0.00000  Uiso   1.00
H56    H     0.07093   0.27601   0.23122   0.00000  Uiso   1.00
C57    C     0.09087   0.31189   0.16514   0.00000  Uiso   1.00
H58    H     0.06613   0.00373   0.17839   0.00000  Uiso   1.00
H59    H     0.07536   0.28980   0.14264   0.00000  Uiso   1.00
H60    H     0.12397   0.32436   0.14019   0.00000  Uiso   1.00
N61    N     0.29665   0.10756   0.19552   0.00000  Uiso   1.00
H62    H     0.29890   0.07771   0.20595   0.00000  Uiso   1.00
C63    C     0.31287   0.11201   0.14105   0.00000  Uiso   1.00
H64    H     0.28248   0.11529   0.12515   0.00000  Uiso   1.00
H65    H     0.33119   0.08386   0.12395   0.00000  Uiso   1.00
H66    H     0.00377   0.13880   0.13007   0.00000  Uiso   1.00
N67    N     0.05132   0.09744   0.21781   0.00000  Uiso   1.00
H68    H     0.02998   0.07213   0.22943   0.00000  Uiso   1.00
C69    C     0.08152   0.09250   0.16771   0.00000  Uiso   1.00
H70    H     0.06614   0.06889   0.14720   0.00000  Uiso   1.00
H71    H     0.11576   0.08120   0.16995   0.00000  Uiso   1.00
H72    H     0.08675   0.12189   0.14681   0.00000  Uiso   1.00
C73    C     0.03587   0.22399   0.30811   0.00000  Uiso   1.00
N74    N     0.04906   0.24435   0.33664   0.00000  Uiso   1.00
C75    C     0.27376   0.22717   0.30449   0.00000  Uiso   1.00
N76    N     0.24973   0.25148   0.32875   0.00000  Uiso   1.00
N77    N     0.28931   0.12919   0.41865   0.00000  Uiso   1.00
H78    H     0.28963   0.09766   0.41413   0.00000  Uiso   1.00
C79    C     0.31969   0.15080   0.37673   0.00000  Uiso   1.00
H80    H     0.32472   0.13230   0.34136   0.00000  Uiso   1.00
H81    H     0.02054   0.15620   0.38455   0.00000  Uiso   1.00
H82    H     0.30542   0.18130   0.37221   0.00000  Uiso   1.00
C83    C     0.31046   0.19090   0.48451   0.00000  Uiso   1.00
N84    N     0.01417   0.20243   0.46352   0.00000  Uiso   1.00
C85    C     0.12304   0.18594   0.08748   0.00000  Uiso   1.00
N86    N     0.08571   0.19743   0.10526   0.00000  Uiso   1.00
N87    N     0.07245   0.09343   0.39260   0.00000  Uiso   1.00
H88    H     0.07237   0.10468   0.35757   0.00000  Uiso   1.00
C89    C     0.08323   0.04993   0.39131   0.00000  Uiso   1.00
H90    H     0.05063   0.03146   0.39636   0.00000  Uiso   1.00
H91    H     0.10016   0.04092   0.42131   0.00000  Uiso   1.00
H92    H     0.10803   0.04202   0.35481   0.00000  Uiso   1.00
N93    N     0.10996   0.10242   0.05295   0.00000  Uiso   1.00
H94    H     0.07656   0.09477   0.07263   0.00000  Uiso   1.00
C95    C     0.14182   0.06838   0.04729   0.00000  Uiso   1.00
H96    H     0.17838   0.07915   0.03160   0.00000  Uiso   1.00
H97    H     0.13335   0.04440   0.02167   0.00000  Uiso   1.00
H98    H     0.13939   0.05415   0.08469   0.00000  Uiso   1.00
N99    N     0.04746   0.07744   0.49610   0.00000  Uiso   1.00
H100   H     0.05620   0.05429   0.01729   0.00000  Uiso   1.00
C101   C     0.00110   0.09244   0.01618   0.00000  Uiso   1.00
H102   H     0.31153   0.06793   0.03833   0.00000  Uiso   1.00
H103   H     0.32014   0.10119   0.48466   0.00000  Uiso   1.00
H104   H     0.00169   0.11966   0.04057   0.00000  Uiso   1.00
N105   N     0.21813   0.10720   0.37281   0.00000  Uiso   1.00
H106   H     0.24942   0.10940   0.34574   0.00000  Uiso   1.00
C107   C     0.20428   0.06605   0.39221   0.00000  Uiso   1.00
H108   H     0.23539   0.04812   0.39319   0.00000  Uiso   1.00
H109   H     0.18537   0.05021   0.36733   0.00000  Uiso   1.00
H110   H     0.18067   0.06645   0.43127   0.00000  Uiso   1.00
N111   N     0.25852   0.29652   0.21627   0.00000  Uiso   1.00
H112   H     0.26000   0.26781   0.20017   0.00000  Uiso   1.00
C113   C     0.29465   0.32303   0.18503   0.00000  Uiso   1.00
H114   H     0.28001   0.01103   0.16174   0.00000  Uiso   1.00
H115   H     0.32163   0.30457   0.15892   0.00000  Uiso   1.00
H116   H     0.31325   0.00692   0.20911   0.00000  Uiso   1.00
C117   C     0.50223   0.24618   0.24291   0.00000  Uiso   1.00
C118   C     0.48364   0.14899   0.48527   0.00000  Uiso   1.00
C119   C     0.49753   0.15043   0.43211   0.00000  Uiso   1.00
C120   C     0.51649   0.16195   0.01253   0.00000  Uiso   1.00
C121   C     0.56446   0.16298   0.48645   0.00000  Uiso   1.00
C122   C     0.57774   0.14614   0.43705   0.00000  Uiso   1.00
C123   C     0.54367   0.13840   0.41071   0.00000  Uiso   1.00
C124   C     0.50327   0.17190   0.06486   0.00000  Uiso   1.00
C125   C     0.58433   0.18131   0.06525   0.00000  Uiso   1.00
C126   C     0.46391   0.14575   0.40398   0.00000  Uiso   1.00
C127   C     0.54589   0.31331   0.23410   0.00000  Uiso   1.00
C128   C     0.47552   0.16043   0.35000   0.00000  Uiso   1.00
C129   C     0.54013   0.02021   0.25213   0.00000  Uiso   1.00
C130   C     0.49795   0.04080   0.25521   0.00000  Uiso   1.00
C131   C     0.45788   0.01757   0.25149   0.00000  Uiso   1.00
C132   C     0.46441   0.31059   0.23269   0.00000  Uiso   1.00
C133   C     0.50538   0.29042   0.23342   0.00000  Uiso   1.00
C134   C     0.64772   0.13693   0.22482   0.00000  Uiso   1.00
C135   C     0.36129   0.13511   0.22840   0.00000  Uiso   1.00
C136   C     0.35239   0.19714   0.27421   0.00000  Uiso   1.00
C137   C     0.63749   0.19691   0.27475   0.00000  Uiso   1.00
C138   C     0.49872   0.08624   0.25362   0.00000  Uiso   1.00
C139   C     0.52465   0.16959   0.14904   0.00000  Uiso   1.00
C140   C     0.59745   0.17713   0.01205   0.00000  Uiso   1.00
C141   C     0.53751   0.17421   0.09254   0.00000  Uiso   1.00
C142   C     0.42578   0.11869   0.42483   0.00000  Uiso   1.00
C143   C     0.41563   0.10835   0.47684   0.00000  Uiso   1.00
C144   C     0.44492   0.12299   0.00686   0.00000  Uiso   1.00
N145   N     0.38093   0.16668   0.25001   0.00000  Uiso   1.00
N146   N     0.61906   0.16665   0.25000   0.00000  Uiso   1.00
O147   O     0.46179   0.22775   0.25000   0.00000  Uiso   1.00
O148   O     0.53823   0.22774   0.25000   0.00000  Uiso   1.00
O149   O     0.44280   0.16666   0.32681   0.00000  Uiso   1.00
O150   O     0.51924   0.16665   0.32681   0.00000  Uiso   1.00
O151   O     0.46177   0.10559   0.24999   0.00000  Uiso   1.00
O152   O     0.53821   0.10558   0.24999   0.00000  Uiso   1.00
O153   O     0.48076   0.16668   0.17319   0.00000  Uiso   1.00
O154   O     0.55720   0.16667   0.17319   0.00000  Uiso   1.00
Zn155  Zn    0.44896   0.16667   0.25000   0.00000  Uiso   1.00
Zn156  Zn    0.55104   0.16666   0.25000   0.00000  Uiso   1.00
N157   N     0.61766   0.19540   0.09104   0.00000  Uiso   1.00
H158   H     0.65080   0.18472   0.07606   0.00000  Uiso   1.00
C159   C     0.61804   0.23933   0.09852   0.00000  Uiso   1.00
H160   H     0.62819   0.25550   0.06134   0.00000  Uiso   1.00
H161   H     0.64408   0.24708   0.11977   0.00000  Uiso   1.00
H162   H     0.58315   0.24970   0.12039   0.00000  Uiso   1.00
C163   C     0.57552   0.03646   0.27481   0.00000  Uiso   1.00
N164   N     0.60485   0.04793   0.29250   0.00000  Uiso   1.00
N165   N     0.41168   0.03321   0.27046   0.00000  Uiso   1.00
H166   H     0.40964   0.06005   0.29069   0.00000  Uiso   1.00
C167   C     0.37477   0.00581   0.29778   0.00000  Uiso   1.00
H168   H     0.38832   0.31799   0.32176   0.00000  Uiso   1.00
H169   H     0.35798   0.32280   0.27134   0.00000  Uiso   1.00
H170   H     0.34685   0.02381   0.32363   0.00000  Uiso   1.00
N171   N     0.43270   0.29095   0.20830   0.00000  Uiso   1.00
H172   H     0.40427   0.27601   0.23122   0.00000  Uiso   1.00
C173   C     0.42420   0.31189   0.16514   0.00000  Uiso   1.00
H174   H     0.39946   0.00373   0.17839   0.00000  Uiso   1.00
H175   H     0.40869   0.28980   0.14264   0.00000  Uiso   1.00
H176   H     0.45731   0.32436   0.14019   0.00000  Uiso   1.00
N177   N     0.62999   0.10756   0.19552   0.00000  Uiso   1.00
H178   H     0.63224   0.07771   0.20595   0.00000  Uiso   1.00
C179   C     0.64620   0.11201   0.14105   0.00000  Uiso   1.00
H180   H     0.61582   0.11529   0.12515   0.00000  Uiso   1.00
H181   H     0.66453   0.08386   0.12395   0.00000  Uiso   1.00
H182   H     0.33711   0.13880   0.13007   0.00000  Uiso   1.00
N183   N     0.38465   0.09744   0.21781   0.00000  Uiso   1.00
H184   H     0.36331   0.07213   0.22943   0.00000  Uiso   1.00
C185   C     0.41486   0.09250   0.16771   0.00000  Uiso   1.00
H186   H     0.39948   0.06889   0.14720   0.00000  Uiso   1.00
H187   H     0.44909   0.08120   0.16995   0.00000  Uiso   1.00
H188   H     0.42009   0.12189   0.14681   0.00000  Uiso   1.00
C189   C     0.36920   0.22399   0.30811   0.00000  Uiso   1.00
N190   N     0.38239   0.24435   0.33664   0.00000  Uiso   1.00
C191   C     0.60709   0.22717   0.30449   0.00000  Uiso   1.00
N192   N     0.58306   0.25148   0.32875   0.00000  Uiso   1.00
N193   N     0.62264   0.12919   0.41865   0.00000  Uiso   1.00
H194   H     0.62296   0.09766   0.41413   0.00000  Uiso   1.00
C195   C     0.65303   0.15080   0.37673   0.00000  Uiso   1.00
H196   H     0.65806   0.13230   0.34136   0.00000  Uiso   1.00
H197   H     0.35387   0.15620   0.38455   0.00000  Uiso   1.00
H198   H     0.63875   0.18130   0.37221   0.00000  Uiso   1.00
C199   C     0.64379   0.19090   0.48451   0.00000  Uiso   1.00
N200   N     0.34751   0.20243   0.46352   0.00000  Uiso   1.00
C201   C     0.45638   0.18594   0.08748   0.00000  Uiso   1.00
N202   N     0.41905   0.19743   0.10526   0.00000  Uiso   1.00
N203   N     0.40578   0.09343   0.39260   0.00000  Uiso   1.00
H204   H     0.40571   0.10468   0.35757   0.00000  Uiso   1.00
C205   C     0.41656   0.04993   0.39131   0.00000  Uiso   1.00
H206   H     0.38396   0.03146   0.39636   0.00000  Uiso   1.00
H207   H     0.43350   0.04092   0.42131   0.00000  Uiso   1.00
H208   H     0.44136   0.04202   0.35481   0.00000  Uiso   1.00
N209   N     0.44329   0.10242   0.05295   0.00000  Uiso   1.00
H210   H     0.40989   0.09477   0.07263   0.00000  Uiso   1.00
C211   C     0.47516   0.06838   0.04729   0.00000  Uiso   1.00
H212   H     0.51171   0.07915   0.03160   0.00000  Uiso   1.00
H213   H     0.46668   0.04440   0.02167   0.00000  Uiso   1.00
H214   H     0.47273   0.05415   0.08469   0.00000  Uiso   1.00
N215   N     0.38079   0.07744   0.49610   0.00000  Uiso   1.00
H216   H     0.38954   0.05429   0.01729   0.00000  Uiso   1.00
C217   C     0.33444   0.09244   0.01618   0.00000  Uiso   1.00
H218   H     0.64487   0.06793   0.03833   0.00000  Uiso   1.00
H219   H     0.65347   0.10119   0.48466   0.00000  Uiso   1.00
H220   H     0.33502   0.11966   0.04057   0.00000  Uiso   1.00
N221   N     0.55146   0.10720   0.37281   0.00000  Uiso   1.00
H222   H     0.58275   0.10940   0.34574   0.00000  Uiso   1.00
C223   C     0.53762   0.06605   0.39221   0.00000  Uiso   1.00
H224   H     0.56872   0.04812   0.39319   0.00000  Uiso   1.00
H225   H     0.51871   0.05021   0.36733   0.00000  Uiso   1.00
H226   H     0.51400   0.06645   0.43127   0.00000  Uiso   1.00
N227   N     0.59185   0.29652   0.21627   0.00000  Uiso   1.00
H228   H     0.59333   0.26781   0.20017   0.00000  Uiso   1.00
C229   C     0.62798   0.32303   0.18503   0.00000  Uiso   1.00
H230   H     0.61335   0.01103   0.16174   0.00000  Uiso   1.00
H231   H     0.65496   0.30457   0.15892   0.00000  Uiso   1.00
H232   H     0.64658   0.00692   0.20911   0.00000  Uiso   1.00
C233   C     0.83556   0.24618   0.24291   0.00000  Uiso   1.00
C234   C     0.81698   0.14899   0.48527   0.00000  Uiso   1.00
C235   C     0.83086   0.15043   0.43211   0.00000  Uiso   1.00
C236   C     0.84982   0.16195   0.01253   0.00000  Uiso   1.00
C237   C     0.89779   0.16298   0.48645   0.00000  Uiso   1.00
C238   C     0.91107   0.14614   0.43705   0.00000  Uiso   1.00
C239   C     0.87700   0.13840   0.41071   0.00000  Uiso   1.00
C240   C     0.83661   0.17190   0.06486   0.00000  Uiso   1.00
C241   C     0.91766   0.18131   0.06525   0.00000  Uiso   1.00
C242   C     0.79724   0.14575   0.40398   0.00000  Uiso   1.00
C243   C     0.87922   0.31331   0.23410   0.00000  Uiso   1.00
C244   C     0.80885   0.16043   0.35000   0.00000  Uiso   1.00
C245   C     0.87346   0.02021   0.25213   0.00000  Uiso   1.00
C246   C     0.83129   0.04080   0.25521   0.00000  Uiso   1.00
C247   C     0.79121   0.01757   0.25149   0.00000  Uiso   1.00
C248   C     0.79775   0.31059   0.23269   0.00000  Uiso   1.00
C249   C     0.83871   0.29042   0.23342   0.00000  Uiso   1.00
C250   C     0.98106   0.13693   0.22482   0.00000  Uiso   1.00
C251   C     0.69462   0.13511   0.22840   0.00000  Uiso   1.00
C252   C     0.68573   0.19714   0.27421   0.00000  Uiso   1.00
C253   C     0.97082   0.19691   0.27475   0.00000  Uiso   1.00
C254   C     0.83206   0.08624   0.25362   0.00000  Uiso   1.00
C255   C     0.85798   0.16959   0.14904   0.00000  Uiso   1.00
C256   C     0.93079   0.17713   0.01205   0.00000  Uiso   1.00
C257   C     0.87084   0.17421   0.09254   0.00000  Uiso   1.00
C258   C     0.75912   0.11869   0.42483   0.00000  Uiso   1.00
C259   C     0.74896   0.10835   0.47684   0.00000  Uiso   1.00
C260   C     0.77826   0.12299   0.00686   0.00000  Uiso   1.00
N261   N     0.71426   0.16668   0.25001   0.00000  Uiso   1.00
N262   N     0.95239   0.16665   0.25000   0.00000  Uiso   1.00
O263   O     0.79512   0.22775   0.25000   0.00000  Uiso   1.00
O264   O     0.87157   0.22774   0.25000   0.00000  Uiso   1.00
O265   O     0.77613   0.16666   0.32681   0.00000  Uiso   1.00
O266   O     0.85258   0.16665   0.32681   0.00000  Uiso   1.00
O267   O     0.79510   0.10559   0.24999   0.00000  Uiso   1.00
O268   O     0.87154   0.10558   0.24999   0.00000  Uiso   1.00
O269   O     0.81409   0.16668   0.17319   0.00000  Uiso   1.00
O270   O     0.89053   0.16667   0.17319   0.00000  Uiso   1.00
Zn271  Zn    0.78229   0.16667   0.25000   0.00000  Uiso   1.00
Zn272  Zn    0.88438   0.16666   0.25000   0.00000  Uiso   1.00
N273   N     0.95099   0.19540   0.09104   0.00000  Uiso   1.00
H274   H     0.98413   0.18472   0.07606   0.00000  Uiso   1.00
C275   C     0.95138   0.23933   0.09852   0.00000  Uiso   1.00
H276   H     0.96153   0.25550   0.06134   0.00000  Uiso   1.00
H277   H     0.97741   0.24708   0.11977   0.00000  Uiso   1.00
H278   H     0.91648   0.24970   0.12039   0.00000  Uiso   1.00
C279   C     0.90885   0.03646   0.27481   0.00000  Uiso   1.00
N280   N     0.93818   0.04793   0.29250   0.00000  Uiso   1.00
N281   N     0.74501   0.03321   0.27046   0.00000  Uiso   1.00
H282   H     0.74297   0.06005   0.29069   0.00000  Uiso   1.00
C283   C     0.70810   0.00581   0.29778   0.00000  Uiso   1.00
H284   H     0.72165   0.31799   0.32176   0.00000  Uiso   1.00
H285   H     0.69131   0.32280   0.27134   0.00000  Uiso   1.00
H286   H     0.68018   0.02381   0.32363   0.00000  Uiso   1.00
N287   N     0.76604   0.29095   0.20830   0.00000  Uiso   1.00
H288   H     0.73760   0.27601   0.23122   0.00000  Uiso   1.00
C289   C     0.75754   0.31189   0.16514   0.00000  Uiso   1.00
H290   H     0.73280   0.00373   0.17839   0.00000  Uiso   1.00
H291   H     0.74203   0.28980   0.14264   0.00000  Uiso   1.00
H292   H     0.79064   0.32436   0.14019   0.00000  Uiso   1.00
N293   N     0.96332   0.10756   0.19552   0.00000  Uiso   1.00
H294   H     0.96557   0.07771   0.20595   0.00000  Uiso   1.00
C295   C     0.97953   0.11201   0.14105   0.00000  Uiso   1.00
H296   H     0.94915   0.11529   0.12515   0.00000  Uiso   1.00
H297   H     0.99786   0.08386   0.12395   0.00000  Uiso   1.00
H298   H     0.67044   0.13880   0.13007   0.00000  Uiso   1.00
N299   N     0.71798   0.09744   0.21781   0.00000  Uiso   1.00
H300   H     0.69664   0.07213   0.22943   0.00000  Uiso   1.00
C301   C     0.74819   0.09250   0.16771   0.00000  Uiso   1.00
H302   H     0.73281   0.06889   0.14720   0.00000  Uiso   1.00
H303   H     0.78243   0.08120   0.16995   0.00000  Uiso   1.00
H304   H     0.75342   0.12189   0.14681   0.00000  Uiso   1.00
C305   C     0.70253   0.22399   0.30811   0.00000  Uiso   1.00
N306   N     0.71573   0.24435   0.33664   0.00000  Uiso   1.00
C307   C     0.94043   0.22717   0.30449   0.00000  Uiso   1.00
N308   N     0.91640   0.25148   0.32875   0.00000  Uiso   1.00
N309   N     0.95597   0.12919   0.41865   0.00000  Uiso   1.00
H310   H     0.95629   0.09766   0.41413   0.00000  Uiso   1.00
C311   C     0.98636   0.15080   0.37673   0.00000  Uiso   1.00
H312   H     0.99139   0.13230   0.34136   0.00000  Uiso   1.00
H313   H     0.68721   0.15620   0.38455   0.00000  Uiso   1.00
H314   H     0.97209   0.18130   0.37221   0.00000  Uiso   1.00
C315   C     0.97712   0.19090   0.48451   0.00000  Uiso   1.00
N316   N     0.68084   0.20243   0.46352   0.00000  Uiso   1.00
C317   C     0.78971   0.18594   0.08748   0.00000  Uiso   1.00
N318   N     0.75238   0.19743   0.10526   0.00000  Uiso   1.00
N319   N     0.73911   0.09343   0.39260   0.00000  Uiso   1.00
H320   H     0.73904   0.10468   0.35757   0.00000  Uiso   1.00
C321   C     0.74989   0.04993   0.39131   0.00000  Uiso   1.00
H322   H     0.71729   0.03146   0.39636   0.00000  Uiso   1.00
H323   H     0.76683   0.04092   0.42131   0.00000  Uiso   1.00
H324   H     0.77469   0.04202   0.35481   0.00000  Uiso   1.00
N325   N     0.77663   0.10242   0.05295   0.00000  Uiso   1.00
H326   H     0.74322   0.09477   0.07263   0.00000  Uiso   1.00
C327   C     0.80849   0.06838   0.04729   0.00000  Uiso   1.00
H328   H     0.84504   0.07915   0.03160   0.00000  Uiso   1.00
H329   H     0.80001   0.04440   0.02167   0.00000  Uiso   1.00
H330   H     0.80606   0.05415   0.08469   0.00000  Uiso   1.00
N331   N     0.71412   0.07744   0.49610   0.00000  Uiso   1.00
H332   H     0.72287   0.05429   0.01729   0.00000  Uiso   1.00
C333   C     0.66777   0.09244   0.01618   0.00000  Uiso   1.00
H334   H     0.97820   0.06793   0.03833   0.00000  Uiso   1.00
H335   H     0.98680   0.10119   0.48466   0.00000  Uiso   1.00
H336   H     0.66836   0.11966   0.04057   0.00000  Uiso   1.00
N337   N     0.88480   0.10720   0.37281   0.00000  Uiso   1.00
H338   H     0.91608   0.10940   0.34574   0.00000  Uiso   1.00
C339   C     0.87095   0.06605   0.39221   0.00000  Uiso   1.00
H340   H     0.90206   0.04812   0.39319   0.00000  Uiso   1.00
H341   H     0.85204   0.05021   0.36733   0.00000  Uiso   1.00
H342   H     0.84734   0.06645   0.43127   0.00000  Uiso   1.00
N343   N     0.92519   0.29652   0.21627   0.00000  Uiso   1.00
H344   H     0.92667   0.26781   0.20017   0.00000  Uiso   1.00
C345   C     0.96132   0.32303   0.18503   0.00000  Uiso   1.00
H346   H     0.94668   0.01103   0.16174   0.00000  Uiso   1.00
H347   H     0.98829   0.30457   0.15892   0.00000  Uiso   1.00
H348   H     0.97992   0.00692   0.20911   0.00000  Uiso   1.00
C349   C     0.16889   0.57952   0.24291   0.00000  Uiso   1.00
C350   C     0.15031   0.48232   0.48527   0.00000  Uiso   1.00
C351   C     0.16419   0.48377   0.43211   0.00000  Uiso   1.00
C352   C     0.18315   0.49528   0.01253   0.00000  Uiso   1.00
C353   C     0.23113   0.49631   0.48645   0.00000  Uiso   1.00
C354   C     0.24441   0.47947   0.43705   0.00000  Uiso   1.00
C355   C     0.21033   0.47173   0.41071   0.00000  Uiso   1.00
C356   C     0.16994   0.50523   0.06486   0.00000  Uiso   1.00
C357   C     0.25099   0.51464   0.06525   0.00000  Uiso   1.00
C358   C     0.13057   0.47908   0.40398   0.00000  Uiso   1.00
C359   C     0.21255   0.64665   0.23410   0.00000  Uiso   1.00
C360   C     0.14219   0.49376   0.35000   0.00000  Uiso   1.00
C361   C     0.20680   0.35354   0.25213   0.00000  Uiso   1.00
C362   C     0.16462   0.37413   0.25521   0.00000  Uiso   1.00
C363   C     0.12454   0.35090   0.25149   0.00000  Uiso   1.00
C364   C     0.13108   0.64393   0.23269   0.00000  Uiso   1.00
C365   C     0.17204   0.62375   0.23342   0.00000  Uiso   1.00
C366   C     0.31439   0.47027   0.22482   0.00000  Uiso   1.00
C367   C     0.02795   0.46845   0.22840   0.00000  Uiso   1.00
C368   C     0.01906   0.53048   0.27421   0.00000  Uiso   1.00
C369   C     0.30416   0.53024   0.27475   0.00000  Uiso   1.00
C370   C     0.16539   0.41957   0.25362   0.00000  Uiso   1.00
C371   C     0.19131   0.50293   0.14904   0.00000  Uiso   1.00
C372   C     0.26412   0.51047   0.01205   0.00000  Uiso   1.00
C373   C     0.20417   0.50754   0.09254   0.00000  Uiso   1.00
C374   C     0.09245   0.45203   0.42483   0.00000  Uiso   1.00
C375   C     0.08229   0.44169   0.47684   0.00000  Uiso   1.00
C376   C     0.11159   0.45632   0.00686   0.00000  Uiso   1.00
N377   N     0.04760   0.50001   0.25001   0.00000  Uiso   1.00
N378   N     0.28573   0.49998   0.25000   0.00000  Uiso   1.00
O379   O     0.12846   0.56108   0.25000   0.00000  Uiso   1.00
O380   O     0.20490   0.56107   0.25000   0.00000  Uiso   1.00
O381   O     0.10947   0.50000   0.32681   0.00000  Uiso   1.00
O382   O     0.18591   0.49999   0.32681   0.00000  Uiso   1.00
O383   O     0.12843   0.43893   0.24999   0.00000  Uiso   1.00
O384   O     0.20488   0.43892   0.24999   0.00000  Uiso   1.00
O385   O     0.14742   0.50001   0.17319   0.00000  Uiso   1.00
O386   O     0.22387   0.50000   0.17319   0.00000  Uiso   1.00
Zn387  Zn    0.11562   0.50001   0.25000   0.00000  Uiso   1.00
Zn388  Zn    0.21771   0.49999   0.25000   0.00000  Uiso   1.00
N389   N     0.28433   0.52873   0.09104   0.00000  Uiso   1.00
H390   H     0.31746   0.51806   0.07606   0.00000  Uiso   1.00
C391   C     0.28471   0.57267   0.09852   0.00000  Uiso   1.00
H392   H     0.29486   0.58884   0.06134   0.00000  Uiso   1.00
H393   H     0.31075   0.58041   0.11977   0.00000  Uiso   1.00
H394   H     0.24981   0.58303   0.12039   0.00000  Uiso   1.00
C395   C     0.24218   0.36979   0.27481   0.00000  Uiso   1.00
N396   N     0.27152   0.38126   0.29250   0.00000  Uiso   1.00
N397   N     0.07835   0.36655   0.27046   0.00000  Uiso   1.00
H398   H     0.07631   0.39338   0.29069   0.00000  Uiso   1.00
C399   C     0.04144   0.33914   0.29778   0.00000  Uiso   1.00
H400   H     0.05498   0.65133   0.32176   0.00000  Uiso   1.00
H401   H     0.02465   0.65613   0.27134   0.00000  Uiso   1.00
H402   H     0.01351   0.35715   0.32363   0.00000  Uiso   1.00
N403   N     0.09937   0.62428   0.20830   0.00000  Uiso   1.00
H404   H     0.07093   0.60935   0.23122   0.00000  Uiso   1.00
C405   C     0.09087   0.64522   0.16514   0.00000  Uiso   1.00
H406   H     0.06613   0.33707   0.17839   0.00000  Uiso   1.00
H407   H     0.07536   0.62313   0.14264   0.00000  Uiso   1.00
H408   H     0.12397   0.65769   0.14019   0.00000  Uiso   1.00
N409   N     0.29665   0.44089   0.19552   0.00000  Uiso   1.00
H410   H     0.29890   0.41105   0.20595   0.00000  Uiso   1.00
C411   C     0.31287   0.44534   0.14105   0.00000  Uiso   1.00
H412   H     0.28248   0.44862   0.12515   0.00000  Uiso   1.00
H413   H     0.33119   0.41719   0.12395   0.00000  Uiso   1.00
H414   H     0.00377   0.47213   0.13007   0.00000  Uiso   1.00
N415   N     0.05132   0.43078   0.21781   0.00000  Uiso   1.00
H416   H     0.02998   0.40546   0.22943   0.00000  Uiso   1.00
C417   C     0.08152   0.42584   0.16771   0.00000  Uiso   1.00
H418   H     0.06614   0.40222   0.14720   0.00000  Uiso   1.00
H419   H     0.11576   0.41453   0.16995   0.00000  Uiso   1.00
H420   H     0.08675   0.45522   0.14681   0.00000  Uiso   1.00
C421   C     0.03587   0.55733   0.30811   0.00000  Uiso   1.00
N422   N     0.04906   0.57768   0.33664   0.00000  Uiso   1.00
C423   C     0.27376   0.56051   0.30449   0.00000  Uiso   1.00
N424   N     0.24973   0.58482   0.32875   0.00000  Uiso   1.00
N425   N     0.28931   0.46252   0.41865   0.00000  Uiso   1.00
H426   H     0.28963   0.43100   0.41413   0.00000  Uiso   1.00
C427   C     0.31969   0.48413   0.37673   0.00000  Uiso   1.00
H428   H     0.32472   0.46564   0.34136   0.00000  Uiso   1.00
H429   H     0.02054   0.48953   0.38455   0.00000  Uiso   1.00
H430   H     0.30542   0.51463   0.37221   0.00000  Uiso   1.00
C431   C     0.31046   0.52423   0.48451   0.00000  Uiso   1.00
N432   N     0.01417   0.53576   0.46352   0.00000  Uiso   1.00
C433   C     0.12304   0.51927   0.08748   0.00000  Uiso   1.00
N434   N     0.08571   0.53077   0.10526   0.00000  Uiso   1.00
N435   N     0.07245   0.42676   0.39260   0.00000  Uiso   1.00
H436   H     0.07237   0.43802   0.35757   0.00000  Uiso   1.00
C437   C     0.08323   0.38326   0.39131   0.00000  Uiso   1.00
H438   H     0.05063   0.36479   0.39636   0.00000  Uiso   1.00
H439   H     0.10016   0.37425   0.42131   0.00000  Uiso   1.00
H440   H     0.10803   0.37535   0.35481   0.00000  Uiso   1.00
N441   N     0.10996   0.43576   0.05295   0.00000  Uiso   1.00
H442   H     0.07656   0.42810   0.07263   0.00000  Uiso   1.00
C443   C     0.14182   0.40171   0.04729   0.00000  Uiso   1.00
H444   H     0.17838   0.41249   0.03160   0.00000  Uiso   1.00
H445   H     0.13335   0.37773   0.02167   0.00000  Uiso   1.00
H446   H     0.13939   0.38749   0.08469   0.00000  Uiso   1.00
N447   N     0.04746   0.41077   0.49610   0.00000  Uiso   1.00
H448   H     0.05620   0.38762   0.01729   0.00000  Uiso   1.00
C449   C     0.00110   0.42578   0.01618   0.00000  Uiso   1.00
H450   H     0.31153   0.40127   0.03833   0.00000  Uiso   1.00
H451   H     0.32014   0.43452   0.48466   0.00000  Uiso   1.00
H452   H     0.00169   0.45299   0.04057   0.00000  Uiso   1.00
N453   N     0.21813   0.44053   0.37281   0.00000  Uiso   1.00
H454   H     0.24942   0.44273   0.34574   0.00000  Uiso   1.00
C455   C     0.20428   0.39938   0.39221   0.00000  Uiso   1.00
H456   H     0.23539   0.38146   0.39319   0.00000  Uiso   1.00
H457   H     0.18537   0.38354   0.36733   0.00000  Uiso   1.00
H458   H     0.18067   0.39979   0.43127   0.00000  Uiso   1.00
N459   N     0.25852   0.62985   0.21627   0.00000  Uiso   1.00
H460   H     0.26000   0.60115   0.20017   0.00000  Uiso   1.00
C461   C     0.29465   0.65636   0.18503   0.00000  Uiso   1.00
H462   H     0.28001   0.34436   0.16174   0.00000  Uiso   1.00
H463   H     0.32163   0.63790   0.15892   0.00000  Uiso   1.00
H464   H     0.31325   0.34025   0.20911   0.00000  Uiso   1.00
C465   C     0.50223   0.57952   0.24291   0.00000  Uiso   1.00
C466   C     0.48364   0.48232   0.48527   0.00000  Uiso   1.00
C467   C     0.49753   0.48377   0.43211   0.00000  Uiso   1.00
C468   C     0.51649   0.49528   0.01253   0.00000  Uiso   1.00
C469   C     0.56446   0.49631   0.48645   0.00000  Uiso   1.00
C470   C     0.57774   0.47947   0.43705   0.00000  Uiso   1.00
C471   C     0.54367   0.47173   0.41071   0.00000  Uiso   1.00
C472   C     0.50327   0.50523   0.06486   0.00000  Uiso   1.00
C473   C     0.58433   0.51464   0.06525   0.00000  Uiso   1.00
C474   C     0.46391   0.47908   0.40398   0.00000  Uiso   1.00
C475   C     0.54589   0.64665   0.23410   0.00000  Uiso   1.00
C476   C     0.47552   0.49376   0.35000   0.00000  Uiso   1.00
C477   C     0.54013   0.35354   0.25213   0.00000  Uiso   1.00
C478   C     0.49795   0.37413   0.25521   0.00000  Uiso   1.00
C479   C     0.45788   0.35090   0.25149   0.00000  Uiso   1.00
C480   C     0.46441   0.64393   0.23269   0.00000  Uiso   1.00
C481   C     0.50538   0.62375   0.23342   0.00000  Uiso   1.00
C482   C     0.64772   0.47027   0.22482   0.00000  Uiso   1.00
C483   C     0.36129   0.46845   0.22840   0.00000  Uiso   1.00
C484   C     0.35239   0.53048   0.27421   0.00000  Uiso   1.00
C485   C     0.63749   0.53024   0.27475   0.00000  Uiso   1.00
C486   C     0.49872   0.41957   0.25362   0.00000  Uiso   1.00
C487   C     0.52465   0.50293   0.14904   0.00000  Uiso   1.00
C488   C     0.59745   0.51047   0.01205   0.00000  Uiso   1.00
C489   C     0.53751   0.50754   0.09254   0.00000  Uiso   1.00
C490   C     0.42578   0.45203   0.42483   0.00000  Uiso   1.00
C491   C     0.41563   0.44169   0.47684   0.00000  Uiso   1.00
C492   C     0.44492   0.45632   0.00686   0.00000  Uiso   1.00
N493   N     0.38093   0.50001   0.25001   0.00000  Uiso   1.00
N494   N     0.61906   0.49998   0.25000   0.00000  Uiso   1.00
O495   O     0.46179   0.56108   0.25000   0.00000  Uiso   1.00
O496   O     0.53823   0.56107   0.25000   0.00000  Uiso   1.00
O497   O     0.44280   0.50000   0.32681   0.00000  Uiso   1.00
O498   O     0.51924   0.49999   0.32681   0.00000  Uiso   1.00
O499   O     0.46177   0.43893   0.24999   0.00000  Uiso   1.00
O500   O     0.53821   0.43892   0.24999   0.00000  Uiso   1.00
O501   O     0.48076   0.50001   0.17319   0.00000  Uiso   1.00
O502   O     0.55720   0.50000   0.17319   0.00000  Uiso   1.00
Zn503  Zn    0.44896   0.50001   0.25000   0.00000  Uiso   1.00
Zn504  Zn    0.55104   0.49999   0.25000   0.00000  Uiso   1.00
N505   N     0.61766   0.52873   0.09104   0.00000  Uiso   1.00
H506   H     0.65080   0.51806   0.07606   0.00000  Uiso   1.00
C507   C     0.61804   0.57267   0.09852   0.00000  Uiso   1.00
H508   H     0.62819   0.58884   0.06134   0.00000  Uiso   1.00
H509   H     0.64408   0.58041   0.11977   0.00000  Uiso   1.00
H510   H     0.58315   0.58303   0.12039   0.00000  Uiso   1.00
C511   C     0.57552   0.36979   0.27481   0.00000  Uiso   1.00
N512   N     0.60485   0.38126   0.29250   0.00000  Uiso   1.00
N513   N     0.41168   0.36655   0.27046   0.00000  Uiso   1.00
H514   H     0.40964   0.39338   0.29069   0.00000  Uiso   1.00
C515   C     0.37477   0.33914   0.29778   0.00000  Uiso   1.00
H516   H     0.38832   0.65133   0.32176   0.00000  Uiso   1.00
H517   H     0.35798   0.65613   0.27134   0.00000  Uiso   1.00
H518   H     0.34685   0.35715   0.32363   0.00000  Uiso   1.00
N519   N     0.43270   0.62428   0.20830   0.00000  Uiso   1.00
H520   H     0.40427   0.60935   0.23122   0.00000  Uiso   1.00
C521   C     0.42420   0.64522   0.16514   0.00000  Uiso   1.00
H522   H     0.39946   0.33707   0.17839   0.00000  Uiso   1.00
H523   H     0.40869   0.62313   0.14264   0.00000  Uiso   1.00
H524   H     0.45731   0.65769   0.14019   0.00000  Uiso   1.00
N525   N     0.62999   0.44089   0.19552   0.00000  Uiso   1.00
H526   H     0.63224   0.41105   0.20595   0.00000  Uiso   1.00
C527   C     0.64620   0.44534   0.14105   0.00000  Uiso   1.00
H528   H     0.61582   0.44862   0.12515   0.00000  Uiso   1.00
H529   H     0.66453   0.41719   0.12395   0.00000  Uiso   1.00
H530   H     0.33711   0.47213   0.13007   0.00000  Uiso   1.00
N531   N     0.38465   0.43078   0.21781   0.00000  Uiso   1.00
H532   H     0.36331   0.40546   0.22943   0.00000  Uiso   1.00
C533   C     0.41486   0.42584   0.16771   0.00000  Uiso   1.00
H534   H     0.39948   0.40222   0.14720   0.00000  Uiso   1.00
H535   H     0.44909   0.41453   0.16995   0.00000  Uiso   1.00
H536   H     0.42009   0.45522   0.14681   0.00000  Uiso   1.00
C537   C     0.36920   0.55733   0.30811   0.00000  Uiso   1.00
N538   N     0.38239   0.57768   0.33664   0.00000  Uiso   1.00
C539   C     0.60709   0.56051   0.30449   0.00000  Uiso   1.00
N540   N     0.58306   0.58482   0.32875   0.00000  Uiso   1.00
N541   N     0.62264   0.46252   0.41865   0.00000  Uiso   1.00
H542   H     0.62296   0.43100   0.41413   0.00000  Uiso   1.00
C543   C     0.65303   0.48413   0.37673   0.00000  Uiso   1.00
H544   H     0.65806   0.46564   0.34136   0.00000  Uiso   1.00
H545   H     0.35387   0.48953   0.38455   0.00000  Uiso   1.00
H546   H     0.63875   0.51463   0.37221   0.00000  Uiso   1.00
C547   C     0.64379   0.52423   0.48451   0.00000  Uiso   1.00
N548   N     0.34751   0.53576   0.46352   0.00000  Uiso   1.00
C549   C     0.45638   0.51927   0.08748   0.00000  Uiso   1.00
N550   N     0.41905   0.53077   0.10526   0.00000  Uiso   1.00
N551   N     0.40578   0.42676   0.39260   0.00000  Uiso   1.00
H552   H     0.40571   0.43802   0.35757   0.00000  Uiso   1.00
C553   C     0.41656   0.38326   0.39131   0.00000  Uiso   1.00
H554   H     0.38396   0.36479   0.39636   0.00000  Uiso   1.00
H555   H     0.43350   0.37425   0.42131   0.00000  Uiso   1.00
H556   H     0.44136   0.37535   0.35481   0.00000  Uiso   1.00
N557   N     0.44329   0.43576   0.05295   0.00000  Uiso   1.00
H558   H     0.40989   0.42810   0.07263   0.00000  Uiso   1.00
C559   C     0.47516   0.40171   0.04729   0.00000  Uiso   1.00
H560   H     0.51171   0.41249   0.03160   0.00000  Uiso   1.00
H561   H     0.46668   0.37773   0.02167   0.00000  Uiso   1.00
H562   H     0.47273   0.38749   0.08469   0.00000  Uiso   1.00
N563   N     0.38079   0.41077   0.49610   0.00000  Uiso   1.00
H564   H     0.38954   0.38762   0.01729   0.00000  Uiso   1.00
C565   C     0.33444   0.42578   0.01618   0.00000  Uiso   1.00
H566   H     0.64487   0.40127   0.03833   0.00000  Uiso   1.00
H567   H     0.65347   0.43452   0.48466   0.00000  Uiso   1.00
H568   H     0.33502   0.45299   0.04057   0.00000  Uiso   1.00
N569   N     0.55146   0.44053   0.37281   0.00000  Uiso   1.00
H570   H     0.58275   0.44273   0.34574   0.00000  Uiso   1.00
C571   C     0.53762   0.39938   0.39221   0.00000  Uiso   1.00
H572   H     0.56872   0.38146   0.39319   0.00000  Uiso   1.00
H573   H     0.51871   0.38354   0.36733   0.00000  Uiso   1.00
H574   H     0.51400   0.39979   0.43127   0.00000  Uiso   1.00
N575   N     0.59185   0.62985   0.21627   0.00000  Uiso   1.00
H576   H     0.59333   0.60115   0.20017   0.00000  Uiso   1.00
C577   C     0.62798   0.65636   0.18503   0.00000  Uiso   1.00
H578   H     0.61335   0.34436   0.16174   0.00000  Uiso   1.00
H579   H     0.65496   0.63790   0.15892   0.00000  Uiso   1.00
H580   H     0.64658   0.34025   0.20911   0.00000  Uiso   1.00
C581   C     0.83556   0.57952   0.24291   0.00000  Uiso   1.00
C582   C     0.81698   0.48232   0.48527   0.00000  Uiso   1.00
C583   C     0.83086   0.48377   0.43211   0.00000  Uiso   1.00
C584   C     0.84982   0.49528   0.01253   0.00000  Uiso   1.00
C585   C     0.89779   0.49631   0.48645   0.00000  Uiso   1.00
C586   C     0.91107   0.47947   0.43705   0.00000  Uiso   1.00
C587   C     0.87700   0.47173   0.41071   0.00000  Uiso   1.00
C588   C     0.83661   0.50523   0.06486   0.00000  Uiso   1.00
C589   C     0.91766   0.51464   0.06525   0.00000  Uiso   1.00
C590   C     0.79724   0.47908   0.40398   0.00000  Uiso   1.00
C591   C     0.87922   0.64665   0.23410   0.00000  Uiso   1.00
C592   C     0.80885   0.49376   0.35000   0.00000  Uiso   1.00
C593   C     0.87346   0.35354   0.25213   0.00000  Uiso   1.00
C594   C     0.83129   0.37413   0.25521   0.00000  Uiso   1.00
C595   C     0.79121   0.35090   0.25149   0.00000  Uiso   1.00
C596   C     0.79775   0.64393   0.23269   0.00000  Uiso   1.00
C597   C     0.83871   0.62375   0.23342   0.00000  Uiso   1.00
C598   C     0.98106   0.47027   0.22482   0.00000  Uiso   1.00
C599   C     0.69462   0.46845   0.22840   0.00000  Uiso   1.00
C600   C     0.68573   0.53048   0.27421   0.00000  Uiso   1.00
C601   C     0.97082   0.53024   0.27475   0.00000  Uiso   1.00
C602   C     0.83206   0.41957   0.25362   0.00000  Uiso   1.00
C603   C     0.85798   0.50293   0.14904   0.00000  Uiso   1.00
C604   C     0.93079   0.51047   0.01205   0.00000  Uiso   1.00
C605   C     0.87084   0.50754   0.09254   0.00000  Uiso   1.00
C606   C     0.75912   0.45203   0.42483   0.00000  Uiso   1.00
C607   C     0.74896   0.44169   0.47684   0.00000  Uiso   1.00
C608   C     0.77826   0.45632   0.00686   0.00000  Uiso   1.00
N609   N     0.71426   0.50001   0.25001   0.00000  Uiso   1.00
N610   N     0.95239   0.49998   0.25000   0.00000  Uiso   1.00
O611   O     0.79512   0.56108   0.25000   0.00000  Uiso   1.00
O612   O     0.87157   0.56107   0.25000   0.00000  Uiso   1.00
O613   O     0.77613   0.50000   0.32681   0.00000  Uiso   1.00
O614   O     0.85258   0.49999   0.32681   0.00000  Uiso   1.00
O615   O     0.79510   0.43893   0.24999   0.00000  Uiso   1.00
O616   O     0.87154   0.43892   0.24999   0.00000  Uiso   1.00
O617   O     0.81409   0.50001   0.17319   0.00000  Uiso   1.00
O618   O     0.89053   0.50000   0.17319   0.00000  Uiso   1.00
Zn619  Zn    0.78229   0.50001   0.25000   0.00000  Uiso   1.00
Zn620  Zn    0.88438   0.49999   0.25000   0.00000  Uiso   1.00
N621   N     0.95099   0.52873   0.09104   0.00000  Uiso   1.00
H622   H     0.98413   0.51806   0.07606   0.00000  Uiso   1.00
C623   C     0.95138   0.57267   0.09852   0.00000  Uiso   1.00
H624   H     0.96153   0.58884   0.06134   0.00000  Uiso   1.00
H625   H     0.97741   0.58041   0.11977   0.00000  Uiso   1.00
H626   H     0.91648   0.58303   0.12039   0.00000  Uiso   1.00
C627   C     0.90885   0.36979   0.27481   0.00000  Uiso   1.00
N628   N     0.93818   0.38126   0.29250   0.00000  Uiso   1.00
N629   N     0.74501   0.36655   0.27046   0.00000  Uiso   1.00
H630   H     0.74297   0.39338   0.29069   0.00000  Uiso   1.00
C631   C     0.70810   0.33914   0.29778   0.00000  Uiso   1.00
H632   H     0.72165   0.65133   0.32176   0.00000  Uiso   1.00
H633   H     0.69131   0.65613   0.27134   0.00000  Uiso   1.00
H634   H     0.68018   0.35715   0.32363   0.00000  Uiso   1.00
N635   N     0.76604   0.62428   0.20830   0.00000  Uiso   1.00
H636   H     0.73760   0.60935   0.23122   0.00000  Uiso   1.00
C637   C     0.75754   0.64522   0.16514   0.00000  Uiso   1.00
H638   H     0.73280   0.33707   0.17839   0.00000  Uiso   1.00
H639   H     0.74203   0.62313   0.14264   0.00000  Uiso   1.00
H640   H     0.79064   0.65769   0.14019   0.00000  Uiso   1.00
N641   N     0.96332   0.44089   0.19552   0.00000  Uiso   1.00
H642   H     0.96557   0.41105   0.20595   0.00000  Uiso   1.00
C643   C     0.97953   0.44534   0.14105   0.00000  Uiso   1.00
H644   H     0.94915   0.44862   0.12515   0.00000  Uiso   1.00
H645   H     0.99786   0.41719   0.12395   0.00000  Uiso   1.00
H646   H     0.67044   0.47213   0.13007   0.00000  Uiso   1.00
N647   N     0.71798   0.43078   0.21781   0.00000  Uiso   1.00
H648   H     0.69664   0.40546   0.22943   0.00000  Uiso   1.00
C649   C     0.74819   0.42584   0.16771   0.00000  Uiso   1.00
H650   H     0.73281   0.40222   0.14720   0.00000  Uiso   1.00
H651   H     0.78243   0.41453   0.16995   0.00000  Uiso   1.00
H652   H     0.75342   0.45522   0.14681   0.00000  Uiso   1.00
C653   C     0.70253   0.55733   0.30811   0.00000  Uiso   1.00
N654   N     0.71573   0.57768   0.33664   0.00000  Uiso   1.00
C655   C     0.94043   0.56051   0.30449   0.00000  Uiso   1.00
N656   N     0.91640   0.58482   0.32875   0.00000  Uiso   1.00
N657   N     0.95597   0.46252   0.41865   0.00000  Uiso   1.00
H658   H     0.95629   0.43100   0.41413   0.00000  Uiso   1.00
C659   C     0.98636   0.48413   0.37673   0.00000  Uiso   1.00
H660   H     0.99139   0.46564   0.34136   0.00000  Uiso   1.00
H661   H     0.68721   0.48953   0.38455   0.00000  Uiso   1.00
H662   H     0.97209   0.51463   0.37221   0.00000  Uiso   1.00
C663   C     0.97712   0.52423   0.48451   0.00000  Uiso   1.00
N664   N     0.68084   0.53576   0.46352   0.00000  Uiso   1.00
C665   C     0.78971   0.51927   0.08748   0.00000  Uiso   1.00
N666   N     0.75238   0.53077   0.10526   0.00000  Uiso   1.00
N667   N     0.73911   0.42676   0.39260   0.00000  Uiso   1.00
H668   H     0.73904   0.43802   0.35757   0.00000  Uiso   1.00
C669   C     0.74989   0.38326   0.39131   0.00000  Uiso   1.00
H670   H     0.71729   0.36479   0.39636   0.00000  Uiso   1.00
H671   H     0.76683   0.37425   0.42131   0.00000  Uiso   1.00
H672   H     0.77469   0.37535   0.35481   0.00000  Uiso   1.00
N673   N     0.77663   0.43576   0.05295   0.00000  Uiso   1.00
H674   H     0.74322   0.42810   0.07263   0.00000  Uiso   1.00
C675   C     0.80849   0.40171   0.04729   0.00000  Uiso   1.00
H676   H     0.84504   0.41249   0.03160   0.00000  Uiso   1.00
H677   H     0.80001   0.37773   0.02167   0.00000  Uiso   1.00
H678   H     0.80606   0.38749   0.08469   0.00000  Uiso   1.00
N679   N     0.71412   0.41077   0.49610   0.00000  Uiso   1.00
H680   H     0.72287   0.38762   0.01729   0.00000  Uiso   1.00
C681   C     0.66777   0.42578   0.01618   0.00000  Uiso   1.00
H682   H     0.97820   0.40127   0.03833   0.00000  Uiso   1.00
H683   H     0.98680   0.43452   0.48466   0.00000  Uiso   1.00
H684   H     0.66836   0.45299   0.04057   0.00000  Uiso   1.00
N685   N     0.88480   0.44053   0.37281   0.00000  Uiso   1.00
H686   H     0.91608   0.44273   0.34574   0.00000  Uiso   1.00
C687   C     0.87095   0.39938   0.39221   0.00000  Uiso   1.00
H688   H     0.90206   0.38146   0.39319   0.00000  Uiso   1.00
H689   H     0.85204   0.38354   0.36733   0.00000  Uiso   1.00
H690   H     0.84734   0.39979   0.43127   0.00000  Uiso   1.00
N691   N     0.92519   0.62985   0.21627   0.00000  Uiso   1.00
H692   H     0.92667   0.60115   0.20017   0.00000  Uiso   1.00
C693   C     0.96132   0.65636   0.18503   0.00000  Uiso   1.00
H694   H     0.94668   0.34436   0.16174   0.00000  Uiso   1.00
H695   H     0.98829   0.63790   0.15892   0.00000  Uiso   1.00
H696   H     0.97992   0.34025   0.20911   0.00000  Uiso   1.00
C697   C     0.16889   0.91285   0.24291   0.00000  Uiso   1.00
C698   C     0.15031   0.81566   0.48527   0.00000  Uiso   1.00
C699   C     0.16419   0.81710   0.43211   0.00000  Uiso   1.00
C700   C     0.18315   0.82861   0.01253   0.00000  Uiso   1.00
C701   C     0.23113   0.82964   0.48645   0.00000  Uiso   1.00
C702   C     0.24441   0.81281   0.43705   0.00000  Uiso   1.00
C703   C     0.21033   0.80506   0.41071   0.00000  Uiso   1.00
C704   C     0.16994   0.83857   0.06486   0.00000  Uiso   1.00
C705   C     0.25099   0.84797   0.06525   0.00000  Uiso   1.00
C706   C     0.13057   0.81242   0.40398   0.00000  Uiso   1.00
C707   C     0.21255   0.97998   0.23410   0.00000  Uiso   1.00
C708   C     0.14219   0.82710   0.35000   0.00000  Uiso   1.00
C709   C     0.20680   0.68687   0.25213   0.00000  Uiso   1.00
C710   C     0.16462   0.70746   0.25521   0.00000  Uiso   1.00
C711   C     0.12454   0.68423   0.25149   0.00000  Uiso   1.00
C712   C     0.13108   0.97726   0.23269   0.00000  Uiso   1.00
C713   C     0.17204   0.95708   0.23342   0.00000  Uiso   1.00
C714   C     0.31439   0.80360   0.22482   0.00000  Uiso   1.00
C715   C     0.02795   0.80178   0.22840   0.00000  Uiso   1.00
C716   C     0.01906   0.86381   0.27421   0.00000  Uiso   1.00
C717   C     0.30416   0.86357   0.27475   0.00000  Uiso   1.00
C718   C     0.16539   0.75290   0.25362   0.00000  Uiso   1.00
C719   C     0.19131   0.83626   0.14904   0.00000  Uiso   1.00
C720   C     0.26412   0.84380   0.01205   0.00000  Uiso   1.00
C721   C     0.20417   0.84087   0.09254   0.00000  Uiso   1.00
C722   C     0.09245   0.78536   0.42483   0.00000  Uiso   1.00
C723   C     0.08229   0.77502   0.47684   0.00000  Uiso   1.00
C724   C     0.11159   0.78966   0.00686   0.00000  Uiso   1.00
N725   N     0.04760   0.83334   0.25001   0.00000  Uiso   1.00
N726   N     0.28573   0.83331   0.25000   0.00000  Uiso   1.00
O727   O     0.12846   0.89442   0.25000   0.00000  Uiso   1.00
O728   O     0.20490   0.89441   0.25000   0.00000  Uiso   1.00
O729   O     0.10947   0.83333   0.32681   0.00000  Uiso   1.00
O730   O     0.18591   0.83332   0.32681   0.00000  Uiso   1.00
O731   O     0.12843   0.77226   0.24999   0.00000  Uiso   1.00
O732   O     0.20488   0.77225   0.24999   0.00000  Uiso   1.00
O733   O     0.14742   0.83335   0.17319   0.00000  Uiso   1.00
O734   O     0.22387   0.83334   0.17319   0.00000  Uiso   1.00
Zn735  Zn    0.11562   0.83334   0.25000   0.00000  Uiso   1.00
Zn736  Zn    0.21771   0.83333   0.25000   0.00000  Uiso   1.00
N737   N     0.28433   0.86206   0.09104   0.00000  Uiso   1.00
H738   H     0.31746   0.85139   0.07606   0.00000  Uiso   1.00
C739   C     0.28471   0.90600   0.09852   0.00000  Uiso   1.00
H740   H     0.29486   0.92217   0.06134   0.00000  Uiso   1.00
H741   H     0.31075   0.91374   0.11977   0.00000  Uiso   1.00
H742   H     0.24981   0.91636   0.12039   0.00000  Uiso   1.00
C743   C     0.24218   0.70313   0.27481   0.00000  Uiso   1.00
N744   N     0.27152   0.71460   0.29250   0.00000  Uiso   1.00
N745   N     0.07835   0.69988   0.27046   0.00000  Uiso   1.00
H746   H     0.07631   0.72671   0.29069   0.00000  Uiso   1.00
C747   C     0.04144   0.67248   0.29778   0.00000  Uiso   1.00
H748   H     0.05498   0.98466   0.32176   0.00000  Uiso   1.00
H749   H     0.02465   0.98947   0.27134   0.00000  Uiso   1.00
H750   H     0.01351   0.69048   0.32363   0.00000  Uiso   1.00
N751   N     0.09937   0.95762   0.20830   0.00000  Uiso   1.00
H752   H     0.07093   0.94268   0.23122   0.00000  Uiso   1.00
C753   C     0.09087   0.97856   0.16514   0.00000  Uiso   1.00
H754   H     0.06613   0.67040   0.17839   0.00000  Uiso   1.00
H755   H     0.07536   0.95646   0.14264   0.00000  Uiso   1.00
H756   H     0.12397   0.99102   0.14019   0.00000  Uiso   1.00
N757   N     0.29665   0.77422   0.19552   0.00000  Uiso   1.00
H758   H     0.29890   0.74438   0.20595   0.00000  Uiso   1.00
C759   C     0.31287   0.77867   0.14105   0.00000  Uiso   1.00
H760   H     0.28248   0.78196   0.12515   0.00000  Uiso   1.00
H761   H     0.33119   0.75053   0.12395   0.00000  Uiso   1.00
H762   H     0.00377   0.80547   0.13007   0.00000  Uiso   1.00
N763   N     0.05132   0.76411   0.21781   0.00000  Uiso   1.00
H764   H     0.02998   0.73879   0.22943   0.00000  Uiso   1.00
C765   C     0.08152   0.75917   0.16771   0.00000  Uiso   1.00
H766   H     0.06614   0.73556   0.14720   0.00000  Uiso   1.00
H767   H     0.11576   0.74786   0.16995   0.00000  Uiso   1.00
H768   H     0.08675   0.78856   0.14681   0.00000  Uiso   1.00
C769   C     0.03587   0.89066   0.30811   0.00000  Uiso   1.00
N770   N     0.04906   0.91102   0.33664   0.00000  Uiso   1.00
C771   C     0.27376   0.89384   0.30449   0.00000  Uiso   1.00
N772   N     0.24973   0.91815   0.32875   0.00000  Uiso   1.00
N773   N     0.28931   0.79585   0.41865   0.00000  Uiso   1.00
H774   H     0.28963   0.76433   0.41413   0.00000  Uiso   1.00
C775   C     0.31969   0.81747   0.37673   0.00000  Uiso   1.00
H776   H     0.32472   0.79897   0.34136   0.00000  Uiso   1.00
H777   H     0.02054   0.82286   0.38455   0.00000  Uiso   1.00
H778   H     0.30542   0.84797   0.37221   0.00000  Uiso   1.00
C779   C     0.31046   0.85756   0.48451   0.00000  Uiso   1.00
N780   N     0.01417   0.86909   0.46352   0.00000  Uiso   1.00
C781   C     0.12304   0.85261   0.08748   0.00000  Uiso   1.00
N782   N     0.08571   0.86410   0.10526   0.00000  Uiso   1.00
N783   N     0.07245   0.76010   0.39260   0.00000  Uiso   1.00
H784   H     0.07237   0.77135   0.35757   0.00000  Uiso   1.00
C785   C     0.08323   0.71659   0.39131   0.00000  Uiso   1.00
H786   H     0.05063   0.69812   0.39636   0.00000  Uiso   1.00
H787   H     0.10016   0.70759   0.42131   0.00000  Uiso   1.00
H788   H     0.10803   0.70869   0.35481   0.00000  Uiso   1.00
N789   N     0.10996   0.76909   0.05295   0.00000  Uiso   1.00
H790   H     0.07656   0.76144   0.07263   0.00000  Uiso   1.00
C791   C     0.14182   0.73504   0.04729   0.00000  Uiso   1.00
H792   H     0.17838   0.74582   0.03160   0.00000  Uiso   1.00
H793   H     0.13335   0.71107   0.02167   0.00000  Uiso   1.00
H794   H     0.13939   0.72082   0.08469   0.00000  Uiso   1.00
N795   N     0.04746   0.74411   0.49610   0.00000  Uiso   1.00
H796   H     0.05620   0.72096   0.01729   0.00000  Uiso   1.00
C797   C     0.00110   0.75911   0.01618   0.00000  Uiso   1.00
H798   H     0.31153   0.73460   0.03833   0.00000  Uiso   1.00
H799   H     0.32014   0.76786   0.48466   0.00000  Uiso   1.00
H800   H     0.00169   0.78632   0.04057   0.00000  Uiso   1.00
N801   N     0.21813   0.77387   0.37281   0.00000  Uiso   1.00
H802   H     0.24942   0.77606   0.34574   0.00000  Uiso   1.00
C803   C     0.20428   0.73272   0.39221   0.00000  Uiso   1.00
H804   H     0.23539   0.71479   0.39319   0.00000  Uiso   1.00
H805   H     0.18537   0.71688   0.36733   0.00000  Uiso   1.00
H806   H     0.18067   0.73312   0.43127   0.00000  Uiso   1.00
N807   N     0.25852   0.96319   0.21627   0.00000  Uiso   1.00
H808   H     0.26000   0.93448   0.20017   0.00000  Uiso   1.00
C809   C     0.29465   0.98969   0.18503   0.00000  Uiso   1.00
H810   H     0.28001   0.67769   0.16174   0.00000  Uiso   1.00
H811   H     0.32163   0.97123   0.15892   0.00000  Uiso   1.00
H812   H     0.31325   0.67358   0.20911   0.00000  Uiso   1.00
C813   C     0.50223   0.91285   0.24291   0.00000  Uiso   1.00
C814   C     0.48364   0.81566   0.48527   0.00000  Uiso   1.00
C815   C     0.49753   0.81710   0.43211   0.00000  Uiso   1.00
C816   C     0.51649   0.82861   0.01253   0.00000  Uiso   1.00
C817   C     0.56446   0.82964   0.48645   0.00000  Uiso   1.00
C818   C     0.57774   0.81281   0.43705   0.00000  Uiso   1.00
C819   C     0.54367   0.80506   0.41071   0.00000  Uiso   1.00
C820   C     0.50327   0.83857   0.06486   0.00000  Uiso   1.00
C821   C     0.58433   0.84797   0.06525   0.00000  Uiso   1.00
C822   C     0.46391   0.81242   0.40398   0.00000  Uiso   1.00
C823   C     0.54589   0.97998   0.23410   0.00000  Uiso   1.00
C824   C     0.47552   0.82710   0.35000   0.00000  Uiso   1.00
C825   C     0.54013   0.68687   0.25213   0.00000  Uiso   1.00
C826   C     0.49795   0.70746   0.25521   0.00000  Uiso   1.00
C827   C     0.45788   0.68423   0.25149   0.00000  Uiso   1.00
C828   C     0.46441   0.97726   0.23269   0.00000  Uiso   1.00
C829   C     0.50538   0.95708   0.23342   0.00000  Uiso   1.00
C830   C     0.64772   0.80360   0.22482   0.00000  Uiso   1.00
C831   C     0.36129   0.80178   0.22840   0.00000  Uiso   1.00
C832   C     0.35239   0.86381   0.27421   0.00000  Uiso   1.00
C833   C     0.63749   0.86357   0.27475   0.00000  Uiso   1.00
C834   C     0.49872   0.75290   0.25362   0.00000  Uiso   1.00
C835   C     0.52465   0.83626   0.14904   0.00000  Uiso   1.00
C836   C     0.59745   0.84380   0.01205   0.00000  Uiso   1.00
C837   C     0.53751   0.84087   0.09254   0.00000  Uiso   1.00
C838   C     0.42578   0.78536   0.42483   0.00000  Uiso   1.00
C839   C     0.41563   0.77502   0.47684   0.00000  Uiso   1.00
C840   C     0.44492   0.78966   0.00686   0.00000  Uiso   1.00
N841   N     0.38093   0.83334   0.25001   0.00000  Uiso   1.00
N842   N     0.61906   0.83331   0.25000   0.00000  Uiso   1.00
O843   O     0.46179   0.89442   0.25000   0.00000  Uiso   1.00
O844   O     0.53823   0.89441   0.25000   0.00000  Uiso   1.00
O845   O     0.44280   0.83333   0.32681   0.00000  Uiso   1.00
O846   O     0.51924   0.83332   0.32681   0.00000  Uiso   1.00
O847   O     0.46177   0.77226   0.24999   0.00000  Uiso   1.00
O848   O     0.53821   0.77225   0.24999   0.00000  Uiso   1.00
O849   O     0.48076   0.83335   0.17319   0.00000  Uiso   1.00
O850   O     0.55720   0.83334   0.17319   0.00000  Uiso   1.00
Zn851  Zn    0.44896   0.83334   0.25000   0.00000  Uiso   1.00
Zn852  Zn    0.55104   0.83333   0.25000   0.00000  Uiso   1.00
N853   N     0.61766   0.86206   0.09104   0.00000  Uiso   1.00
H854   H     0.65080   0.85139   0.07606   0.00000  Uiso   1.00
C855   C     0.61804   0.90600   0.09852   0.00000  Uiso   1.00
H856   H     0.62819   0.92217   0.06134   0.00000  Uiso   1.00
H857   H     0.64408   0.91374   0.11977   0.00000  Uiso   1.00
H858   H     0.58315   0.91636   0.12039   0.00000  Uiso   1.00
C859   C     0.57552   0.70313   0.27481   0.00000  Uiso   1.00
N860   N     0.60485   0.71460   0.29250   0.00000  Uiso   1.00
N861   N     0.41168   0.69988   0.27046   0.00000  Uiso   1.00
H862   H     0.40964   0.72671   0.29069   0.00000  Uiso   1.00
C863   C     0.37477   0.67248   0.29778   0.00000  Uiso   1.00
H864   H     0.38832   0.98466   0.32176   0.00000  Uiso   1.00
H865   H     0.35798   0.98947   0.27134   0.00000  Uiso   1.00
H866   H     0.34685   0.69048   0.32363   0.00000  Uiso   1.00
N867   N     0.43270   0.95762   0.20830   0.00000  Uiso   1.00
H868   H     0.40427   0.94268   0.23122   0.00000  Uiso   1.00
C869   C     0.42420   0.97856   0.16514   0.00000  Uiso   1.00
H870   H     0.39946   0.67040   0.17839   0.00000  Uiso   1.00
H871   H     0.40869   0.95646   0.14264   0.00000  Uiso   1.00
H872   H     0.45731   0.99102   0.14019   0.00000  Uiso   1.00
N873   N     0.62999   0.77422   0.19552   0.00000  Uiso   1.00
H874   H     0.63224   0.74438   0.20595   0.00000  Uiso   1.00
C875   C     0.64620   0.77867   0.14105   0.00000  Uiso   1.00
H876   H     0.61582   0.78196   0.12515   0.00000  Uiso   1.00
H877   H     0.66453   0.75053   0.12395   0.00000  Uiso   1.00
H878   H     0.33711   0.80547   0.13007   0.00000  Uiso   1.00
N879   N     0.38465   0.76411   0.21781   0.00000  Uiso   1.00
H880   H     0.36331   0.73879   0.22943   0.00000  Uiso   1.00
C881   C     0.41486   0.75917   0.16771   0.00000  Uiso   1.00
H882   H     0.39948   0.73556   0.14720   0.00000  Uiso   1.00
H883   H     0.44909   0.74786   0.16995   0.00000  Uiso   1.00
H884   H     0.42009   0.78856   0.14681   0.00000  Uiso   1.00
C885   C     0.36920   0.89066   0.30811   0.00000  Uiso   1.00
N886   N     0.38239   0.91102   0.33664   0.00000  Uiso   1.00
C887   C     0.60709   0.89384   0.30449   0.00000  Uiso   1.00
N888   N     0.58306   0.91815   0.32875   0.00000  Uiso   1.00
N889   N     0.62264   0.79585   0.41865   0.00000  Uiso   1.00
H890   H     0.62296   0.76433   0.41413   0.00000  Uiso   1.00
C891   C     0.65303   0.81747   0.37673   0.00000  Uiso   1.00
H892   H     0.65806   0.79897   0.34136   0.00000  Uiso   1.00
H893   H     0.35387   0.82286   0.38455   0.00000  Uiso   1.00
H894   H     0.63875   0.84797   0.37221   0.00000  Uiso   1.00
C895   C     0.64379   0.85756   0.48451   0.00000  Uiso   1.00
N896   N     0.34751   0.86909   0.46352   0.00000  Uiso   1.00
C897   C     0.45638   0.85261   0.08748   0.00000  Uiso   1.00
N898   N     0.41905   0.86410   0.10526   0.00000  Uiso   1.00
N899   N     0.40578   0.76010   0.39260   0.00000  Uiso   1.00
H900   H     0.40571   0.77135   0.35757   0.00000  Uiso   1.00
C901   C     0.41656   0.71659   0.39131   0.00000  Uiso   1.00
H902   H     0.38396   0.69812   0.39636   0.00000  Uiso   1.00
H903   H     0.43350   0.70759   0.42131   0.00000  Uiso   1.00
H904   H     0.44136   0.70869   0.35481   0.00000  Uiso   1.00
N905   N     0.44329   0.76909   0.05295   0.00000  Uiso   1.00
H906   H     0.40989   0.76144   0.07263   0.00000  Uiso   1.00
C907   C     0.47516   0.73504   0.04729   0.00000  Uiso   1.00
H908   H     0.51171   0.74582   0.03160   0.00000  Uiso   1.00
H909   H     0.46668   0.71107   0.02167   0.00000  Uiso   1.00
H910   H     0.47273   0.72082   0.08469   0.00000  Uiso   1.00
N911   N     0.38079   0.74411   0.49610   0.00000  Uiso   1.00
H912   H     0.38954   0.72096   0.01729   0.00000  Uiso   1.00
C913   C     0.33444   0.75911   0.01618   0.00000  Uiso   1.00
H914   H     0.64487   0.73460   0.03833   0.00000  Uiso   1.00
H915   H     0.65347   0.76786   0.48466   0.00000  Uiso   1.00
H916   H     0.33502   0.78632   0.04057   0.00000  Uiso   1.00
N917   N     0.55146   0.77387   0.37281   0.00000  Uiso   1.00
H918   H     0.58275   0.77606   0.34574   0.00000  Uiso   1.00
C919   C     0.53762   0.73272   0.39221   0.00000  Uiso   1.00
H920   H     0.56872   0.71479   0.39319   0.00000  Uiso   1.00
H921   H     0.51871   0.71688   0.36733   0.00000  Uiso   1.00
H922   H     0.51400   0.73312   0.43127   0.00000  Uiso   1.00
N923   N     0.59185   0.96319   0.21627   0.00000  Uiso   1.00
H924   H     0.59333   0.93448   0.20017   0.00000  Uiso   1.00
C925   C     0.62798   0.98969   0.18503   0.00000  Uiso   1.00
H926   H     0.61335   0.67769   0.16174   0.00000  Uiso   1.00
H927   H     0.65496   0.97123   0.15892   0.00000  Uiso   1.00
H928   H     0.64658   0.67358   0.20911   0.00000  Uiso   1.00
C929   C     0.83556   0.91285   0.24291   0.00000  Uiso   1.00
C930   C     0.81698   0.81566   0.48527   0.00000  Uiso   1.00
C931   C     0.83086   0.81710   0.43211   0.00000  Uiso   1.00
C932   C     0.84982   0.82861   0.01253   0.00000  Uiso   1.00
C933   C     0.89779   0.82964   0.48645   0.00000  Uiso   1.00
C934   C     0.91107   0.81281   0.43705   0.00000  Uiso   1.00
C935   C     0.87700   0.80506   0.41071   0.00000  Uiso   1.00
C936   C     0.83661   0.83857   0.06486   0.00000  Uiso   1.00
C937   C     0.91766   0.84797   0.06525   0.00000  Uiso   1.00
C938   C     0.79724   0.81242   0.40398   0.00000  Uiso   1.00
C939   C     0.87922   0.97998   0.23410   0.00000  Uiso   1.00
C940   C     0.80885   0.82710   0.35000   0.00000  Uiso   1.00
C941   C     0.87346   0.68687   0.25213   0.00000  Uiso   1.00
C942   C     0.83129   0.70746   0.25521   0.00000  Uiso   1.00
C943   C     0.79121   0.68423   0.25149   0.00000  Uiso   1.00
C944   C     0.79775   0.97726   0.23269   0.00000  Uiso   1.00
C945   C     0.83871   0.95708   0.23342   0.00000  Uiso   1.00
C946   C     0.98106   0.80360   0.22482   0.00000  Uiso   1.00
C947   C     0.69462   0.80178   0.22840   0.00000  Uiso   1.00
C948   C     0.68573   0.86381   0.27421   0.00000  Uiso   1.00
C949   C     0.97082   0.86357   0.27475   0.00000  Uiso   1.00
C950   C     0.83206   0.75290   0.25362   0.00000  Uiso   1.00
C951   C     0.85798   0.83626   0.14904   0.00000  Uiso   1.00
C952   C     0.93079   0.84380   0.01205   0.00000  Uiso   1.00
C953   C     0.87084   0.84087   0.09254   0.00000  Uiso   1.00
C954   C     0.75912   0.78536   0.42483   0.00000  Uiso   1.00
C955   C     0.74896   0.77502   0.47684   0.00000  Uiso   1.00
C956   C     0.77826   0.78966   0.00686   0.00000  Uiso   1.00
N957   N     0.71426   0.83334   0.25001   0.00000  Uiso   1.00
N958   N     0.95239   0.83331   0.25000   0.00000  Uiso   1.00
O959   O     0.79512   0.89442   0.25000   0.00000  Uiso   1.00
O960   O     0.87157   0.89441   0.25000   0.00000  Uiso   1.00
O961   O     0.77613   0.83333   0.32681   0.00000  Uiso   1.00
O962   O     0.85258   0.83332   0.32681   0.00000  Uiso   1.00
O963   O     0.79510   0.77226   0.24999   0.00000  Uiso   1.00
O964   O     0.87154   0.77225   0.24999   0.00000  Uiso   1.00
O965   O     0.81409   0.83335   0.17319   0.00000  Uiso   1.00
O966   O     0.89053   0.83334   0.17319   0.00000  Uiso   1.00
Zn967  Zn    0.78229   0.83334   0.25000   0.00000  Uiso   1.00
Zn968  Zn    0.88438   0.83333   0.25000   0.00000  Uiso   1.00
N969   N     0.95099   0.86206   0.09104   0.00000  Uiso   1.00
H970   H     0.98413   0.85139   0.07606   0.00000  Uiso   1.00
C971   C     0.95138   0.90600   0.09852   0.00000  Uiso   1.00
H972   H     0.96153   0.92217   0.06134   0.00000  Uiso   1.00
H973   H     0.97741   0.91374   0.11977   0.00000  Uiso   1.00
H974   H     0.91648   0.91636   0.12039   0.00000  Uiso   1.00
C975   C     0.90885   0.70313   0.27481   0.00000  Uiso   1.00
N976   N     0.93818   0.71460   0.29250   0.00000  Uiso   1.00
N977   N     0.74501   0.69988   0.27046   0.00000  Uiso   1.00
H978   H     0.74297   0.72671   0.29069   0.00000  Uiso   1.00
C979   C     0.70810   0.67248   0.29778   0.00000  Uiso   1.00
H980   H     0.72165   0.98466   0.32176   0.00000  Uiso   1.00
H981   H     0.69131   0.98947   0.27134   0.00000  Uiso   1.00
H982   H     0.68018   0.69048   0.32363   0.00000  Uiso   1.00
N983   N     0.76604   0.95762   0.20830   0.00000  Uiso   1.00
H984   H     0.73760   0.94268   0.23122   0.00000  Uiso   1.00
C985   C     0.75754   0.97856   0.16514   0.00000  Uiso   1.00
H986   H     0.73280   0.67040   0.17839   0.00000  Uiso   1.00
H987   H     0.74203   0.95646   0.14264   0.00000  Uiso   1.00
H988   H     0.79064   0.99102   0.14019   0.00000  Uiso   1.00
N989   N     0.96332   0.77422   0.19552   0.00000  Uiso   1.00
H990   H     0.96557   0.74438   0.20595   0.00000  Uiso   1.00
C991   C     0.97953   0.77867   0.14105   0.00000  Uiso   1.00
H992   H     0.94915   0.78196   0.12515   0.00000  Uiso   1.00
H993   H     0.99786   0.75053   0.12395   0.00000  Uiso   1.00
H994   H     0.67044   0.80547   0.13007   0.00000  Uiso   1.00
N995   N     0.71798   0.76411   0.21781   0.00000  Uiso   1.00
H996   H     0.69664   0.73879   0.22943   0.00000  Uiso   1.00
C997   C     0.74819   0.75917   0.16771   0.00000  Uiso   1.00
H998   H     0.73281   0.73556   0.14720   0.00000  Uiso   1.00
H999   H     0.78243   0.74786   0.16995   0.00000  Uiso   1.00
H1000  H     0.75342   0.78856   0.14681   0.00000  Uiso   1.00
C1001  C     0.70253   0.89066   0.30811   0.00000  Uiso   1.00
N1002  N     0.71573   0.91102   0.33664   0.00000  Uiso   1.00
C1003  C     0.94043   0.89384   0.30449   0.00000  Uiso   1.00
N1004  N     0.91640   0.91815   0.32875   0.00000  Uiso   1.00
N1005  N     0.95597   0.79585   0.41865   0.00000  Uiso   1.00
H1006  H     0.95629   0.76433   0.41413   0.00000  Uiso   1.00
C1007  C     0.98636   0.81747   0.37673   0.00000  Uiso   1.00
H1008  H     0.99139   0.79897   0.34136   0.00000  Uiso   1.00
H1009  H     0.68721   0.82286   0.38455   0.00000  Uiso   1.00
H1010  H     0.97209   0.84797   0.37221   0.00000  Uiso   1.00
C1011  C     0.97712   0.85756   0.48451   0.00000  Uiso   1.00
N1012  N     0.68084   0.86909   0.46352   0.00000  Uiso   1.00
C1013  C     0.78971   0.85261   0.08748   0.00000  Uiso   1.00
N1014  N     0.75238   0.86410   0.10526   0.00000  Uiso   1.00
N1015  N     0.73911   0.76010   0.39260   0.00000  Uiso   1.00
H1016  H     0.73904   0.77135   0.35757   0.00000  Uiso   1.00
C1017  C     0.74989   0.71659   0.39131   0.00000  Uiso   1.00
H1018  H     0.71729   0.69812   0.39636   0.00000  Uiso   1.00
H1019  H     0.76683   0.70759   0.42131   0.00000  Uiso   1.00
H1020  H     0.77469   0.70869   0.35481   0.00000  Uiso   1.00
N1021  N     0.77663   0.76909   0.05295   0.00000  Uiso   1.00
H1022  H     0.74322   0.76144   0.07263   0.00000  Uiso   1.00
C1023  C     0.80849   0.73504   0.04729   0.00000  Uiso   1.00
H1024  H     0.84504   0.74582   0.03160   0.00000  Uiso   1.00
H1025  H     0.80001   0.71107   0.02167   0.00000  Uiso   1.00
H1026  H     0.80606   0.72082   0.08469   0.00000  Uiso   1.00
N1027  N     0.71412   0.74411   0.49610   0.00000  Uiso   1.00
H1028  H     0.72287   0.72096   0.01729   0.00000  Uiso   1.00
C1029  C     0.66777   0.75911   0.01618   0.00000  Uiso   1.00
H1030  H     0.97820   0.73460   0.03833   0.00000  Uiso   1.00
H1031  H     0.98680   0.76786   0.48466   0.00000  Uiso   1.00
H1032  H     0.66836   0.78632   0.04057   0.00000  Uiso   1.00
N1033  N     0.88480   0.77387   0.37281   0.00000  Uiso   1.00
H1034  H     0.91608   0.77606   0.34574   0.00000  Uiso   1.00
C1035  C     0.87095   0.73272   0.39221   0.00000  Uiso   1.00
H1036  H     0.90206   0.71479   0.39319   0.00000  Uiso   1.00
H1037  H     0.85204   0.71688   0.36733   0.00000  Uiso   1.00
H1038  H     0.84734   0.73312   0.43127   0.00000  Uiso   1.00
N1039  N     0.92519   0.96319   0.21627   0.00000  Uiso   1.00
H1040  H     0.92667   0.93448   0.20017   0.00000  Uiso   1.00
C1041  C     0.96132   0.98969   0.18503   0.00000  Uiso   1.00
H1042  H     0.94668   0.67769   0.16174   0.00000  Uiso   1.00
H1043  H     0.98829   0.97123   0.15892   0.00000  Uiso   1.00
H1044  H     0.97992   0.67358   0.20911   0.00000  Uiso   1.00
C1045  C     0.16889   0.24618   0.74291   0.00000  Uiso   1.00
C1046  C     0.15031   0.14899   0.98527   0.00000  Uiso   1.00
C1047  C     0.16419   0.15043   0.93211   0.00000  Uiso   1.00
C1048  C     0.18315   0.16195   0.51253   0.00000  Uiso   1.00
C1049  C     0.23113   0.16298   0.98645   0.00000  Uiso   1.00
C1050  C     0.24441   0.14614   0.93705   0.00000  Uiso   1.00
C1051  C     0.21033   0.13840   0.91071   0.00000  Uiso   1.00
C1052  C     0.16994   0.17190   0.56486   0.00000  Uiso   1.00
C1053  C     0.25099   0.18131   0.56525   0.00000  Uiso   1.00
C1054  C     0.13057   0.14575   0.90398   0.00000  Uiso   1.00
C1055  C     0.21255   0.31331   0.73410   0.00000  Uiso   1.00
C1056  C     0.14219   0.16043   0.85000   0.00000  Uiso   1.00
C1057  C     0.20680   0.02021   0.75213   0.00000  Uiso   1.00
C1058  C     0.16462   0.04080   0.75521   0.00000  Uiso   1.00
C1059  C     0.12454   0.01757   0.75149   0.00000  Uiso   1.00
C1060  C     0.13108   0.31059   0.73269   0.00000  Uiso   1.00
C1061  C     0.17204   0.29042   0.73342   0.00000  Uiso   1.00
C1062  C     0.31439   0.13693   0.72482   0.00000  Uiso   1.00
C1063  C     0.02795   0.13511   0.72840   0.00000  Uiso   1.00
C1064  C     0.01906   0.19714   0.77421   0.00000  Uiso   1.00
C1065  C     0.30416   0.19691   0.77475   0.00000  Uiso   1.00
C1066  C     0.16539   0.08624   0.75362   0.00000  Uiso   1.00
C1067  C     0.19131   0.16959   0.64904   0.00000  Uiso   1.00
C1068  C     0.26412   0.17713   0.51205   0.00000  Uiso   1.00
C1069  C     0.20417   0.17421   0.59254   0.00000  Uiso   1.00
C1070  C     0.09245   0.11869   0.92483   0.00000  Uiso   1.00
C1071  C     0.08229   0.10835   0.97684   0.00000  Uiso   1.00
C1072  C     0.11159   0.12299   0.50686   0.00000  Uiso   1.00
N1073  N     0.04760   0.16668   0.75001   0.00000  Uiso   1.00
N1074  N     0.28573   0.16665   0.75000   0.00000  Uiso   1.00
O1075  O     0.12846   0.22775   0.75000   0.00000  Uiso   1.00
O1076  O     0.20490   0.22774   0.75000   0.00000  Uiso   1.00
O1077  O     0.10947   0.16666   0.82681   0.00000  Uiso   1.00
O1078  O     0.18591   0.16665   0.82681   0.00000  Uiso   1.00
O1079  O     0.12843   0.10559   0.74999   0.00000  Uiso   1.00
O1080  O     0.20488   0.10558   0.74999   0.00000  Uiso   1.00
O1081  O     0.14742   0.16668   0.67319   0.00000  Uiso   1.00
O1082  O     0.22387   0.16667   0.67319   0.00000  Uiso   1.00
Zn1083 Zn    0.11562   0.16667   0.75000   0.00000  Uiso   1.00
Zn1084 Zn    0.21771   0.16666   0.75000   0.00000  Uiso   1.00
N1085  N     0.28433   0.19540   0.59104   0.00000  Uiso   1.00
H1086  H     0.31746   0.18472   0.57606   0.00000  Uiso   1.00
C1087  C     0.28471   0.23933   0.59852   0.00000  Uiso   1.00
H1088  H     0.29486   0.25550   0.56134   0.00000  Uiso   1.00
H1089  H     0.31075   0.24708   0.61977   0.00000  Uiso   1.00
H1090  H     0.24981   0.24970   0.62039   0.00000  Uiso   1.00
C1091  C     0.24218   0.03646   0.77481   0.00000  Uiso   1.00
N1092  N     0.27152   0.04793   0.79250   0.00000  Uiso   1.00
N1093  N     0.07835   0.03321   0.77046   0.00000  Uiso   1.00
H1094  H     0.07631   0.06005   0.79069   0.00000  Uiso   1.00
C1095  C     0.04144   0.00581   0.79778   0.00000  Uiso   1.00
H1096  H     0.05498   0.31799   0.82176   0.00000  Uiso   1.00
H1097  H     0.02465   0.32280   0.77134   0.00000  Uiso   1.00
H1098  H     0.01351   0.02381   0.82363   0.00000  Uiso   1.00
N1099  N     0.09937   0.29095   0.70830   0.00000  Uiso   1.00
H1100  H     0.07093   0.27601   0.73122   0.00000  Uiso   1.00
C1101  C     0.09087   0.31189   0.66514   0.00000  Uiso   1.00
H1102  H     0.06613   0.00373   0.67839   0.00000  Uiso   1.00
H1103  H     0.07536   0.28980   0.64264   0.00000  Uiso   1.00
H1104  H     0.12397   0.32436   0.64019   0.00000  Uiso   1.00
N1105  N     0.29665   0.10756   0.69552   0.00000  Uiso   1.00
H1106  H     0.29890   0.07771   0.70595   0.00000  Uiso   1.00
C1107  C     0.31287   0.11201   0.64105   0.00000  Uiso   1.00
H1108  H     0.28248   0.11529   0.62515   0.00000  Uiso   1.00
H1109  H     0.33119   0.08386   0.62395   0.00000  Uiso   1.00
H1110  H     0.00377   0.13880   0.63007   0.00000  Uiso   1.00
N1111  N     0.05132   0.09744   0.71781   0.00000  Uiso   1.00
H1112  H     0.02998   0.07213   0.72943   0.00000  Uiso   1.00
C1113  C     0.08152   0.09250   0.66771   0.00000  Uiso   1.00
H1114  H     0.06614   0.06889   0.64720   0.00000  Uiso   1.00
H1115  H     0.11576   0.08120   0.66995   0.00000  Uiso   1.00
H1116  H     0.08675   0.12189   0.64681   0.00000  Uiso   1.00
C1117  C     0.03587   0.22399   0.80811   0.00000  Uiso   1.00
N1118  N     0.04906   0.24435   0.83664   0.00000  Uiso   1.00
C1119  C     0.27376   0.22717   0.80449   0.00000  Uiso   1.00
N1120  N     0.24973   0.25148   0.82875   0.00000  Uiso   1.00
N1121  N     0.28931   0.12919   0.91865   0.00000  Uiso   1.00
H1122  H     0.28963   0.09766   0.91413   0.00000  Uiso   1.00
C1123  C     0.31969   0.15080   0.87673   0.00000  Uiso   1.00
H1124  H     0.32472   0.13230   0.84136   0.00000  Uiso   1.00
H1125  H     0.02054   0.15620   0.88455   0.00000  Uiso   1.00
H1126  H     0.30542   0.18130   0.87221   0.00000  Uiso   1.00
C1127  C     0.31046   0.19090   0.98451   0.00000  Uiso   1.00
N1128  N     0.01417   0.20243   0.96352   0.00000  Uiso   1.00
C1129  C     0.12304   0.18594   0.58748   0.00000  Uiso   1.00
N1130  N     0.08571   0.19743   0.60526   0.00000  Uiso   1.00
N1131  N     0.07245   0.09343   0.89260   0.00000  Uiso   1.00
H1132  H     0.07237   0.10468   0.85757   0.00000  Uiso   1.00
C1133  C     0.08323   0.04993   0.89131   0.00000  Uiso   1.00
H1134  H     0.05063   0.03146   0.89636   0.00000  Uiso   1.00
H1135  H     0.10016   0.04092   0.92131   0.00000  Uiso   1.00
H1136  H     0.10803   0.04202   0.85481   0.00000  Uiso   1.00
N1137  N     0.10996   0.10242   0.55295   0.00000  Uiso   1.00
H1138  H     0.07656   0.09477   0.57263   0.00000  Uiso   1.00
C1139  C     0.14182   0.06838   0.54729   0.00000  Uiso   1.00
H1140  H     0.17838   0.07915   0.53160   0.00000  Uiso   1.00
H1141  H     0.13335   0.04440   0.52167   0.00000  Uiso   1.00
H1142  H     0.13939   0.05415   0.58469   0.00000  Uiso   1.00
N1143  N     0.04746   0.07744   0.99610   0.00000  Uiso   1.00
H1144  H     0.05620   0.05429   0.51729   0.00000  Uiso   1.00
C1145  C     0.00110   0.09244   0.51618   0.00000  Uiso   1.00
H1146  H     0.31153   0.06793   0.53833   0.00000  Uiso   1.00
H1147  H     0.32014   0.10119   0.98466   0.00000  Uiso   1.00
H1148  H     0.00169   0.11966   0.54057   0.00000  Uiso   1.00
N1149  N     0.21813   0.10720   0.87281   0.00000  Uiso   1.00
H1150  H     0.24942   0.10940   0.84574   0.00000  Uiso   1.00
C1151  C     0.20428   0.06605   0.89221   0.00000  Uiso   1.00
H1152  H     0.23539   0.04812   0.89319   0.00000  Uiso   1.00
H1153  H     0.18537   0.05021   0.86733   0.00000  Uiso   1.00
H1154  H     0.18067   0.06645   0.93127   0.00000  Uiso   1.00
N1155  N     0.25852   0.29652   0.71627   0.00000  Uiso   1.00
H1156  H     0.26000   0.26781   0.70017   0.00000  Uiso   1.00
C1157  C     0.29465   0.32303   0.68503   0.00000  Uiso   1.00
H1158  H     0.28001   0.01103   0.66174   0.00000  Uiso   1.00
H1159  H     0.32163   0.30457   0.65892   0.00000  Uiso   1.00
H1160  H     0.31325   0.00692   0.70911   0.00000  Uiso   1.00
C1161  C     0.50223   0.24618   0.74291   0.00000  Uiso   1.00
C1162  C     0.48364   0.14899   0.98527   0.00000  Uiso   1.00
C1163  C     0.49753   0.15043   0.93211   0.00000  Uiso   1.00
C1164  C     0.51649   0.16195   0.51253   0.00000  Uiso   1.00
C1165  C     0.56446   0.16298   0.98645   0.00000  Uiso   1.00
C1166  C     0.57774   0.14614   0.93705   0.00000  Uiso   1.00
C1167  C     0.54367   0.13840   0.91071   0.00000  Uiso   1.00
C1168  C     0.50327   0.17190   0.56486   0.00000  Uiso   1.00
C1169  C     0.58433   0.18131   0.56525   0.00000  Uiso   1.00
C1170  C     0.46391   0.14575   0.90398   0.00000  Uiso   1.00
C1171  C     0.54589   0.31331   0.73410   0.00000  Uiso   1.00
C1172  C     0.47552   0.16043   0.85000   0.00000  Uiso   1.00
C1173  C     0.54013   0.02021   0.75213   0.00000  Uiso   1.00
C1174  C     0.49795   0.04080   0.75521   0.00000  Uiso   1.00
C1175  C     0.45788   0.01757   0.75149   0.00000  Uiso   1.00
C1176  C     0.46441   0.31059   0.73269   0.00000  Uiso   1.00
C1177  C     0.50538   0.29042   0.73342   0.00000  Uiso   1.00
C1178  C     0.64772   0.13693   0.72482   0.00000  Uiso   1.00
C1179  C     0.36129   0.13511   0.72840   0.00000  Uiso   1.00
C1180  C     0.35239   0.19714   0.77421   0.00000  Uiso   1.00
C1181  C     0.63749   0.19691   0.77475   0.00000  Uiso   1.00
C1182  C     0.49872   0.08624   0.75362   0.00000  Uiso   1.00
C1183  C     0.52465   0.16959   0.64904   0.00000  Uiso   1.00
C1184  C     0.59745   0.17713   0.51205   0.00000  Uiso   1.00
C1185  C     0.53751   0.17421   0.59254   0.00000  Uiso   1.00
C1186  C     0.42578   0.11869   0.92483   0.00000  Uiso   1.00
C1187  C     0.41563   0.10835   0.97684   0.00000  Uiso   1.00
C1188  C     0.44492   0.12299   0.50686   0.00000  Uiso   1.00
N1189  N     0.38093   0.16668   0.75001   0.00000  Uiso   1.00
N1190  N     0.61906   0.16665   0.75000   0.00000  Uiso   1.00
O1191  O     0.46179   0.22775   0.75000   0.00000  Uiso   1.00
O1192  O     0.53823   0.22774   0.75000   0.00000  Uiso   1.00
O1193  O     0.44280   0.16666   0.82681   0.00000  Uiso   1.00
O1194  O     0.51924   0.16665   0.82681   0.00000  Uiso   1.00
O1195  O     0.46177   0.10559   0.74999   0.00000  Uiso   1.00
O1196  O     0.53821   0.10558   0.74999   0.00000  Uiso   1.00
O1197  O     0.48076   0.16668   0.67319   0.00000  Uiso   1.00
O1198  O     0.55720   0.16667   0.67319   0.00000  Uiso   1.00
Zn1199 Zn    0.44896   0.16667   0.75000   0.00000  Uiso   1.00
Zn1200 Zn    0.55104   0.16666   0.75000   0.00000  Uiso   1.00
N1201  N     0.61766   0.19540   0.59104   0.00000  Uiso   1.00
H1202  H     0.65080   0.18472   0.57606   0.00000  Uiso   1.00
C1203  C     0.61804   0.23933   0.59852   0.00000  Uiso   1.00
H1204  H     0.62819   0.25550   0.56134   0.00000  Uiso   1.00
H1205  H     0.64408   0.24708   0.61977   0.00000  Uiso   1.00
H1206  H     0.58315   0.24970   0.62039   0.00000  Uiso   1.00
C1207  C     0.57552   0.03646   0.77481   0.00000  Uiso   1.00
N1208  N     0.60485   0.04793   0.79250   0.00000  Uiso   1.00
N1209  N     0.41168   0.03321   0.77046   0.00000  Uiso   1.00
H1210  H     0.40964   0.06005   0.79069   0.00000  Uiso   1.00
C1211  C     0.37477   0.00581   0.79778   0.00000  Uiso   1.00
H1212  H     0.38832   0.31799   0.82176   0.00000  Uiso   1.00
H1213  H     0.35798   0.32280   0.77134   0.00000  Uiso   1.00
H1214  H     0.34685   0.02381   0.82363   0.00000  Uiso   1.00
N1215  N     0.43270   0.29095   0.70830   0.00000  Uiso   1.00
H1216  H     0.40427   0.27601   0.73122   0.00000  Uiso   1.00
C1217  C     0.42420   0.31189   0.66514   0.00000  Uiso   1.00
H1218  H     0.39946   0.00373   0.67839   0.00000  Uiso   1.00
H1219  H     0.40869   0.28980   0.64264   0.00000  Uiso   1.00
H1220  H     0.45731   0.32436   0.64019   0.00000  Uiso   1.00
N1221  N     0.62999   0.10756   0.69552   0.00000  Uiso   1.00
H1222  H     0.63224   0.07771   0.70595   0.00000  Uiso   1.00
C1223  C     0.64620   0.11201   0.64105   0.00000  Uiso   1.00
H1224  H     0.61582   0.11529   0.62515   0.00000  Uiso   1.00
H1225  H     0.66453   0.08386   0.62395   0.00000  Uiso   1.00
H1226  H     0.33711   0.13880   0.63007   0.00000  Uiso   1.00
N1227  N     0.38465   0.09744   0.71781   0.00000  Uiso   1.00
H1228  H     0.36331   0.07213   0.72943   0.00000  Uiso   1.00
C1229  C     0.41486   0.09250   0.66771   0.00000  Uiso   1.00
H1230  H     0.39948   0.06889   0.64720   0.00000  Uiso   1.00
H1231  H     0.44909   0.08120   0.66995   0.00000  Uiso   1.00
H1232  H     0.42009   0.12189   0.64681   0.00000  Uiso   1.00
C1233  C     0.36920   0.22399   0.80811   0.00000  Uiso   1.00
N1234  N     0.38239   0.24435   0.83664   0.00000  Uiso   1.00
C1235  C     0.60709   0.22717   0.80449   0.00000  Uiso   1.00
N1236  N     0.58306   0.25148   0.82875   0.00000  Uiso   1.00
N1237  N     0.62264   0.12919   0.91865   0.00000  Uiso   1.00
H1238  H     0.62296   0.09766   0.91413   0.00000  Uiso   1.00
C1239  C     0.65303   0.15080   0.87673   0.00000  Uiso   1.00
H1240  H     0.65806   0.13230   0.84136   0.00000  Uiso   1.00
H1241  H     0.35387   0.15620   0.88455   0.00000  Uiso   1.00
H1242  H     0.63875   0.18130   0.87221   0.00000  Uiso   1.00
C1243  C     0.64379   0.19090   0.98451   0.00000  Uiso   1.00
N1244  N     0.34751   0.20243   0.96352   0.00000  Uiso   1.00
C1245  C     0.45638   0.18594   0.58748   0.00000  Uiso   1.00
N1246  N     0.41905   0.19743   0.60526   0.00000  Uiso   1.00
N1247  N     0.40578   0.09343   0.89260   0.00000  Uiso   1.00
H1248  H     0.40571   0.10468   0.85757   0.00000  Uiso   1.00
C1249  C     0.41656   0.04993   0.89131   0.00000  Uiso   1.00
H1250  H     0.38396   0.03146   0.89636   0.00000  Uiso   1.00
H1251  H     0.43350   0.04092   0.92131   0.00000  Uiso   1.00
H1252  H     0.44136   0.04202   0.85481   0.00000  Uiso   1.00
N1253  N     0.44329   0.10242   0.55295   0.00000  Uiso   1.00
H1254  H     0.40989   0.09477   0.57263   0.00000  Uiso   1.00
C1255  C     0.47516   0.06838   0.54729   0.00000  Uiso   1.00
H1256  H     0.51171   0.07915   0.53160   0.00000  Uiso   1.00
H1257  H     0.46668   0.04440   0.52167   0.00000  Uiso   1.00
H1258  H     0.47273   0.05415   0.58469   0.00000  Uiso   1.00
N1259  N     0.38079   0.07744   0.99610   0.00000  Uiso   1.00
H1260  H     0.38954   0.05429   0.51729   0.00000  Uiso   1.00
C1261  C     0.33444   0.09244   0.51618   0.00000  Uiso   1.00
H1262  H     0.64487   0.06793   0.53833   0.00000  Uiso   1.00
H1263  H     0.65347   0.10119   0.98466   0.00000  Uiso   1.00
H1264  H     0.33502   0.11966   0.54057   0.00000  Uiso   1.00
N1265  N     0.55146   0.10720   0.87281   0.00000  Uiso   1.00
H1266  H     0.58275   0.10940   0.84574   0.00000  Uiso   1.00
C1267  C     0.53762   0.06605   0.89221   0.00000  Uiso   1.00
H1268  H     0.56872   0.04812   0.89319   0.00000  Uiso   1.00
H1269  H     0.51871   0.05021   0.86733   0.00000  Uiso   1.00
H1270  H     0.51400   0.06645   0.93127   0.00000  Uiso   1.00
N1271  N     0.59185   0.29652   0.71627   0.00000  Uiso   1.00
H1272  H     0.59333   0.26781   0.70017   0.00000  Uiso   1.00
C1273  C     0.62798   0.32303   0.68503   0.00000  Uiso   1.00
H1274  H     0.61335   0.01103   0.66174   0.00000  Uiso   1.00
H1275  H     0.65496   0.30457   0.65892   0.00000  Uiso   1.00
H1276  H     0.64658   0.00692   0.70911   0.00000  Uiso   1.00
C1277  C     0.83556   0.24618   0.74291   0.00000  Uiso   1.00
C1278  C     0.81698   0.14899   0.98527   0.00000  Uiso   1.00
C1279  C     0.83086   0.15043   0.93211   0.00000  Uiso   1.00
C1280  C     0.84982   0.16195   0.51253   0.00000  Uiso   1.00
C1281  C     0.89779   0.16298   0.98645   0.00000  Uiso   1.00
C1282  C     0.91107   0.14614   0.93705   0.00000  Uiso   1.00
C1283  C     0.87700   0.13840   0.91071   0.00000  Uiso   1.00
C1284  C     0.83661   0.17190   0.56486   0.00000  Uiso   1.00
C1285  C     0.91766   0.18131   0.56525   0.00000  Uiso   1.00
C1286  C     0.79724   0.14575   0.90398   0.00000  Uiso   1.00
C1287  C     0.87922   0.31331   0.73410   0.00000  Uiso   1.00
C1288  C     0.80885   0.16043   0.85000   0.00000  Uiso   1.00
C1289  C     0.87346   0.02021   0.75213   0.00000  Uiso   1.00
C1290  C     0.83129   0.04080   0.75521   0.00000  Uiso   1.00
C1291  C     0.79121   0.01757   0.75149   0.00000  Uiso   1.00
C1292  C     0.79775   0.31059   0.73269   0.00000  Uiso   1.00
C1293  C     0.83871   0.29042   0.73342   0.00000  Uiso   1.00
C1294  C     0.98106   0.13693   0.72482   0.00000  Uiso   1.00
C1295  C     0.69462   0.13511   0.72840   0.00000  Uiso   1.00
C1296  C     0.68573   0.19714   0.77421   0.00000  Uiso   1.00
C1297  C     0.97082   0.19691   0.77475   0.00000  Uiso   1.00
C1298  C     0.83206   0.08624   0.75362   0.00000  Uiso   1.00
C1299  C     0.85798   0.16959   0.64904   0.00000  Uiso   1.00
C1300  C     0.93079   0.17713   0.51205   0.00000  Uiso   1.00
C1301  C     0.87084   0.17421   0.59254   0.00000  Uiso   1.00
C1302  C     0.75912   0.11869   0.92483   0.00000  Uiso   1.00
C1303  C     0.74896   0.10835   0.97684   0.00000  Uiso   1.00
C1304  C     0.77826   0.12299   0.50686   0.00000  Uiso   1.00
N1305  N     0.71426   0.16668   0.75001   0.00000  Uiso   1.00
N1306  N     0.95239   0.16665   0.75000   0.00000  Uiso   1.00
O1307  O     0.79512   0.22775   0.75000   0.00000  Uiso   1.00
O1308  O     0.87157   0.22774   0.75000   0.00000  Uiso   1.00
O1309  O     0.77613   0.16666   0.82681   0.00000  Uiso   1.00
O1310  O     0.85258   0.16665   0.82681   0.00000  Uiso   1.00
O1311  O     0.79510   0.10559   0.74999   0.00000  Uiso   1.00
O1312  O     0.87154   0.10558   0.74999   0.00000  Uiso   1.00
O1313  O     0.81409   0.16668   0.67319   0.00000  Uiso   1.00
O1314  O     0.89053   0.16667   0.67319   0.00000  Uiso   1.00
Zn1315 Zn    0.78229   0.16667   0.75000   0.00000  Uiso   1.00
Zn1316 Zn    0.88438   0.16666   0.75000   0.00000  Uiso   1.00
N1317  N     0.95099   0.19540   0.59104   0.00000  Uiso   1.00
H1318  H     0.98413   0.18472   0.57606   0.00000  Uiso   1.00
C1319  C     0.95138   0.23933   0.59852   0.00000  Uiso   1.00
H1320  H     0.96153   0.25550   0.56134   0.00000  Uiso   1.00
H1321  H     0.97741   0.24708   0.61977   0.00000  Uiso   1.00
H1322  H     0.91648   0.24970   0.62039   0.00000  Uiso   1.00
C1323  C     0.90885   0.03646   0.77481   0.00000  Uiso   1.00
N1324  N     0.93818   0.04793   0.79250   0.00000  Uiso   1.00
N1325  N     0.74501   0.03321   0.77046   0.00000  Uiso   1.00
H1326  H     0.74297   0.06005   0.79069   0.00000  Uiso   1.00
C1327  C     0.70810   0.00581   0.79778   0.00000  Uiso   1.00
H1328  H     0.72165   0.31799   0.82176   0.00000  Uiso   1.00
H1329  H     0.69131   0.32280   0.77134   0.00000  Uiso   1.00
H1330  H     0.68018   0.02381   0.82363   0.00000  Uiso   1.00
N1331  N     0.76604   0.29095   0.70830   0.00000  Uiso   1.00
H1332  H     0.73760   0.27601   0.73122   0.00000  Uiso   1.00
C1333  C     0.75754   0.31189   0.66514   0.00000  Uiso   1.00
H1334  H     0.73280   0.00373   0.67839   0.00000  Uiso   1.00
H1335  H     0.74203   0.28980   0.64264   0.00000  Uiso   1.00
H1336  H     0.79064   0.32436   0.64019   0.00000  Uiso   1.00
N1337  N     0.96332   0.10756   0.69552   0.00000  Uiso   1.00
H1338  H     0.96557   0.07771   0.70595   0.00000  Uiso   1.00
C1339  C     0.97953   0.11201   0.64105   0.00000  Uiso   1.00
H1340  H     0.94915   0.11529   0.62515   0.00000  Uiso   1.00
H1341  H     0.99786   0.08386   0.62395   0.00000  Uiso   1.00
H1342  H     0.67044   0.13880   0.63007   0.00000  Uiso   1.00
N1343  N     0.71798   0.09744   0.71781   0.00000  Uiso   1.00
H1344  H     0.69664   0.07213   0.72943   0.00000  Uiso   1.00
C1345  C     0.74819   0.09250   0.66771   0.00000  Uiso   1.00
H1346  H     0.73281   0.06889   0.64720   0.00000  Uiso   1.00
H1347  H     0.78243   0.08120   0.66995   0.00000  Uiso   1.00
H1348  H     0.75342   0.12189   0.64681   0.00000  Uiso   1.00
C1349  C     0.70253   0.22399   0.80811   0.00000  Uiso   1.00
N1350  N     0.71573   0.24435   0.83664   0.00000  Uiso   1.00
C1351  C     0.94043   0.22717   0.80449   0.00000  Uiso   1.00
N1352  N     0.91640   0.25148   0.82875   0.00000  Uiso   1.00
N1353  N     0.95597   0.12919   0.91865   0.00000  Uiso   1.00
H1354  H     0.95629   0.09766   0.91413   0.00000  Uiso   1.00
C1355  C     0.98636   0.15080   0.87673   0.00000  Uiso   1.00
H1356  H     0.99139   0.13230   0.84136   0.00000  Uiso   1.00
H1357  H     0.68721   0.15620   0.88455   0.00000  Uiso   1.00
H1358  H     0.97209   0.18130   0.87221   0.00000  Uiso   1.00
C1359  C     0.97712   0.19090   0.98451   0.00000  Uiso   1.00
N1360  N     0.68084   0.20243   0.96352   0.00000  Uiso   1.00
C1361  C     0.78971   0.18594   0.58748   0.00000  Uiso   1.00
N1362  N     0.75238   0.19743   0.60526   0.00000  Uiso   1.00
N1363  N     0.73911   0.09343   0.89260   0.00000  Uiso   1.00
H1364  H     0.73904   0.10468   0.85757   0.00000  Uiso   1.00
C1365  C     0.74989   0.04993   0.89131   0.00000  Uiso   1.00
H1366  H     0.71729   0.03146   0.89636   0.00000  Uiso   1.00
H1367  H     0.76683   0.04092   0.92131   0.00000  Uiso   1.00
H1368  H     0.77469   0.04202   0.85481   0.00000  Uiso   1.00
N1369  N     0.77663   0.10242   0.55295   0.00000  Uiso   1.00
H1370  H     0.74322   0.09477   0.57263   0.00000  Uiso   1.00
C1371  C     0.80849   0.06838   0.54729   0.00000  Uiso   1.00
H1372  H     0.84504   0.07915   0.53160   0.00000  Uiso   1.00
H1373  H     0.80001   0.04440   0.52167   0.00000  Uiso   1.00
H1374  H     0.80606   0.05415   0.58469   0.00000  Uiso   1.00
N1375  N     0.71412   0.07744   0.99610   0.00000  Uiso   1.00
H1376  H     0.72287   0.05429   0.51729   0.00000  Uiso   1.00
C1377  C     0.66777   0.09244   0.51618   0.00000  Uiso   1.00
H1378  H     0.97820   0.06793   0.53833   0.00000  Uiso   1.00
H1379  H     0.98680   0.10119   0.98466   0.00000  Uiso   1.00
H1380  H     0.66836   0.11966   0.54057   0.00000  Uiso   1.00
N1381  N     0.88480   0.10720   0.87281   0.00000  Uiso   1.00
H1382  H     0.91608   0.10940   0.84574   0.00000  Uiso   1.00
C1383  C     0.87095   0.06605   0.89221   0.00000  Uiso   1.00
H1384  H     0.90206   0.04812   0.89319   0.00000  Uiso   1.00
H1385  H     0.85204   0.05021   0.86733   0.00000  Uiso   1.00
H1386  H     0.84734   0.06645   0.93127   0.00000  Uiso   1.00
N1387  N     0.92519   0.29652   0.71627   0.00000  Uiso   1.00
H1388  H     0.92667   0.26781   0.70017   0.00000  Uiso   1.00
C1389  C     0.96132   0.32303   0.68503   0.00000  Uiso   1.00
H1390  H     0.94668   0.01103   0.66174   0.00000  Uiso   1.00
H1391  H     0.98829   0.30457   0.65892   0.00000  Uiso   1.00
H1392  H     0.97992   0.00692   0.70911   0.00000  Uiso   1.00
C1393  C     0.16889   0.57952   0.74291   0.00000  Uiso   1.00
C1394  C     0.15031   0.48232   0.98527   0.00000  Uiso   1.00
C1395  C     0.16419   0.48377   0.93211   0.00000  Uiso   1.00
C1396  C     0.18315   0.49528   0.51253   0.00000  Uiso   1.00
C1397  C     0.23113   0.49631   0.98645   0.00000  Uiso   1.00
C1398  C     0.24441   0.47947   0.93705   0.00000  Uiso   1.00
C1399  C     0.21033   0.47173   0.91071   0.00000  Uiso   1.00
C1400  C     0.16994   0.50523   0.56486   0.00000  Uiso   1.00
C1401  C     0.25099   0.51464   0.56525   0.00000  Uiso   1.00
C1402  C     0.13057   0.47908   0.90398   0.00000  Uiso   1.00
C1403  C     0.21255   0.64665   0.73410   0.00000  Uiso   1.00
C1404  C     0.14219   0.49376   0.85000   0.00000  Uiso   1.00
C1405  C     0.20680   0.35354   0.75213   0.00000  Uiso   1.00
C1406  C     0.16462   0.37413   0.75521   0.00000  Uiso   1.00
C1407  C     0.12454   0.35090   0.75149   0.00000  Uiso   1.00
C1408  C     0.13108   0.64393   0.73269   0.00000  Uiso   1.00
C1409  C     0.17204   0.62375   0.73342   0.00000  Uiso   1.00
C1410  C     0.31439   0.47027   0.72482   0.00000  Uiso   1.00
C1411  C     0.02795   0.46845   0.72840   0.00000  Uiso   1.00
C1412  C     0.01906   0.53048   0.77421   0.00000  Uiso   1.00
C1413  C     0.30416   0.53024   0.77475   0.00000  Uiso   1.00
C1414  C     0.16539   0.41957   0.75362   0.00000  Uiso   1.00
C1415  C     0.19131   0.50293   0.64904   0.00000  Uiso   1.00
C1416  C     0.26412   0.51047   0.51205   0.00000  Uiso   1.00
C1417  C     0.20417   0.50754   0.59254   0.00000  Uiso   1.00
C1418  C     0.09245   0.45203   0.92483   0.00000  Uiso   1.00
C1419  C     0.08229   0.44169   0.97684   0.00000  Uiso   1.00
C1420  C     0.11159   0.45632   0.50686   0.00000  Uiso   1.00
N1421  N     0.04760   0.50001   0.75001   0.00000  Uiso   1.00
N1422  N     0.28573   0.49998   0.75000   0.00000  Uiso   1.00
O1423  O     0.12846   0.56108   0.75000   0.00000  Uiso   1.00
O1424  O     0.20490   0.56107   0.75000   0.00000  Uiso   1.00
O1425  O     0.10947   0.50000   0.82681   0.00000  Uiso   1.00
O1426  O     0.18591   0.49999   0.82681   0.00000  Uiso   1.00
O1427  O     0.12843   0.43893   0.74999   0.00000  Uiso   1.00
O1428  O     0.20488   0.43892   0.74999   0.00000  Uiso   1.00
O1429  O     0.14742   0.50001   0.67319   0.00000  Uiso   1.00
O1430  O     0.22387   0.50000   0.67319   0.00000  Uiso   1.00
Zn1431 Zn    0.11562   0.50001   0.75000   0.00000  Uiso   1.00
Zn1432 Zn    0.21771   0.49999   0.75000   0.00000  Uiso   1.00
N1433  N     0.28433   0.52873   0.59104   0.00000  Uiso   1.00
H1434  H     0.31746   0.51806   0.57606   0.00000  Uiso   1.00
C1435  C     0.28471   0.57267   0.59852   0.00000  Uiso   1.00
H1436  H     0.29486   0.58884   0.56134   0.00000  Uiso   1.00
H1437  H     0.31075   0.58041   0.61977   0.00000  Uiso   1.00
H1438  H     0.24981   0.58303   0.62039   0.00000  Uiso   1.00
C1439  C     0.24218   0.36979   0.77481   0.00000  Uiso   1.00
N1440  N     0.27152   0.38126   0.79250   0.00000  Uiso   1.00
N1441  N     0.07835   0.36655   0.77046   0.00000  Uiso   1.00
H1442  H     0.07631   0.39338   0.79069   0.00000  Uiso   1.00
C1443  C     0.04144   0.33914   0.79778   0.00000  Uiso   1.00
H1444  H     0.05498   0.65133   0.82176   0.00000  Uiso   1.00
H1445  H     0.02465   0.65613   0.77134   0.00000  Uiso   1.00
H1446  H     0.01351   0.35715   0.82363   0.00000  Uiso   1.00
N1447  N     0.09937   0.62428   0.70830   0.00000  Uiso   1.00
H1448  H     0.07093   0.60935   0.73122   0.00000  Uiso   1.00
C1449  C     0.09087   0.64522   0.66514   0.00000  Uiso   1.00
H1450  H     0.06613   0.33707   0.67839   0.00000  Uiso   1.00
H1451  H     0.07536   0.62313   0.64264   0.00000  Uiso   1.00
H1452  H     0.12397   0.65769   0.64019   0.00000  Uiso   1.00
N1453  N     0.29665   0.44089   0.69552   0.00000  Uiso   1.00
H1454  H     0.29890   0.41105   0.70595   0.00000  Uiso   1.00
C1455  C     0.31287   0.44534   0.64105   0.00000  Uiso   1.00
H1456  H     0.28248   0.44862   0.62515   0.00000  Uiso   1.00
H1457  H     0.33119   0.41719   0.62395   0.00000  Uiso   1.00
H1458  H     0.00377   0.47213   0.63007   0.00000  Uiso   1.00
N1459  N     0.05132   0.43078   0.71781   0.00000  Uiso   1.00
H1460  H     0.02998   0.40546   0.72943   0.00000  Uiso   1.00
C1461  C     0.08152   0.42584   0.66771   0.00000  Uiso   1.00
H1462  H     0.06614   0.40222   0.64720   0.00000  Uiso   1.00
H1463  H     0.11576   0.41453   0.66995   0.00000  Uiso   1.00
H1464  H     0.08675   0.45522   0.64681   0.00000  Uiso   1.00
C1465  C     0.03587   0.55733   0.80811   0.00000  Uiso   1.00
N1466  N     0.04906   0.57768   0.83664   0.00000  Uiso   1.00
C1467  C     0.27376   0.56051   0.80449   0.00000  Uiso   1.00
N1468  N     0.24973   0.58482   0.82875   0.00000  Uiso   1.00
N1469  N     0.28931   0.46252   0.91865   0.00000  Uiso   1.00
H1470  H     0.28963   0.43100   0.91413   0.00000  Uiso   1.00
C1471  C     0.31969   0.48413   0.87673   0.00000  Uiso   1.00
H1472  H     0.32472   0.46564   0.84136   0.00000  Uiso   1.00
H1473  H     0.02054   0.48953   0.88455   0.00000  Uiso   1.00
H1474  H     0.30542   0.51463   0.87221   0.00000  Uiso   1.00
C1475  C     0.31046   0.52423   0.98451   0.00000  Uiso   1.00
N1476  N     0.01417   0.53576   0.96352   0.00000  Uiso   1.00
C1477  C     0.12304   0.51927   0.58748   0.00000  Uiso   1.00
N1478  N     0.08571   0.53077   0.60526   0.00000  Uiso   1.00
N1479  N     0.07245   0.42676   0.89260   0.00000  Uiso   1.00
H1480  H     0.07237   0.43802   0.85757   0.00000  Uiso   1.00
C1481  C     0.08323   0.38326   0.89131   0.00000  Uiso   1.00
H1482  H     0.05063   0.36479   0.89636   0.00000  Uiso   1.00
H1483  H     0.10016   0.37425   0.92131   0.00000  Uiso   1.00
H1484  H     0.10803   0.37535   0.85481   0.00000  Uiso   1.00
N1485  N     0.10996   0.43576   0.55295   0.00000  Uiso   1.00
H1486  H     0.07656   0.42810   0.57263   0.00000  Uiso   1.00
C1487  C     0.14182   0.40171   0.54729   0.00000  Uiso   1.00
H1488  H     0.17838   0.41249   0.53160   0.00000  Uiso   1.00
H1489  H     0.13335   0.37773   0.52167   0.00000  Uiso   1.00
H1490  H     0.13939   0.38749   0.58469   0.00000  Uiso   1.00
N1491  N     0.04746   0.41077   0.99610   0.00000  Uiso   1.00
H1492  H     0.05620   0.38762   0.51729   0.00000  Uiso   1.00
C1493  C     0.00110   0.42578   0.51618   0.00000  Uiso   1.00
H1494  H     0.31153   0.40127   0.53833   0.00000  Uiso   1.00
H1495  H     0.32014   0.43452   0.98466   0.00000  Uiso   1.00
H1496  H     0.00169   0.45299   0.54057   0.00000  Uiso   1.00
N1497  N     0.21813   0.44053   0.87281   0.00000  Uiso   1.00
H1498  H     0.24942   0.44273   0.84574   0.00000  Uiso   1.00
C1499  C     0.20428   0.39938   0.89221   0.00000  Uiso   1.00
H1500  H     0.23539   0.38146   0.89319   0.00000  Uiso   1.00
H1501  H     0.18537   0.38354   0.86733   0.00000  Uiso   1.00
H1502  H     0.18067   0.39979   0.93127   0.00000  Uiso   1.00
N1503  N     0.25852   0.62985   0.71627   0.00000  Uiso   1.00
H1504  H     0.26000   0.60115   0.70017   0.00000  Uiso   1.00
C1505  C     0.29465   0.65636   0.68503   0.00000  Uiso   1.00
H1506  H     0.28001   0.34436   0.66174   0.00000  Uiso   1.00
H1507  H     0.32163   0.63790   0.65892   0.00000  Uiso   1.00
H1508  H     0.31325   0.34025   0.70911   0.00000  Uiso   1.00
C1509  C     0.50223   0.57952   0.74291   0.00000  Uiso   1.00
C1510  C     0.48364   0.48232   0.98527   0.00000  Uiso   1.00
C1511  C     0.49753   0.48377   0.93211   0.00000  Uiso   1.00
C1512  C     0.51649   0.49528   0.51253   0.00000  Uiso   1.00
C1513  C     0.56446   0.49631   0.98645   0.00000  Uiso   1.00
C1514  C     0.57774   0.47947   0.93705   0.00000  Uiso   1.00
C1515  C     0.54367   0.47173   0.91071   0.00000  Uiso   1.00
C1516  C     0.50327   0.50523   0.56486   0.00000  Uiso   1.00
C1517  C     0.58433   0.51464   0.56525   0.00000  Uiso   1.00
C1518  C     0.46391   0.47908   0.90398   0.00000  Uiso   1.00
C1519  C     0.54589   0.64665   0.73410   0.00000  Uiso   1.00
C1520  C     0.47552   0.49376   0.85000   0.00000  Uiso   1.00
C1521  C     0.54013   0.35354   0.75213   0.00000  Uiso   1.00
C1522  C     0.49795   0.37413   0.75521   0.00000  Uiso   1.00
C1523  C     0.45788   0.35090   0.75149   0.00000  Uiso   1.00
C1524  C     0.46441   0.64393   0.73269   0.00000  Uiso   1.00
C1525  C     0.50538   0.62375   0.73342   0.00000  Uiso   1.00
C1526  C     0.64772   0.47027   0.72482   0.00000  Uiso   1.00
C1527  C     0.36129   0.46845   0.72840   0.00000  Uiso   1.00
C1528  C     0.35239   0.53048   0.77421   0.00000  Uiso   1.00
C1529  C     0.63749   0.53024   0.77475   0.00000  Uiso   1.00
C1530  C     0.49872   0.41957   0.75362   0.00000  Uiso   1.00
C1531  C     0.52465   0.50293   0.64904   0.00000  Uiso   1.00
C1532  C     0.59745   0.51047   0.51205   0.00000  Uiso   1.00
C1533  C     0.53751   0.50754   0.59254   0.00000  Uiso   1.00
C1534  C     0.42578   0.45203   0.92483   0.00000  Uiso   1.00
C1535  C     0.41563   0.44169   0.97684   0.00000  Uiso   1.00
C1536  C     0.44492   0.45632   0.50686   0.00000  Uiso   1.00
N1537  N     0.38093   0.50001   0.75001   0.00000  Uiso   1.00
N1538  N     0.61906   0.49998   0.75000   0.00000  Uiso   1.00
O1539  O     0.46179   0.56108   0.75000   0.00000  Uiso   1.00
O1540  O     0.53823   0.56107   0.75000   0.00000  Uiso   1.00
O1541  O     0.44280   0.50000   0.82681   0.00000  Uiso   1.00
O1542  O     0.51924   0.49999   0.82681   0.00000  Uiso   1.00
O1543  O     0.46177   0.43893   0.74999   0.00000  Uiso   1.00
O1544  O     0.53821   0.43892   0.74999   0.00000  Uiso   1.00
O1545  O     0.48076   0.50001   0.67319   0.00000  Uiso   1.00
O1546  O     0.55720   0.50000   0.67319   0.00000  Uiso   1.00
Zn1547 Zn    0.44896   0.50001   0.75000   0.00000  Uiso   1.00
Zn1548 Zn    0.55104   0.49999   0.75000   0.00000  Uiso   1.00
N1549  N     0.61766   0.52873   0.59104   0.00000  Uiso   1.00
H1550  H     0.65080   0.51806   0.57606   0.00000  Uiso   1.00
C1551  C     0.61804   0.57267   0.59852   0.00000  Uiso   1.00
H1552  H     0.62819   0.58884   0.56134   0.00000  Uiso   1.00
H1553  H     0.64408   0.58041   0.61977   0.00000  Uiso   1.00
H1554  H     0.58315   0.58303   0.62039   0.00000  Uiso   1.00
C1555  C     0.57552   0.36979   0.77481   0.00000  Uiso   1.00
N1556  N     0.60485   0.38126   0.79250   0.00000  Uiso   1.00
N1557  N     0.41168   0.36655   0.77046   0.00000  Uiso   1.00
H1558  H     0.40964   0.39338   0.79069   0.00000  Uiso   1.00
C1559  C     0.37477   0.33914   0.79778   0.00000  Uiso   1.00
H1560  H     0.38832   0.65133   0.82176   0.00000  Uiso   1.00
H1561  H     0.35798   0.65613   0.77134   0.00000  Uiso   1.00
H1562  H     0.34685   0.35715   0.82363   0.00000  Uiso   1.00
N1563  N     0.43270   0.62428   0.70830   0.00000  Uiso   1.00
H1564  H     0.40427   0.60935   0.73122   0.00000  Uiso   1.00
C1565  C     0.42420   0.64522   0.66514   0.00000  Uiso   1.00
H1566  H     0.39946   0.33707   0.67839   0.00000  Uiso   1.00
H1567  H     0.40869   0.62313   0.64264   0.00000  Uiso   1.00
H1568  H     0.45731   0.65769   0.64019   0.00000  Uiso   1.00
N1569  N     0.62999   0.44089   0.69552   0.00000  Uiso   1.00
H1570  H     0.63224   0.41105   0.70595   0.00000  Uiso   1.00
C1571  C     0.64620   0.44534   0.64105   0.00000  Uiso   1.00
H1572  H     0.61582   0.44862   0.62515   0.00000  Uiso   1.00
H1573  H     0.66453   0.41719   0.62395   0.00000  Uiso   1.00
H1574  H     0.33711   0.47213   0.63007   0.00000  Uiso   1.00
N1575  N     0.38465   0.43078   0.71781   0.00000  Uiso   1.00
H1576  H     0.36331   0.40546   0.72943   0.00000  Uiso   1.00
C1577  C     0.41486   0.42584   0.66771   0.00000  Uiso   1.00
H1578  H     0.39948   0.40222   0.64720   0.00000  Uiso   1.00
H1579  H     0.44909   0.41453   0.66995   0.00000  Uiso   1.00
H1580  H     0.42009   0.45522   0.64681   0.00000  Uiso   1.00
C1581  C     0.36920   0.55733   0.80811   0.00000  Uiso   1.00
N1582  N     0.38239   0.57768   0.83664   0.00000  Uiso   1.00
C1583  C     0.60709   0.56051   0.80449   0.00000  Uiso   1.00
N1584  N     0.58306   0.58482   0.82875   0.00000  Uiso   1.00
N1585  N     0.62264   0.46252   0.91865   0.00000  Uiso   1.00
H1586  H     0.62296   0.43100   0.91413   0.00000  Uiso   1.00
C1587  C     0.65303   0.48413   0.87673   0.00000  Uiso   1.00
H1588  H     0.65806   0.46564   0.84136   0.00000  Uiso   1.00
H1589  H     0.35387   0.48953   0.88455   0.00000  Uiso   1.00
H1590  H     0.63875   0.51463   0.87221   0.00000  Uiso   1.00
C1591  C     0.64379   0.52423   0.98451   0.00000  Uiso   1.00
N1592  N     0.34751   0.53576   0.96352   0.00000  Uiso   1.00
C1593  C     0.45638   0.51927   0.58748   0.00000  Uiso   1.00
N1594  N     0.41905   0.53077   0.60526   0.00000  Uiso   1.00
N1595  N     0.40578   0.42676   0.89260   0.00000  Uiso   1.00
H1596  H     0.40571   0.43802   0.85757   0.00000  Uiso   1.00
C1597  C     0.41656   0.38326   0.89131   0.00000  Uiso   1.00
H1598  H     0.38396   0.36479   0.89636   0.00000  Uiso   1.00
H1599  H     0.43350   0.37425   0.92131   0.00000  Uiso   1.00
H1600  H     0.44136   0.37535   0.85481   0.00000  Uiso   1.00
N1601  N     0.44329   0.43576   0.55295   0.00000  Uiso   1.00
H1602  H     0.40989   0.42810   0.57263   0.00000  Uiso   1.00
C1603  C     0.47516   0.40171   0.54729   0.00000  Uiso   1.00
H1604  H     0.51171   0.41249   0.53160   0.00000  Uiso   1.00
H1605  H     0.46668   0.37773   0.52167   0.00000  Uiso   1.00
H1606  H     0.47273   0.38749   0.58469   0.00000  Uiso   1.00
N1607  N     0.38079   0.41077   0.99610   0.00000  Uiso   1.00
H1608  H     0.38954   0.38762   0.51729   0.00000  Uiso   1.00
C1609  C     0.33444   0.42578   0.51618   0.00000  Uiso   1.00
H1610  H     0.64487   0.40127   0.53833   0.00000  Uiso   1.00
H1611  H     0.65347   0.43452   0.98466   0.00000  Uiso   1.00
H1612  H     0.33502   0.45299   0.54057   0.00000  Uiso   1.00
N1613  N     0.55146   0.44053   0.87281   0.00000  Uiso   1.00
H1614  H     0.58275   0.44273   0.84574   0.00000  Uiso   1.00
C1615  C     0.53762   0.39938   0.89221   0.00000  Uiso   1.00
H1616  H     0.56872   0.38146   0.89319   0.00000  Uiso   1.00
H1617  H     0.51871   0.38354   0.86733   0.00000  Uiso   1.00
H1618  H     0.51400   0.39979   0.93127   0.00000  Uiso   1.00
N1619  N     0.59185   0.62985   0.71627   0.00000  Uiso   1.00
H1620  H     0.59333   0.60115   0.70017   0.00000  Uiso   1.00
C1621  C     0.62798   0.65636   0.68503   0.00000  Uiso   1.00
H1622  H     0.61335   0.34436   0.66174   0.00000  Uiso   1.00
H1623  H     0.65496   0.63790   0.65892   0.00000  Uiso   1.00
H1624  H     0.64658   0.34025   0.70911   0.00000  Uiso   1.00
C1625  C     0.83556   0.57952   0.74291   0.00000  Uiso   1.00
C1626  C     0.81698   0.48232   0.98527   0.00000  Uiso   1.00
C1627  C     0.83086   0.48377   0.93211   0.00000  Uiso   1.00
C1628  C     0.84982   0.49528   0.51253   0.00000  Uiso   1.00
C1629  C     0.89779   0.49631   0.98645   0.00000  Uiso   1.00
C1630  C     0.91107   0.47947   0.93705   0.00000  Uiso   1.00
C1631  C     0.87700   0.47173   0.91071   0.00000  Uiso   1.00
C1632  C     0.83661   0.50523   0.56486   0.00000  Uiso   1.00
C1633  C     0.91766   0.51464   0.56525   0.00000  Uiso   1.00
C1634  C     0.79724   0.47908   0.90398   0.00000  Uiso   1.00
C1635  C     0.87922   0.64665   0.73410   0.00000  Uiso   1.00
C1636  C     0.80885   0.49376   0.85000   0.00000  Uiso   1.00
C1637  C     0.87346   0.35354   0.75213   0.00000  Uiso   1.00
C1638  C     0.83129   0.37413   0.75521   0.00000  Uiso   1.00
C1639  C     0.79121   0.35090   0.75149   0.00000  Uiso   1.00
C1640  C     0.79775   0.64393   0.73269   0.00000  Uiso   1.00
C1641  C     0.83871   0.62375   0.73342   0.00000  Uiso   1.00
C1642  C     0.98106   0.47027   0.72482   0.00000  Uiso   1.00
C1643  C     0.69462   0.46845   0.72840   0.00000  Uiso   1.00
C1644  C     0.68573   0.53048   0.77421   0.00000  Uiso   1.00
C1645  C     0.97082   0.53024   0.77475   0.00000  Uiso   1.00
C1646  C     0.83206   0.41957   0.75362   0.00000  Uiso   1.00
C1647  C     0.85798   0.50293   0.64904   0.00000  Uiso   1.00
C1648  C     0.93079   0.51047   0.51205   0.00000  Uiso   1.00
C1649  C     0.87084   0.50754   0.59254   0.00000  Uiso   1.00
C1650  C     0.75912   0.45203   0.92483   0.00000  Uiso   1.00
C1651  C     0.74896   0.44169   0.97684   0.00000  Uiso   1.00
C1652  C     0.77826   0.45632   0.50686   0.00000  Uiso   1.00
N1653  N     0.71426   0.50001   0.75001   0.00000  Uiso   1.00
N1654  N     0.95239   0.49998   0.75000   0.00000  Uiso   1.00
O1655  O     0.79512   0.56108   0.75000   0.00000  Uiso   1.00
O1656  O     0.87157   0.56107   0.75000   0.00000  Uiso   1.00
O1657  O     0.77613   0.50000   0.82681   0.00000  Uiso   1.00
O1658  O     0.85258   0.49999   0.82681   0.00000  Uiso   1.00
O1659  O     0.79510   0.43893   0.74999   0.00000  Uiso   1.00
O1660  O     0.87154   0.43892   0.74999   0.00000  Uiso   1.00
O1661  O     0.81409   0.50001   0.67319   0.00000  Uiso   1.00
O1662  O     0.89053   0.50000   0.67319   0.00000  Uiso   1.00
Zn1663 Zn    0.78229   0.50001   0.75000   0.00000  Uiso   1.00
Zn1664 Zn    0.88438   0.49999   0.75000   0.00000  Uiso   1.00
N1665  N     0.95099   0.52873   0.59104   0.00000  Uiso   1.00
H1666  H     0.98413   0.51806   0.57606   0.00000  Uiso   1.00
C1667  C     0.95138   0.57267   0.59852   0.00000  Uiso   1.00
H1668  H     0.96153   0.58884   0.56134   0.00000  Uiso   1.00
H1669  H     0.97741   0.58041   0.61977   0.00000  Uiso   1.00
H1670  H     0.91648   0.58303   0.62039   0.00000  Uiso   1.00
C1671  C     0.90885   0.36979   0.77481   0.00000  Uiso   1.00
N1672  N     0.93818   0.38126   0.79250   0.00000  Uiso   1.00
N1673  N     0.74501   0.36655   0.77046   0.00000  Uiso   1.00
H1674  H     0.74297   0.39338   0.79069   0.00000  Uiso   1.00
C1675  C     0.70810   0.33914   0.79778   0.00000  Uiso   1.00
H1676  H     0.72165   0.65133   0.82176   0.00000  Uiso   1.00
H1677  H     0.69131   0.65613   0.77134   0.00000  Uiso   1.00
H1678  H     0.68018   0.35715   0.82363   0.00000  Uiso   1.00
N1679  N     0.76604   0.62428   0.70830   0.00000  Uiso   1.00
H1680  H     0.73760   0.60935   0.73122   0.00000  Uiso   1.00
C1681  C     0.75754   0.64522   0.66514   0.00000  Uiso   1.00
H1682  H     0.73280   0.33707   0.67839   0.00000  Uiso   1.00
H1683  H     0.74203   0.62313   0.64264   0.00000  Uiso   1.00
H1684  H     0.79064   0.65769   0.64019   0.00000  Uiso   1.00
N1685  N     0.96332   0.44089   0.69552   0.00000  Uiso   1.00
H1686  H     0.96557   0.41105   0.70595   0.00000  Uiso   1.00
C1687  C     0.97953   0.44534   0.64105   0.00000  Uiso   1.00
H1688  H     0.94915   0.44862   0.62515   0.00000  Uiso   1.00
H1689  H     0.99786   0.41719   0.62395   0.00000  Uiso   1.00
H1690  H     0.67044   0.47213   0.63007   0.00000  Uiso   1.00
N1691  N     0.71798   0.43078   0.71781   0.00000  Uiso   1.00
H1692  H     0.69664   0.40546   0.72943   0.00000  Uiso   1.00
C1693  C     0.74819   0.42584   0.66771   0.00000  Uiso   1.00
H1694  H     0.73281   0.40222   0.64720   0.00000  Uiso   1.00
H1695  H     0.78243   0.41453   0.66995   0.00000  Uiso   1.00
H1696  H     0.75342   0.45522   0.64681   0.00000  Uiso   1.00
C1697  C     0.70253   0.55733   0.80811   0.00000  Uiso   1.00
N1698  N     0.71573   0.57768   0.83664   0.00000  Uiso   1.00
C1699  C     0.94043   0.56051   0.80449   0.00000  Uiso   1.00
N1700  N     0.91640   0.58482   0.82875   0.00000  Uiso   1.00
N1701  N     0.95597   0.46252   0.91865   0.00000  Uiso   1.00
H1702  H     0.95629   0.43100   0.91413   0.00000  Uiso   1.00
C1703  C     0.98636   0.48413   0.87673   0.00000  Uiso   1.00
H1704  H     0.99139   0.46564   0.84136   0.00000  Uiso   1.00
H1705  H     0.68721   0.48953   0.88455   0.00000  Uiso   1.00
H1706  H     0.97209   0.51463   0.87221   0.00000  Uiso   1.00
C1707  C     0.97712   0.52423   0.98451   0.00000  Uiso   1.00
N1708  N     0.68084   0.53576   0.96352   0.00000  Uiso   1.00
C1709  C     0.78971   0.51927   0.58748   0.00000  Uiso   1.00
N1710  N     0.75238   0.53077   0.60526   0.00000  Uiso   1.00
N1711  N     0.73911   0.42676   0.89260   0.00000  Uiso   1.00
H1712  H     0.73904   0.43802   0.85757   0.00000  Uiso   1.00
C1713  C     0.74989   0.38326   0.89131   0.00000  Uiso   1.00
H1714  H     0.71729   0.36479   0.89636   0.00000  Uiso   1.00
H1715  H     0.76683   0.37425   0.92131   0.00000  Uiso   1.00
H1716  H     0.77469   0.37535   0.85481   0.00000  Uiso   1.00
N1717  N     0.77663   0.43576   0.55295   0.00000  Uiso   1.00
H1718  H     0.74322   0.42810   0.57263   0.00000  Uiso   1.00
C1719  C     0.80849   0.40171   0.54729   0.00000  Uiso   1.00
H1720  H     0.84504   0.41249   0.53160   0.00000  Uiso   1.00
H1721  H     0.80001   0.37773   0.52167   0.00000  Uiso   1.00
H1722  H     0.80606   0.38749   0.58469   0.00000  Uiso   1.00
N1723  N     0.71412   0.41077   0.99610   0.00000  Uiso   1.00
H1724  H     0.72287   0.38762   0.51729   0.00000  Uiso   1.00
C1725  C     0.66777   0.42578   0.51618   0.00000  Uiso   1.00
H1726  H     0.97820   0.40127   0.53833   0.00000  Uiso   1.00
H1727  H     0.98680   0.43452   0.98466   0.00000  Uiso   1.00
H1728  H     0.66836   0.45299   0.54057   0.00000  Uiso   1.00
N1729  N     0.88480   0.44053   0.87281   0.00000  Uiso   1.00
H1730  H     0.91608   0.44273   0.84574   0.00000  Uiso   1.00
C1731  C     0.87095   0.39938   0.89221   0.00000  Uiso   1.00
H1732  H     0.90206   0.38146   0.89319   0.00000  Uiso   1.00
H1733  H     0.85204   0.38354   0.86733   0.00000  Uiso   1.00
H1734  H     0.84734   0.39979   0.93127   0.00000  Uiso   1.00
N1735  N     0.92519   0.62985   0.71627   0.00000  Uiso   1.00
H1736  H     0.92667   0.60115   0.70017   0.00000  Uiso   1.00
C1737  C     0.96132   0.65636   0.68503   0.00000  Uiso   1.00
H1738  H     0.94668   0.34436   0.66174   0.00000  Uiso   1.00
H1739  H     0.98829   0.63790   0.65892   0.00000  Uiso   1.00
H1740  H     0.97992   0.34025   0.70911   0.00000  Uiso   1.00
C1741  C     0.16889   0.91285   0.74291   0.00000  Uiso   1.00
C1742  C     0.15031   0.81566   0.98527   0.00000  Uiso   1.00
C1743  C     0.16419   0.81710   0.93211   0.00000  Uiso   1.00
C1744  C     0.18315   0.82861   0.51253   0.00000  Uiso   1.00
C1745  C     0.23113   0.82964   0.98645   0.00000  Uiso   1.00
C1746  C     0.24441   0.81281   0.93705   0.00000  Uiso   1.00
C1747  C     0.21033   0.80506   0.91071   0.00000  Uiso   1.00
C1748  C     0.16994   0.83857   0.56486   0.00000  Uiso   1.00
C1749  C     0.25099   0.84797   0.56525   0.00000  Uiso   1.00
C1750  C     0.13057   0.81242   0.90398   0.00000  Uiso   1.00
C1751  C     0.21255   0.97998   0.73410   0.00000  Uiso   1.00
C1752  C     0.14219   0.82710   0.85000   0.00000  Uiso   1.00
C1753  C     0.20680   0.68687   0.75213   0.00000  Uiso   1.00
C1754  C     0.16462   0.70746   0.75521   0.00000  Uiso   1.00
C1755  C     0.12454   0.68423   0.75149   0.00000  Uiso   1.00
C1756  C     0.13108   0.97726   0.73269   0.00000  Uiso   1.00
C1757  C     0.17204   0.95708   0.73342   0.00000  Uiso   1.00
C1758  C     0.31439   0.80360   0.72482   0.00000  Uiso   1.00
C1759  C     0.02795   0.80178   0.72840   0.00000  Uiso   1.00
C1760  C     0.01906   0.86381   0.77421   0.00000  Uiso   1.00
C1761  C     0.30416   0.86357   0.77475   0.00000  Uiso   1.00
C1762  C     0.16539   0.75290   0.75362   0.00000  Uiso   1.00
C1763  C     0.19131   0.83626   0.64904   0.00000  Uiso   1.00
C1764  C     0.26412   0.84380   0.51205   0.00000  Uiso   1.00
C1765  C     0.20417   0.84087   0.59254   0.00000  Uiso   1.00
C1766  C     0.09245   0.78536   0.92483   0.00000  Uiso   1.00
C1767  C     0.08229   0.77502   0.97684   0.00000  Uiso   1.00
C1768  C     0.11159   0.78966   0.50686   0.00000  Uiso   1.00
N1769  N     0.04760   0.83334   0.75001   0.00000  Uiso   1.00
N1770  N     0.28573   0.83331   0.75000   0.00000  Uiso   1.00
O1771  O     0.12846   0.89442   0.75000   0.00000  Uiso   1.00
O1772  O     0.20490   0.89441   0.75000   0.00000  Uiso   1.00
O1773  O     0.10947   0.83333   0.82681   0.00000  Uiso   1.00
O1774  O     0.18591   0.83332   0.82681   0.00000  Uiso   1.00
O1775  O     0.12843   0.77226   0.74999   0.00000  Uiso   1.00
O1776  O     0.20488   0.77225   0.74999   0.00000  Uiso   1.00
O1777  O     0.14742   0.83335   0.67319   0.00000  Uiso   1.00
O1778  O     0.22387   0.83334   0.67319   0.00000  Uiso   1.00
Zn1779 Zn    0.11562   0.83334   0.75000   0.00000  Uiso   1.00
Zn1780 Zn    0.21771   0.83333   0.75000   0.00000  Uiso   1.00
N1781  N     0.28433   0.86206   0.59104   0.00000  Uiso   1.00
H1782  H     0.31746   0.85139   0.57606   0.00000  Uiso   1.00
C1783  C     0.28471   0.90600   0.59852   0.00000  Uiso   1.00
H1784  H     0.29486   0.92217   0.56134   0.00000  Uiso   1.00
H1785  H     0.31075   0.91374   0.61977   0.00000  Uiso   1.00
H1786  H     0.24981   0.91636   0.62039   0.00000  Uiso   1.00
C1787  C     0.24218   0.70313   0.77481   0.00000  Uiso   1.00
N1788  N     0.27152   0.71460   0.79250   0.00000  Uiso   1.00
N1789  N     0.07835   0.69988   0.77046   0.00000  Uiso   1.00
H1790  H     0.07631   0.72671   0.79069   0.00000  Uiso   1.00
C1791  C     0.04144   0.67248   0.79778   0.00000  Uiso   1.00
H1792  H     0.05498   0.98466   0.82176   0.00000  Uiso   1.00
H1793  H     0.02465   0.98947   0.77134   0.00000  Uiso   1.00
H1794  H     0.01351   0.69048   0.82363   0.00000  Uiso   1.00
N1795  N     0.09937   0.95762   0.70830   0.00000  Uiso   1.00
H1796  H     0.07093   0.94268   0.73122   0.00000  Uiso   1.00
C1797  C     0.09087   0.97856   0.66514   0.00000  Uiso   1.00
H1798  H     0.06613   0.67040   0.67839   0.00000  Uiso   1.00
H1799  H     0.07536   0.95646   0.64264   0.00000  Uiso   1.00
H1800  H     0.12397   0.99102   0.64019   0.00000  Uiso   1.00
N1801  N     0.29665   0.77422   0.69552   0.00000  Uiso   1.00
H1802  H     0.29890   0.74438   0.70595   0.00000  Uiso   1.00
C1803  C     0.31287   0.77867   0.64105   0.00000  Uiso   1.00
H1804  H     0.28248   0.78196   0.62515   0.00000  Uiso   1.00
H1805  H     0.33119   0.75053   0.62395   0.00000  Uiso   1.00
H1806  H     0.00377   0.80547   0.63007   0.00000  Uiso   1.00
N1807  N     0.05132   0.76411   0.71781   0.00000  Uiso   1.00
H1808  H     0.02998   0.73879   0.72943   0.00000  Uiso   1.00
C1809  C     0.08152   0.75917   0.66771   0.00000  Uiso   1.00
H1810  H     0.06614   0.73556   0.64720   0.00000  Uiso   1.00
H1811  H     0.11576   0.74786   0.66995   0.00000  Uiso   1.00
H1812  H     0.08675   0.78856   0.64681   0.00000  Uiso   1.00
C1813  C     0.03587   0.89066   0.80811   0.00000  Uiso   1.00
N1814  N     0.04906   0.91102   0.83664   0.00000  Uiso   1.00
C1815  C     0.27376   0.89384   0.80449   0.00000  Uiso   1.00
N1816  N     0.24973   0.91815   0.82875   0.00000  Uiso   1.00
N1817  N     0.28931   0.79585   0.91865   0.00000  Uiso   1.00
H1818  H     0.28963   0.76433   0.91413   0.00000  Uiso   1.00
C1819  C     0.31969   0.81747   0.87673   0.00000  Uiso   1.00
H1820  H     0.32472   0.79897   0.84136   0.00000  Uiso   1.00
H1821  H     0.02054   0.82286   0.88455   0.00000  Uiso   1.00
H1822  H     0.30542   0.84797   0.87221   0.00000  Uiso   1.00
C1823  C     0.31046   0.85756   0.98451   0.00000  Uiso   1.00
N1824  N     0.01417   0.86909   0.96352   0.00000  Uiso   1.00
C1825  C     0.12304   0.85261   0.58748   0.00000  Uiso   1.00
N1826  N     0.08571   0.86410   0.60526   0.00000  Uiso   1.00
N1827  N     0.07245   0.76010   0.89260   0.00000  Uiso   1.00
H1828  H     0.07237   0.77135   0.85757   0.00000  Uiso   1.00
C1829  C     0.08323   0.71659   0.89131   0.00000  Uiso   1.00
H1830  H     0.05063   0.69812   0.89636   0.00000  Uiso   1.00
H1831  H     0.10016   0.70759   0.92131   0.00000  Uiso   1.00
H1832  H     0.10803   0.70869   0.85481   0.00000  Uiso   1.00
N1833  N     0.10996   0.76909   0.55295   0.00000  Uiso   1.00
H1834  H     0.07656   0.76144   0.57263   0.00000  Uiso   1.00
C1835  C     0.14182   0.73504   0.54729   0.00000  Uiso   1.00
H1836  H     0.17838   0.74582   0.53160   0.00000  Uiso   1.00
H1837  H     0.13335   0.71107   0.52167   0.00000  Uiso   1.00
H1838  H     0.13939   0.72082   0.58469   0.00000  Uiso   1.00
N1839  N     0.04746   0.74411   0.99610   0.00000  Uiso   1.00
H1840  H     0.05620   0.72096   0.51729   0.00000  Uiso   1.00
C1841  C     0.00110   0.75911   0.51618   0.00000  Uiso   1.00
H1842  H     0.31153   0.73460   0.53833   0.00000  Uiso   1.00
H1843  H     0.32014   0.76786   0.98466   0.00000  Uiso   1.00
H1844  H     0.00169   0.78632   0.54057   0.00000  Uiso   1.00
N1845  N     0.21813   0.77387   0.87281   0.00000  Uiso   1.00
H1846  H     0.24942   0.77606   0.84574   0.00000  Uiso   1.00
C1847  C     0.20428   0.73272   0.89221   0.00000  Uiso   1.00
H1848  H     0.23539   0.71479   0.89319   0.00000  Uiso   1.00
H1849  H     0.18537   0.71688   0.86733   0.00000  Uiso   1.00
H1850  H     0.18067   0.73312   0.93127   0.00000  Uiso   1.00
N1851  N     0.25852   0.96319   0.71627   0.00000  Uiso   1.00
H1852  H     0.26000   0.93448   0.70017   0.00000  Uiso   1.00
C1853  C     0.29465   0.98969   0.68503   0.00000  Uiso   1.00
H1854  H     0.28001   0.67769   0.66174   0.00000  Uiso   1.00
H1855  H     0.32163   0.97123   0.65892   0.00000  Uiso   1.00
H1856  H     0.31325   0.67358   0.70911   0.00000  Uiso   1.00
C1857  C     0.50223   0.91285   0.74291   0.00000  Uiso   1.00
C1858  C     0.48364   0.81566   0.98527   0.00000  Uiso   1.00
C1859  C     0.49753   0.81710   0.93211   0.00000  Uiso   1.00
C1860  C     0.51649   0.82861   0.51253   0.00000  Uiso   1.00
C1861  C     0.56446   0.82964   0.98645   0.00000  Uiso   1.00
C1862  C     0.57774   0.81281   0.93705   0.00000  Uiso   1.00
C1863  C     0.54367   0.80506   0.91071   0.00000  Uiso   1.00
C1864  C     0.50327   0.83857   0.56486   0.00000  Uiso   1.00
C1865  C     0.58433   0.84797   0.56525   0.00000  Uiso   1.00
C1866  C     0.46391   0.81242   0.90398   0.00000  Uiso   1.00
C1867  C     0.54589   0.97998   0.73410   0.00000  Uiso   1.00
C1868  C     0.47552   0.82710   0.85000   0.00000  Uiso   1.00
C1869  C     0.54013   0.68687   0.75213   0.00000  Uiso   1.00
C1870  C     0.49795   0.70746   0.75521   0.00000  Uiso   1.00
C1871  C     0.45788   0.68423   0.75149   0.00000  Uiso   1.00
C1872  C     0.46441   0.97726   0.73269   0.00000  Uiso   1.00
C1873  C     0.50538   0.95708   0.73342   0.00000  Uiso   1.00
C1874  C     0.64772   0.80360   0.72482   0.00000  Uiso   1.00
C1875  C     0.36129   0.80178   0.72840   0.00000  Uiso   1.00
C1876  C     0.35239   0.86381   0.77421   0.00000  Uiso   1.00
C1877  C     0.63749   0.86357   0.77475   0.00000  Uiso   1.00
C1878  C     0.49872   0.75290   0.75362   0.00000  Uiso   1.00
C1879  C     0.52465   0.83626   0.64904   0.00000  Uiso   1.00
C1880  C     0.59745   0.84380   0.51205   0.00000  Uiso   1.00
C1881  C     0.53751   0.84087   0.59254   0.00000  Uiso   1.00
C1882  C     0.42578   0.78536   0.92483   0.00000  Uiso   1.00
C1883  C     0.41563   0.77502   0.97684   0.00000  Uiso   1.00
C1884  C     0.44492   0.78966   0.50686   0.00000  Uiso   1.00
N1885  N     0.38093   0.83334   0.75001   0.00000  Uiso   1.00
N1886  N     0.61906   0.83331   0.75000   0.00000  Uiso   1.00
O1887  O     0.46179   0.89442   0.75000   0.00000  Uiso   1.00
O1888  O     0.53823   0.89441   0.75000   0.00000  Uiso   1.00
O1889  O     0.44280   0.83333   0.82681   0.00000  Uiso   1.00
O1890  O     0.51924   0.83332   0.82681   0.00000  Uiso   1.00
O1891  O     0.46177   0.77226   0.74999   0.00000  Uiso   1.00
O1892  O     0.53821   0.77225   0.74999   0.00000  Uiso   1.00
O1893  O     0.48076   0.83335   0.67319   0.00000  Uiso   1.00
O1894  O     0.55720   0.83334   0.67319   0.00000  Uiso   1.00
Zn1895 Zn    0.44896   0.83334   0.75000   0.00000  Uiso   1.00
Zn1896 Zn    0.55104   0.83333   0.75000   0.00000  Uiso   1.00
N1897  N     0.61766   0.86206   0.59104   0.00000  Uiso   1.00
H1898  H     0.65080   0.85139   0.57606   0.00000  Uiso   1.00
C1899  C     0.61804   0.90600   0.59852   0.00000  Uiso   1.00
H1900  H     0.62819   0.92217   0.56134   0.00000  Uiso   1.00
H1901  H     0.64408   0.91374   0.61977   0.00000  Uiso   1.00
H1902  H     0.58315   0.91636   0.62039   0.00000  Uiso   1.00
C1903  C     0.57552   0.70313   0.77481   0.00000  Uiso   1.00
N1904  N     0.60485   0.71460   0.79250   0.00000  Uiso   1.00
N1905  N     0.41168   0.69988   0.77046   0.00000  Uiso   1.00
H1906  H     0.40964   0.72671   0.79069   0.00000  Uiso   1.00
C1907  C     0.37477   0.67248   0.79778   0.00000  Uiso   1.00
H1908  H     0.38832   0.98466   0.82176   0.00000  Uiso   1.00
H1909  H     0.35798   0.98947   0.77134   0.00000  Uiso   1.00
H1910  H     0.34685   0.69048   0.82363   0.00000  Uiso   1.00
N1911  N     0.43270   0.95762   0.70830   0.00000  Uiso   1.00
H1912  H     0.40427   0.94268   0.73122   0.00000  Uiso   1.00
C1913  C     0.42420   0.97856   0.66514   0.00000  Uiso   1.00
H1914  H     0.39946   0.67040   0.67839   0.00000  Uiso   1.00
H1915  H     0.40869   0.95646   0.64264   0.00000  Uiso   1.00
H1916  H     0.45731   0.99102   0.64019   0.00000  Uiso   1.00
N1917  N     0.62999   0.77422   0.69552   0.00000  Uiso   1.00
H1918  H     0.63224   0.74438   0.70595   0.00000  Uiso   1.00
C1919  C     0.64620   0.77867   0.64105   0.00000  Uiso   1.00
H1920  H     0.61582   0.78196   0.62515   0.00000  Uiso   1.00
H1921  H     0.66453   0.75053   0.62395   0.00000  Uiso   1.00
H1922  H     0.33711   0.80547   0.63007   0.00000  Uiso   1.00
N1923  N     0.38465   0.76411   0.71781   0.00000  Uiso   1.00
H1924  H     0.36331   0.73879   0.72943   0.00000  Uiso   1.00
C1925  C     0.41486   0.75917   0.66771   0.00000  Uiso   1.00
H1926  H     0.39948   0.73556   0.64720   0.00000  Uiso   1.00
H1927  H     0.44909   0.74786   0.66995   0.00000  Uiso   1.00
H1928  H     0.42009   0.78856   0.64681   0.00000  Uiso   1.00
C1929  C     0.36920   0.89066   0.80811   0.00000  Uiso   1.00
N1930  N     0.38239   0.91102   0.83664   0.00000  Uiso   1.00
C1931  C     0.60709   0.89384   0.80449   0.00000  Uiso   1.00
N1932  N     0.58306   0.91815   0.82875   0.00000  Uiso   1.00
N1933  N     0.62264   0.79585   0.91865   0.00000  Uiso   1.00
H1934  H     0.62296   0.76433   0.91413   0.00000  Uiso   1.00
C1935  C     0.65303   0.81747   0.87673   0.00000  Uiso   1.00
H1936  H     0.65806   0.79897   0.84136   0.00000  Uiso   1.00
H1937  H     0.35387   0.82286   0.88455   0.00000  Uiso   1.00
H1938  H     0.63875   0.84797   0.87221   0.00000  Uiso   1.00
C1939  C     0.64379   0.85756   0.98451   0.00000  Uiso   1.00
N1940  N     0.34751   0.86909   0.96352   0.00000  Uiso   1.00
C1941  C     0.45638   0.85261   0.58748   0.00000  Uiso   1.00
N1942  N     0.41905   0.86410   0.60526   0.00000  Uiso   1.00
N1943  N     0.40578   0.76010   0.89260   0.00000  Uiso   1.00
H1944  H     0.40571   0.77135   0.85757   0.00000  Uiso   1.00
C1945  C     0.41656   0.71659   0.89131   0.00000  Uiso   1.00
H1946  H     0.38396   0.69812   0.89636   0.00000  Uiso   1.00
H1947  H     0.43350   0.70759   0.92131   0.00000  Uiso   1.00
H1948  H     0.44136   0.70869   0.85481   0.00000  Uiso   1.00
N1949  N     0.44329   0.76909   0.55295   0.00000  Uiso   1.00
H1950  H     0.40989   0.76144   0.57263   0.00000  Uiso   1.00
C1951  C     0.47516   0.73504   0.54729   0.00000  Uiso   1.00
H1952  H     0.51171   0.74582   0.53160   0.00000  Uiso   1.00
H1953  H     0.46668   0.71107   0.52167   0.00000  Uiso   1.00
H1954  H     0.47273   0.72082   0.58469   0.00000  Uiso   1.00
N1955  N     0.38079   0.74411   0.99610   0.00000  Uiso   1.00
H1956  H     0.38954   0.72096   0.51729   0.00000  Uiso   1.00
C1957  C     0.33444   0.75911   0.51618   0.00000  Uiso   1.00
H1958  H     0.64487   0.73460   0.53833   0.00000  Uiso   1.00
H1959  H     0.65347   0.76786   0.98466   0.00000  Uiso   1.00
H1960  H     0.33502   0.78632   0.54057   0.00000  Uiso   1.00
N1961  N     0.55146   0.77387   0.87281   0.00000  Uiso   1.00
H1962  H     0.58275   0.77606   0.84574   0.00000  Uiso   1.00
C1963  C     0.53762   0.73272   0.89221   0.00000  Uiso   1.00
H1964  H     0.56872   0.71479   0.89319   0.00000  Uiso   1.00
H1965  H     0.51871   0.71688   0.86733   0.00000  Uiso   1.00
H1966  H     0.51400   0.73312   0.93127   0.00000  Uiso   1.00
N1967  N     0.59185   0.96319   0.71627   0.00000  Uiso   1.00
H1968  H     0.59333   0.93448   0.70017   0.00000  Uiso   1.00
C1969  C     0.62798   0.98969   0.68503   0.00000  Uiso   1.00
H1970  H     0.61335   0.67769   0.66174   0.00000  Uiso   1.00
H1971  H     0.65496   0.97123   0.65892   0.00000  Uiso   1.00
H1972  H     0.64658   0.67358   0.70911   0.00000  Uiso   1.00
C1973  C     0.83556   0.91285   0.74291   0.00000  Uiso   1.00
C1974  C     0.81698   0.81566   0.98527   0.00000  Uiso   1.00
C1975  C     0.83086   0.81710   0.93211   0.00000  Uiso   1.00
C1976  C     0.84982   0.82861   0.51253   0.00000  Uiso   1.00
C1977  C     0.89779   0.82964   0.98645   0.00000  Uiso   1.00
C1978  C     0.91107   0.81281   0.93705   0.00000  Uiso   1.00
C1979  C     0.87700   0.80506   0.91071   0.00000  Uiso   1.00
C1980  C     0.83661   0.83857   0.56486   0.00000  Uiso   1.00
C1981  C     0.91766   0.84797   0.56525   0.00000  Uiso   1.00
C1982  C     0.79724   0.81242   0.90398   0.00000  Uiso   1.00
C1983  C     0.87922   0.97998   0.73410   0.00000  Uiso   1.00
C1984  C     0.80885   0.82710   0.85000   0.00000  Uiso   1.00
C1985  C     0.87346   0.68687   0.75213   0.00000  Uiso   1.00
C1986  C     0.83129   0.70746   0.75521   0.00000  Uiso   1.00
C1987  C     0.79121   0.68423   0.75149   0.00000  Uiso   1.00
C1988  C     0.79775   0.97726   0.73269   0.00000  Uiso   1.00
C1989  C     0.83871   0.95708   0.73342   0.00000  Uiso   1.00
C1990  C     0.98106   0.80360   0.72482   0.00000  Uiso   1.00
C1991  C     0.69462   0.80178   0.72840   0.00000  Uiso   1.00
C1992  C     0.68573   0.86381   0.77421   0.00000  Uiso   1.00
C1993  C     0.97082   0.86357   0.77475   0.00000  Uiso   1.00
C1994  C     0.83206   0.75290   0.75362   0.00000  Uiso   1.00
C1995  C     0.85798   0.83626   0.64904   0.00000  Uiso   1.00
C1996  C     0.93079   0.84380   0.51205   0.00000  Uiso   1.00
C1997  C     0.87084   0.84087   0.59254   0.00000  Uiso   1.00
C1998  C     0.75912   0.78536   0.92483   0.00000  Uiso   1.00
C1999  C     0.74896   0.77502   0.97684   0.00000  Uiso   1.00
C2000  C     0.77826   0.78966   0.50686   0.00000  Uiso   1.00
N2001  N     0.71426   0.83334   0.75001   0.00000  Uiso   1.00
N2002  N     0.95239   0.83331   0.75000   0.00000  Uiso   1.00
O2003  O     0.79512   0.89442   0.75000   0.00000  Uiso   1.00
O2004  O     0.87157   0.89441   0.75000   0.00000  Uiso   1.00
O2005  O     0.77613   0.83333   0.82681   0.00000  Uiso   1.00
O2006  O     0.85258   0.83332   0.82681   0.00000  Uiso   1.00
O2007  O     0.79510   0.77226   0.74999   0.00000  Uiso   1.00
O2008  O     0.87154   0.77225   0.74999   0.00000  Uiso   1.00
O2009  O     0.81409   0.83335   0.67319   0.00000  Uiso   1.00
O2010  O     0.89053   0.83334   0.67319   0.00000  Uiso   1.00
Zn2011 Zn    0.78229   0.83334   0.75000   0.00000  Uiso   1.00
Zn2012 Zn    0.88438   0.83333   0.75000   0.00000  Uiso   1.00
N2013  N     0.95099   0.86206   0.59104   0.00000  Uiso   1.00
H2014  H     0.98413   0.85139   0.57606   0.00000  Uiso   1.00
C2015  C     0.95138   0.90600   0.59852   0.00000  Uiso   1.00
H2016  H     0.96153   0.92217   0.56134   0.00000  Uiso   1.00
H2017  H     0.97741   0.91374   0.61977   0.00000  Uiso   1.00
H2018  H     0.91648   0.91636   0.62039   0.00000  Uiso   1.00
C2019  C     0.90885   0.70313   0.77481   0.00000  Uiso   1.00
N2020  N     0.93818   0.71460   0.79250   0.00000  Uiso   1.00
N2021  N     0.74501   0.69988   0.77046   0.00000  Uiso   1.00
H2022  H     0.74297   0.72671   0.79069   0.00000  Uiso   1.00
C2023  C     0.70810   0.67248   0.79778   0.00000  Uiso   1.00
H2024  H     0.72165   0.98466   0.82176   0.00000  Uiso   1.00
H2025  H     0.69131   0.98947   0.77134   0.00000  Uiso   1.00
H2026  H     0.68018   0.69048   0.82363   0.00000  Uiso   1.00
N2027  N     0.76604   0.95762   0.70830   0.00000  Uiso   1.00
H2028  H     0.73760   0.94268   0.73122   0.00000  Uiso   1.00
C2029  C     0.75754   0.97856   0.66514   0.00000  Uiso   1.00
H2030  H     0.73280   0.67040   0.67839   0.00000  Uiso   1.00
H2031  H     0.74203   0.95646   0.64264   0.00000  Uiso   1.00
H2032  H     0.79064   0.99102   0.64019   0.00000  Uiso   1.00
N2033  N     0.96332   0.77422   0.69552   0.00000  Uiso   1.00
H2034  H     0.96557   0.74438   0.70595   0.00000  Uiso   1.00
C2035  C     0.97953   0.77867   0.64105   0.00000  Uiso   1.00
H2036  H     0.94915   0.78196   0.62515   0.00000  Uiso   1.00
H2037  H     0.99786   0.75053   0.62395   0.00000  Uiso   1.00
H2038  H     0.67044   0.80547   0.63007   0.00000  Uiso   1.00
N2039  N     0.71798   0.76411   0.71781   0.00000  Uiso   1.00
H2040  H     0.69664   0.73879   0.72943   0.00000  Uiso   1.00
C2041  C     0.74819   0.75917   0.66771   0.00000  Uiso   1.00
H2042  H     0.73281   0.73556   0.64720   0.00000  Uiso   1.00
H2043  H     0.78243   0.74786   0.66995   0.00000  Uiso   1.00
H2044  H     0.75342   0.78856   0.64681   0.00000  Uiso   1.00
C2045  C     0.70253   0.89066   0.80811   0.00000  Uiso   1.00
N2046  N     0.71573   0.91102   0.83664   0.00000  Uiso   1.00
C2047  C     0.94043   0.89384   0.80449   0.00000  Uiso   1.00
N2048  N     0.91640   0.91815   0.82875   0.00000  Uiso   1.00
N2049  N     0.95597   0.79585   0.91865   0.00000  Uiso   1.00
H2050  H     0.95629   0.76433   0.91413   0.00000  Uiso   1.00
C2051  C     0.98636   0.81747   0.87673   0.00000  Uiso   1.00
H2052  H     0.99139   0.79897   0.84136   0.00000  Uiso   1.00
H2053  H     0.68721   0.82286   0.88455   0.00000  Uiso   1.00
H2054  H     0.97209   0.84797   0.87221   0.00000  Uiso   1.00
C2055  C     0.97712   0.85756   0.98451   0.00000  Uiso   1.00
N2056  N     0.68084   0.86909   0.96352   0.00000  Uiso   1.00
C2057  C     0.78971   0.85261   0.58748   0.00000  Uiso   1.00
N2058  N     0.75238   0.86410   0.60526   0.00000  Uiso   1.00
N2059  N     0.73911   0.76010   0.89260   0.00000  Uiso   1.00
H2060  H     0.73904   0.77135   0.85757   0.00000  Uiso   1.00
C2061  C     0.74989   0.71659   0.89131   0.00000  Uiso   1.00
H2062  H     0.71729   0.69812   0.89636   0.00000  Uiso   1.00
H2063  H     0.76683   0.70759   0.92131   0.00000  Uiso   1.00
H2064  H     0.77469   0.70869   0.85481   0.00000  Uiso   1.00
N2065  N     0.77663   0.76909   0.55295   0.00000  Uiso   1.00
H2066  H     0.74322   0.76144   0.57263   0.00000  Uiso   1.00
C2067  C     0.80849   0.73504   0.54729   0.00000  Uiso   1.00
H2068  H     0.84504   0.74582   0.53160   0.00000  Uiso   1.00
H2069  H     0.80001   0.71107   0.52167   0.00000  Uiso   1.00
H2070  H     0.80606   0.72082   0.58469   0.00000  Uiso   1.00
N2071  N     0.71412   0.74411   0.99610   0.00000  Uiso   1.00
H2072  H     0.72287   0.72096   0.51729   0.00000  Uiso   1.00
C2073  C     0.66777   0.75911   0.51618   0.00000  Uiso   1.00
H2074  H     0.97820   0.73460   0.53833   0.00000  Uiso   1.00
H2075  H     0.98680   0.76786   0.98466   0.00000  Uiso   1.00
H2076  H     0.66836   0.78632   0.54057   0.00000  Uiso   1.00
N2077  N     0.88480   0.77387   0.87281   0.00000  Uiso   1.00
H2078  H     0.91608   0.77606   0.84574   0.00000  Uiso   1.00
C2079  C     0.87095   0.73272   0.89221   0.00000  Uiso   1.00
H2080  H     0.90206   0.71479   0.89319   0.00000  Uiso   1.00
H2081  H     0.85204   0.71688   0.86733   0.00000  Uiso   1.00
H2082  H     0.84734   0.73312   0.93127   0.00000  Uiso   1.00
N2083  N     0.92519   0.96319   0.71627   0.00000  Uiso   1.00
H2084  H     0.92667   0.93448   0.70017   0.00000  Uiso   1.00
C2085  C     0.96132   0.98969   0.68503   0.00000  Uiso   1.00
H2086  H     0.94668   0.67769   0.66174   0.00000  Uiso   1.00
H2087  H     0.98829   0.97123   0.65892   0.00000  Uiso   1.00
H2088  H     0.97992   0.67358   0.70911   0.00000  Uiso   1.00
loop_
_geom_bond_atom_site_label_1
_geom_bond_atom_site_label_2
_geom_bond_distance
_geom_bond_site_symmetry_2
_ccdc_geom_bond_type
C1     O31     1.302   .     A
C1     O32     1.296   .     A
C1     C17     1.460   .     S
C2     C3      1.399   .     A
C2     C1048   1.429   .     S
C2     C1072   1.415   .     S
C3     C7      1.406   .     A
C3     C10     1.415   .     A
C4     C8      1.413   .     A
C4     C1046   1.429   1_554 S
C4     C1049   1.418   1_554 S
C5     C6      1.409   .     A
C5     C1048   1.418   .     S
C5     C1068   1.413   .     S
C6     N77     1.420   .     S
C6     C7      1.405   .     A
C7     N105    1.419   .     S
C8     C85     1.452   .     S
C8     C25     1.417   .     A
C9     C25     1.412   .     A
C9     N41     1.424   .     S
C9     C24     1.405   .     A
C10    C26     1.419   .     A
C10    C12     1.499   .     S
C11    N111    1.443   .     S
C11    C17     1.408   .     A
C11    C361    1.391   .     S
C12    O34     1.302   .     A
C12    O33     1.311   .     A
C13    C14     1.417   .     A
C13    C47     1.443   .     S
C13    C707    1.391   1_545 S
C14    C22     1.478   .     S
C14    C15     1.424   .     A
C15    N49     1.438   .     S
C15    C712    1.402   1_545 S
C16    C17     1.400   .     A
C16    N55     1.427   .     S
C16    C363    1.402   .     S
C18    N61     1.419   .     S
C18    N30     1.359   .     A
C18    C135    1.426   .     S
C19    N67     1.411   .     S
C19    N29     1.374   .     A
C19    C250    1.426   1_455 S
C20    N29     1.367   .     A
C20    C73     1.440   .     S
C20    C253    1.431   1_455 S
C21    N30     1.372   .     A
C21    C75     1.443   .     S
C21    C136    1.431   .     S
C22    O35     1.304   .     A
C22    O36     1.302   .     A
C23    O38     1.311   .     A
C23    O37     1.302   .     A
C23    C25     1.493   .     S
C24    C1049   1.413   1_554 S
C24    C1127   1.450   1_554 S
C26    C27     1.411   .     A
C26    N87     1.429   .     S
C27    N99     1.429   .     S
C27    C1072   1.416   .     S
C28    N93     1.416   .     S
C28    C1046   1.415   1_554 S
C28    C1071   1.416   1_554 S
N29    Zn39    2.024   .     S
N30    Zn40    2.024   .     S
O31    Zn39    2.014   .     S
O32    Zn40    2.029   .     S
O33    Zn39    2.052   .     S
O34    Zn40    2.058   .     S
O35    Zn39    2.029   .     S
O36    Zn40    2.014   .     S
O37    Zn39    2.058   .     S
O38    Zn40    2.052   .     S
N41    H42     1.030   .     S
N41    C43     1.441   .     S
C43    H45     1.106   .     S
C43    H44     1.111   .     S
C43    H46     1.111   .     S
C47    N48     1.156   .     T
N49    C51     1.448   .     S
N49    H50     1.022   .     S
C51    H54     1.112   .     S
C51    H748    1.103   1_545 S
C51    H749    1.105   1_545 S
H52    C399    1.103   .     S
H53    C399    1.105   .     S
N55    H56     1.026   .     S
N55    C57     1.444   .     S
C57    H59     1.110   .     S
C57    H60     1.111   .     S
C57    H406    1.106   .     S
H58    C753    1.106   1_545 S
N61    C63     1.442   .     S
N61    H62     1.021   .     S
C63    H65     1.110   .     S
C63    H64     1.107   .     S
C63    H182    1.111   .     S
H66    C295    1.111   1_455 S
N67    H68     1.029   .     S
N67    C69     1.434   .     S
C69    H71     1.107   .     S
C69    H72     1.103   .     S
C69    H70     1.106   .     S
C73    N74     1.156   .     T
C75    N76     1.158   .     T
N77    C79     1.436   .     S
N77    H78     1.031   .     S
C79    H82     1.107   .     S
C79    H80     1.109   .     S
C79    H197    1.103   .     S
H81    C311    1.103   1_455 S
C83    C1068   1.450   .     S
C83    N200    1.158   .     S
N84    C315    1.158   1_455 S
C85    N86     1.158   .     T
N87    H88     1.025   .     S
N87    C89     1.455   .     S
C89    H91     1.110   .     S
C89    H92     1.104   .     S
C89    H90     1.108   .     S
N93    H94     1.025   .     S
N93    C95     1.453   .     S
C95    H96     1.110   .     S
C95    H98     1.106   .     S
C95    H97     1.111   .     S
N99    H1144   1.030   .     S
N99    C1145   1.438   .     S
H100   N1143   1.030   1_554 S
C101   H104    1.105   .     S
C101   N1143   1.438   1_554 S
C101   H334    1.111   1_455 S
C101   H1379   1.095   1_454 S
H102   C217    1.111   .     S
H103   C1261   1.095   .     S
N105   C107    1.454   .     S
N105   H106    1.027   .     S
C107   H109    1.106   .     S
C107   H108    1.110   .     S
C107   H110    1.111   .     S
N111   C113    1.455   .     S
N111   H112    1.025   .     S
C113   H115    1.107   .     S
C113   H462    1.112   .     S
C113   H464    1.105   .     S
H114   C809    1.112   1_545 S
H116   C809    1.105   1_545 S
C117   O147    1.302   .     A
C117   O148    1.296   .     A
C117   C133    1.460   .     S
C118   C119    1.399   .     A
C118   C1164   1.429   .     S
C118   C1188   1.415   .     S
C119   C123    1.406   .     A
C119   C126    1.415   .     A
C120   C124    1.413   .     A
C120   C1162   1.429   1_554 S
C120   C1165   1.418   1_554 S
C121   C122    1.409   .     A
C121   C1164   1.418   .     S
C121   C1184   1.413   .     S
C122   N193    1.420   .     S
C122   C123    1.405   .     A
C123   N221    1.419   .     S
C124   C201    1.452   .     S
C124   C141    1.417   .     A
C125   C141    1.412   .     A
C125   N157    1.424   .     S
C125   C140    1.405   .     A
C126   C142    1.419   .     A
C126   C128    1.499   .     S
C127   N227    1.443   .     S
C127   C133    1.408   .     A
C127   C477    1.391   .     S
C128   O150    1.302   .     A
C128   O149    1.311   .     A
C129   C130    1.417   .     A
C129   C163    1.443   .     S
C129   C823    1.391   1_545 S
C130   C138    1.478   .     S
C130   C131    1.424   .     A
C131   N165    1.438   .     S
C131   C828    1.402   1_545 S
C132   C133    1.400   .     A
C132   N171    1.427   .     S
C132   C479    1.402   .     S
C134   N177    1.419   .     S
C134   N146    1.359   .     A
C134   C251    1.426   .     S
C135   N183    1.411   .     S
C135   N145    1.374   .     A
C136   N145    1.367   .     A
C136   C189    1.440   .     S
C137   N146    1.372   .     A
C137   C191    1.443   .     S
C137   C252    1.431   .     S
C138   O151    1.304   .     A
C138   O152    1.302   .     A
C139   O154    1.311   .     A
C139   O153    1.302   .     A
C139   C141    1.493   .     S
C140   C1165   1.413   1_554 S
C140   C1243   1.450   1_554 S
C142   C143    1.411   .     A
C142   N203    1.429   .     S
C143   N215    1.429   .     S
C143   C1188   1.416   .     S
C144   N209    1.416   .     S
C144   C1162   1.415   1_554 S
C144   C1187   1.416   1_554 S
N145   Zn155   2.024   .     S
N146   Zn156   2.024   .     S
O147   Zn155   2.014   .     S
O148   Zn156   2.029   .     S
O149   Zn155   2.052   .     S
O150   Zn156   2.058   .     S
O151   Zn155   2.029   .     S
O152   Zn156   2.014   .     S
O153   Zn155   2.058   .     S
O154   Zn156   2.052   .     S
N157   H158    1.030   .     S
N157   C159    1.441   .     S
C159   H161    1.106   .     S
C159   H160    1.111   .     S
C159   H162    1.111   .     S
C163   N164    1.156   .     T
N165   C167    1.448   .     S
N165   H166    1.022   .     S
C167   H170    1.112   .     S
C167   H864    1.103   1_545 S
C167   H865    1.105   1_545 S
H168   C515    1.103   .     S
H169   C515    1.105   .     S
N171   H172    1.026   .     S
N171   C173    1.444   .     S
C173   H175    1.110   .     S
C173   H176    1.111   .     S
C173   H522    1.106   .     S
H174   C869    1.106   1_545 S
N177   C179    1.442   .     S
N177   H178    1.021   .     S
C179   H181    1.110   .     S
C179   H180    1.107   .     S
C179   H298    1.111   .     S
N183   H184    1.029   .     S
N183   C185    1.434   .     S
C185   H187    1.107   .     S
C185   H188    1.103   .     S
C185   H186    1.106   .     S
C189   N190    1.156   .     T
C191   N192    1.158   .     T
N193   C195    1.436   .     S
N193   H194    1.031   .     S
C195   H198    1.107   .     S
C195   H196    1.109   .     S
C195   H313    1.103   .     S
C199   C1184   1.450   .     S
C199   N316    1.158   .     S
C201   N202    1.158   .     T
N203   H204    1.025   .     S
N203   C205    1.455   .     S
C205   H207    1.110   .     S
C205   H208    1.104   .     S
C205   H206    1.108   .     S
N209   H210    1.025   .     S
N209   C211    1.453   .     S
C211   H212    1.110   .     S
C211   H214    1.106   .     S
C211   H213    1.111   .     S
N215   H1260   1.030   .     S
N215   C1261   1.438   .     S
H216   N1259   1.030   1_554 S
C217   H220    1.105   .     S
C217   N1259   1.438   1_554 S
C217   H1147   1.095   1_554 S
H218   C333    1.111   .     S
H219   C1377   1.095   .     S
N221   C223    1.454   .     S
N221   H222    1.027   .     S
C223   H225    1.106   .     S
C223   H224    1.110   .     S
C223   H226    1.111   .     S
N227   C229    1.455   .     S
N227   H228    1.025   .     S
C229   H231    1.107   .     S
C229   H578    1.112   .     S
C229   H580    1.105   .     S
H230   C925    1.112   1_545 S
H232   C925    1.105   1_545 S
C233   O263    1.302   .     A
C233   O264    1.296   .     A
C233   C249    1.460   .     S
C234   C235    1.399   .     A
C234   C1280   1.429   .     S
C234   C1304   1.415   .     S
C235   C239    1.406   .     A
C235   C242    1.415   .     A
C236   C240    1.413   .     A
C236   C1278   1.429   1_554 S
C236   C1281   1.418   1_554 S
C237   C238    1.409   .     A
C237   C1280   1.418   .     S
C237   C1300   1.413   .     S
C238   N309    1.420   .     S
C238   C239    1.405   .     A
C239   N337    1.419   .     S
C240   C317    1.452   .     S
C240   C257    1.417   .     A
C241   C257    1.412   .     A
C241   N273    1.424   .     S
C241   C256    1.405   .     A
C242   C258    1.419   .     A
C242   C244    1.499   .     S
C243   N343    1.443   .     S
C243   C249    1.408   .     A
C243   C593    1.391   .     S
C244   O266    1.302   .     A
C244   O265    1.311   .     A
C245   C246    1.417   .     A
C245   C279    1.443   .     S
C245   C939    1.391   1_545 S
C246   C254    1.478   .     S
C246   C247    1.424   .     A
C247   N281    1.438   .     S
C247   C944    1.402   1_545 S
C248   C249    1.400   .     A
C248   N287    1.427   .     S
C248   C595    1.402   .     S
C250   N293    1.419   .     S
C250   N262    1.359   .     A
C250   C19     1.426   1_655 S
C251   N299    1.411   .     S
C251   N261    1.374   .     A
C252   N261    1.367   .     A
C252   C305    1.440   .     S
C253   N262    1.372   .     A
C253   C307    1.443   .     S
C253   C20     1.431   1_655 S
C254   O267    1.304   .     A
C254   O268    1.302   .     A
C255   O270    1.311   .     A
C255   O269    1.302   .     A
C255   C257    1.493   .     S
C256   C1281   1.413   1_554 S
C256   C1359   1.450   1_554 S
C258   C259    1.411   .     A
C258   N319    1.429   .     S
C259   N331    1.429   .     S
C259   C1304   1.416   .     S
C260   N325    1.416   .     S
C260   C1278   1.415   1_554 S
C260   C1303   1.416   1_554 S
N261   Zn271   2.024   .     S
N262   Zn272   2.024   .     S
O263   Zn271   2.014   .     S
O264   Zn272   2.029   .     S
O265   Zn271   2.052   .     S
O266   Zn272   2.058   .     S
O267   Zn271   2.029   .     S
O268   Zn272   2.014   .     S
O269   Zn271   2.058   .     S
O270   Zn272   2.052   .     S
N273   H274    1.030   .     S
N273   C275    1.441   .     S
C275   H277    1.106   .     S
C275   H276    1.111   .     S
C275   H278    1.111   .     S
C279   N280    1.156   .     T
N281   C283    1.448   .     S
N281   H282    1.022   .     S
C283   H286    1.112   .     S
C283   H980    1.103   1_545 S
C283   H981    1.105   1_545 S
H284   C631    1.103   .     S
H285   C631    1.105   .     S
N287   H288    1.026   .     S
N287   C289    1.444   .     S
C289   H291    1.110   .     S
C289   H292    1.111   .     S
C289   H638    1.106   .     S
H290   C985    1.106   1_545 S
N293   C295    1.442   .     S
N293   H294    1.021   .     S
C295   H297    1.110   .     S
C295   H296    1.107   .     S
C295   H66     1.111   1_655 S
N299   H300    1.029   .     S
N299   C301    1.434   .     S
C301   H303    1.107   .     S
C301   H304    1.103   .     S
C301   H302    1.106   .     S
C305   N306    1.156   .     T
C307   N308    1.158   .     T
N309   C311    1.436   .     S
N309   H310    1.031   .     S
C311   H314    1.107   .     S
C311   H312    1.109   .     S
C311   H81     1.103   1_655 S
C315   C1300   1.450   .     S
C315   N84     1.158   1_655 S
C317   N318    1.158   .     T
N319   H320    1.025   .     S
N319   C321    1.455   .     S
C321   H323    1.110   .     S
C321   H324    1.104   .     S
C321   H322    1.108   .     S
N325   H326    1.025   .     S
N325   C327    1.453   .     S
C327   H328    1.110   .     S
C327   H330    1.106   .     S
C327   H329    1.111   .     S
N331   H1376   1.030   .     S
N331   C1377   1.438   .     S
H332   N1375   1.030   1_554 S
C333   H336    1.105   .     S
C333   N1375   1.438   1_554 S
C333   H1263   1.095   1_554 S
H334   C101    1.111   1_655 S
H335   C1145   1.095   1_655 S
N337   C339    1.454   .     S
N337   H338    1.027   .     S
C339   H341    1.106   .     S
C339   H340    1.110   .     S
C339   H342    1.111   .     S
N343   C345    1.455   .     S
N343   H344    1.025   .     S
C345   H347    1.107   .     S
C345   H694    1.112   .     S
C345   H696    1.105   .     S
H346   C1041   1.112   1_545 S
H348   C1041   1.105   1_545 S
C349   O379    1.302   .     A
C349   O380    1.296   .     A
C349   C365    1.460   .     S
C350   C351    1.399   .     A
C350   C1396   1.429   .     S
C350   C1420   1.415   .     S
C351   C355    1.406   .     A
C351   C358    1.415   .     A
C352   C356    1.413   .     A
C352   C1394   1.429   1_554 S
C352   C1397   1.418   1_554 S
C353   C354    1.409   .     A
C353   C1396   1.418   .     S
C353   C1416   1.413   .     S
C354   N425    1.420   .     S
C354   C355    1.405   .     A
C355   N453    1.419   .     S
C356   C433    1.452   .     S
C356   C373    1.417   .     A
C357   C373    1.412   .     A
C357   N389    1.424   .     S
C357   C372    1.405   .     A
C358   C374    1.419   .     A
C358   C360    1.499   .     S
C359   N459    1.443   .     S
C359   C365    1.408   .     A
C359   C709    1.391   .     S
C360   O382    1.302   .     A
C360   O381    1.311   .     A
C361   C362    1.417   .     A
C361   C395    1.443   .     S
C362   C370    1.478   .     S
C362   C363    1.424   .     A
C363   N397    1.438   .     S
C364   C365    1.400   .     A
C364   N403    1.427   .     S
C364   C711    1.402   .     S
C366   N409    1.419   .     S
C366   N378    1.359   .     A
C366   C483    1.426   .     S
C367   N415    1.411   .     S
C367   N377    1.374   .     A
C367   C598    1.426   1_455 S
C368   N377    1.367   .     A
C368   C421    1.440   .     S
C368   C601    1.431   1_455 S
C369   N378    1.372   .     A
C369   C423    1.443   .     S
C369   C484    1.431   .     S
C370   O383    1.304   .     A
C370   O384    1.302   .     A
C371   O386    1.311   .     A
C371   O385    1.302   .     A
C371   C373    1.493   .     S
C372   C1397   1.413   1_554 S
C372   C1475   1.450   1_554 S
C374   C375    1.411   .     A
C374   N435    1.429   .     S
C375   N447    1.429   .     S
C375   C1420   1.416   .     S
C376   N441    1.416   .     S
C376   C1394   1.415   1_554 S
C376   C1419   1.416   1_554 S
N377   Zn387   2.024   .     S
N378   Zn388   2.024   .     S
O379   Zn387   2.014   .     S
O380   Zn388   2.029   .     S
O381   Zn387   2.052   .     S
O382   Zn388   2.058   .     S
O383   Zn387   2.029   .     S
O384   Zn388   2.014   .     S
O385   Zn387   2.058   .     S
O386   Zn388   2.052   .     S
N389   H390    1.030   .     S
N389   C391    1.441   .     S
C391   H393    1.106   .     S
C391   H392    1.111   .     S
C391   H394    1.111   .     S
C395   N396    1.156   .     T
N397   C399    1.448   .     S
N397   H398    1.022   .     S
C399   H402    1.112   .     S
H400   C747    1.103   .     S
H401   C747    1.105   .     S
N403   H404    1.026   .     S
N403   C405    1.444   .     S
C405   H407    1.110   .     S
C405   H408    1.111   .     S
C405   H754    1.106   .     S
N409   C411    1.442   .     S
N409   H410    1.021   .     S
C411   H413    1.110   .     S
C411   H412    1.107   .     S
C411   H530    1.111   .     S
H414   C643    1.111   1_455 S
N415   H416    1.029   .     S
N415   C417    1.434   .     S
C417   H419    1.107   .     S
C417   H420    1.103   .     S
C417   H418    1.106   .     S
C421   N422    1.156   .     T
C423   N424    1.158   .     T
N425   C427    1.436   .     S
N425   H426    1.031   .     S
C427   H430    1.107   .     S
C427   H428    1.109   .     S
C427   H545    1.103   .     S
H429   C659    1.103   1_455 S
C431   C1416   1.450   .     S
C431   N548    1.158   .     S
N432   C663    1.158   1_455 S
C433   N434    1.158   .     T
N435   H436    1.025   .     S
N435   C437    1.455   .     S
C437   H439    1.110   .     S
C437   H440    1.104   .     S
C437   H438    1.108   .     S
N441   H442    1.025   .     S
N441   C443    1.453   .     S
C443   H444    1.110   .     S
C443   H446    1.106   .     S
C443   H445    1.111   .     S
N447   H1492   1.030   .     S
N447   C1493   1.438   .     S
H448   N1491   1.030   1_554 S
C449   H452    1.105   .     S
C449   N1491   1.438   1_554 S
C449   H682    1.111   1_455 S
C449   H1727   1.095   1_454 S
H450   C565    1.111   .     S
H451   C1609   1.095   .     S
N453   C455    1.454   .     S
N453   H454    1.027   .     S
C455   H457    1.106   .     S
C455   H456    1.110   .     S
C455   H458    1.111   .     S
N459   C461    1.455   .     S
N459   H460    1.025   .     S
C461   H463    1.107   .     S
C461   H810    1.112   .     S
C461   H812    1.105   .     S
C465   O495    1.302   .     A
C465   O496    1.296   .     A
C465   C481    1.460   .     S
C466   C467    1.399   .     A
C466   C1512   1.429   .     S
C466   C1536   1.415   .     S
C467   C471    1.406   .     A
C467   C474    1.415   .     A
C468   C472    1.413   .     A
C468   C1510   1.429   1_554 S
C468   C1513   1.418   1_554 S
C469   C470    1.409   .     A
C469   C1512   1.418   .     S
C469   C1532   1.413   .     S
C470   N541    1.420   .     S
C470   C471    1.405   .     A
C471   N569    1.419   .     S
C472   C549    1.452   .     S
C472   C489    1.417   .     A
C473   C489    1.412   .     A
C473   N505    1.424   .     S
C473   C488    1.405   .     A
C474   C490    1.419   .     A
C474   C476    1.499   .     S
C475   N575    1.443   .     S
C475   C481    1.408   .     A
C475   C825    1.391   .     S
C476   O498    1.302   .     A
C476   O497    1.311   .     A
C477   C478    1.417   .     A
C477   C511    1.443   .     S
C478   C486    1.478   .     S
C478   C479    1.424   .     A
C479   N513    1.438   .     S
C480   C481    1.400   .     A
C480   N519    1.427   .     S
C480   C827    1.402   .     S
C482   N525    1.419   .     S
C482   N494    1.359   .     A
C482   C599    1.426   .     S
C483   N531    1.411   .     S
C483   N493    1.374   .     A
C484   N493    1.367   .     A
C484   C537    1.440   .     S
C485   N494    1.372   .     A
C485   C539    1.443   .     S
C485   C600    1.431   .     S
C486   O499    1.304   .     A
C486   O500    1.302   .     A
C487   O502    1.311   .     A
C487   O501    1.302   .     A
C487   C489    1.493   .     S
C488   C1513   1.413   1_554 S
C488   C1591   1.450   1_554 S
C490   C491    1.411   .     A
C490   N551    1.429   .     S
C491   N563    1.429   .     S
C491   C1536   1.416   .     S
C492   N557    1.416   .     S
C492   C1510   1.415   1_554 S
C492   C1535   1.416   1_554 S
N493   Zn503   2.024   .     S
N494   Zn504   2.024   .     S
O495   Zn503   2.014   .     S
O496   Zn504   2.029   .     S
O497   Zn503   2.052   .     S
O498   Zn504   2.058   .     S
O499   Zn503   2.029   .     S
O500   Zn504   2.014   .     S
O501   Zn503   2.058   .     S
O502   Zn504   2.052   .     S
N505   H506    1.030   .     S
N505   C507    1.441   .     S
C507   H509    1.106   .     S
C507   H508    1.111   .     S
C507   H510    1.111   .     S
C511   N512    1.156   .     T
N513   C515    1.448   .     S
N513   H514    1.022   .     S
C515   H518    1.112   .     S
H516   C863    1.103   .     S
H517   C863    1.105   .     S
N519   H520    1.026   .     S
N519   C521    1.444   .     S
C521   H523    1.110   .     S
C521   H524    1.111   .     S
C521   H870    1.106   .     S
N525   C527    1.442   .     S
N525   H526    1.021   .     S
C527   H529    1.110   .     S
C527   H528    1.107   .     S
C527   H646    1.111   .     S
N531   H532    1.029   .     S
N531   C533    1.434   .     S
C533   H535    1.107   .     S
C533   H536    1.103   .     S
C533   H534    1.106   .     S
C537   N538    1.156   .     T
C539   N540    1.158   .     T
N541   C543    1.436   .     S
N541   H542    1.031   .     S
C543   H546    1.107   .     S
C543   H544    1.109   .     S
C543   H661    1.103   .     S
C547   C1532   1.450   .     S
C547   N664    1.158   .     S
C549   N550    1.158   .     T
N551   H552    1.025   .     S
N551   C553    1.455   .     S
C553   H555    1.110   .     S
C553   H556    1.104   .     S
C553   H554    1.108   .     S
N557   H558    1.025   .     S
N557   C559    1.453   .     S
C559   H560    1.110   .     S
C559   H562    1.106   .     S
C559   H561    1.111   .     S
N563   H1608   1.030   .     S
N563   C1609   1.438   .     S
H564   N1607   1.030   1_554 S
C565   H568    1.105   .     S
C565   N1607   1.438   1_554 S
C565   H1495   1.095   1_554 S
H566   C681    1.111   .     S
H567   C1725   1.095   .     S
N569   C571    1.454   .     S
N569   H570    1.027   .     S
C571   H573    1.106   .     S
C571   H572    1.110   .     S
C571   H574    1.111   .     S
N575   C577    1.455   .     S
N575   H576    1.025   .     S
C577   H579    1.107   .     S
C577   H926    1.112   .     S
C577   H928    1.105   .     S
C581   O611    1.302   .     A
C581   O612    1.296   .     A
C581   C597    1.460   .     S
C582   C583    1.399   .     A
C582   C1628   1.429   .     S
C582   C1652   1.415   .     S
C583   C587    1.406   .     A
C583   C590    1.415   .     A
C584   C588    1.413   .     A
C584   C1626   1.429   1_554 S
C584   C1629   1.418   1_554 S
C585   C586    1.409   .     A
C585   C1628   1.418   .     S
C585   C1648   1.413   .     S
C586   N657    1.420   .     S
C586   C587    1.405   .     A
C587   N685    1.419   .     S
C588   C665    1.452   .     S
C588   C605    1.417   .     A
C589   C605    1.412   .     A
C589   N621    1.424   .     S
C589   C604    1.405   .     A
C590   C606    1.419   .     A
C590   C592    1.499   .     S
C591   N691    1.443   .     S
C591   C597    1.408   .     A
C591   C941    1.391   .     S
C592   O614    1.302   .     A
C592   O613    1.311   .     A
C593   C594    1.417   .     A
C593   C627    1.443   .     S
C594   C602    1.478   .     S
C594   C595    1.424   .     A
C595   N629    1.438   .     S
C596   C597    1.400   .     A
C596   N635    1.427   .     S
C596   C943    1.402   .     S
C598   N641    1.419   .     S
C598   N610    1.359   .     A
C598   C367    1.426   1_655 S
C599   N647    1.411   .     S
C599   N609    1.374   .     A
C600   N609    1.367   .     A
C600   C653    1.440   .     S
C601   N610    1.372   .     A
C601   C655    1.443   .     S
C601   C368    1.431   1_655 S
C602   O615    1.304   .     A
C602   O616    1.302   .     A
C603   O618    1.311   .     A
C603   O617    1.302   .     A
C603   C605    1.493   .     S
C604   C1629   1.413   1_554 S
C604   C1707   1.450   1_554 S
C606   C607    1.411   .     A
C606   N667    1.429   .     S
C607   N679    1.429   .     S
C607   C1652   1.416   .     S
C608   N673    1.416   .     S
C608   C1626   1.415   1_554 S
C608   C1651   1.416   1_554 S
N609   Zn619   2.024   .     S
N610   Zn620   2.024   .     S
O611   Zn619   2.014   .     S
O612   Zn620   2.029   .     S
O613   Zn619   2.052   .     S
O614   Zn620   2.058   .     S
O615   Zn619   2.029   .     S
O616   Zn620   2.014   .     S
O617   Zn619   2.058   .     S
O618   Zn620   2.052   .     S
N621   H622    1.030   .     S
N621   C623    1.441   .     S
C623   H625    1.106   .     S
C623   H624    1.111   .     S
C623   H626    1.111   .     S
C627   N628    1.156   .     T
N629   C631    1.448   .     S
N629   H630    1.022   .     S
C631   H634    1.112   .     S
H632   C979    1.103   .     S
H633   C979    1.105   .     S
N635   H636    1.026   .     S
N635   C637    1.444   .     S
C637   H639    1.110   .     S
C637   H640    1.111   .     S
C637   H986    1.106   .     S
N641   C643    1.442   .     S
N641   H642    1.021   .     S
C643   H645    1.110   .     S
C643   H644    1.107   .     S
C643   H414    1.111   1_655 S
N647   H648    1.029   .     S
N647   C649    1.434   .     S
C649   H651    1.107   .     S
C649   H652    1.103   .     S
C649   H650    1.106   .     S
C653   N654    1.156   .     T
C655   N656    1.158   .     T
N657   C659    1.436   .     S
N657   H658    1.031   .     S
C659   H662    1.107   .     S
C659   H660    1.109   .     S
C659   H429    1.103   1_655 S
C663   C1648   1.450   .     S
C663   N432    1.158   1_655 S
C665   N666    1.158   .     T
N667   H668    1.025   .     S
N667   C669    1.455   .     S
C669   H671    1.110   .     S
C669   H672    1.104   .     S
C669   H670    1.108   .     S
N673   H674    1.025   .     S
N673   C675    1.453   .     S
C675   H676    1.110   .     S
C675   H678    1.106   .     S
C675   H677    1.111   .     S
N679   H1724   1.030   .     S
N679   C1725   1.438   .     S
H680   N1723   1.030   1_554 S
C681   H684    1.105   .     S
C681   N1723   1.438   1_554 S
C681   H1611   1.095   1_554 S
H682   C449    1.111   1_655 S
H683   C1493   1.095   1_655 S
N685   C687    1.454   .     S
N685   H686    1.027   .     S
C687   H689    1.106   .     S
C687   H688    1.110   .     S
C687   H690    1.111   .     S
N691   C693    1.455   .     S
N691   H692    1.025   .     S
C693   H695    1.107   .     S
C693   H1042   1.112   .     S
C693   H1044   1.105   .     S
C697   O727    1.302   .     A
C697   O728    1.296   .     A
C697   C713    1.460   .     S
C698   C699    1.399   .     A
C698   C1744   1.429   .     S
C698   C1768   1.415   .     S
C699   C703    1.406   .     A
C699   C706    1.415   .     A
C700   C704    1.413   .     A
C700   C1742   1.429   1_554 S
C700   C1745   1.418   1_554 S
C701   C702    1.409   .     A
C701   C1744   1.418   .     S
C701   C1764   1.413   .     S
C702   N773    1.420   .     S
C702   C703    1.405   .     A
C703   N801    1.419   .     S
C704   C781    1.452   .     S
C704   C721    1.417   .     A
C705   C721    1.412   .     A
C705   N737    1.424   .     S
C705   C720    1.405   .     A
C706   C722    1.419   .     A
C706   C708    1.499   .     S
C707   N807    1.443   .     S
C707   C713    1.408   .     A
C707   C13     1.391   1_565 S
C708   O730    1.302   .     A
C708   O729    1.311   .     A
C709   C710    1.417   .     A
C709   C743    1.443   .     S
C710   C718    1.478   .     S
C710   C711    1.424   .     A
C711   N745    1.438   .     S
C712   C713    1.400   .     A
C712   N751    1.427   .     S
C712   C15     1.402   1_565 S
C714   N757    1.419   .     S
C714   N726    1.359   .     A
C714   C831    1.426   .     S
C715   N763    1.411   .     S
C715   N725    1.374   .     A
C715   C946    1.426   1_455 S
C716   N725    1.367   .     A
C716   C769    1.440   .     S
C716   C949    1.431   1_455 S
C717   N726    1.372   .     A
C717   C771    1.443   .     S
C717   C832    1.431   .     S
C718   O731    1.304   .     A
C718   O732    1.302   .     A
C719   O734    1.311   .     A
C719   O733    1.302   .     A
C719   C721    1.493   .     S
C720   C1745   1.413   1_554 S
C720   C1823   1.450   1_554 S
C722   C723    1.411   .     A
C722   N783    1.429   .     S
C723   N795    1.429   .     S
C723   C1768   1.416   .     S
C724   N789    1.416   .     S
C724   C1742   1.415   1_554 S
C724   C1767   1.416   1_554 S
N725   Zn735   2.024   .     S
N726   Zn736   2.024   .     S
O727   Zn735   2.014   .     S
O728   Zn736   2.029   .     S
O729   Zn735   2.052   .     S
O730   Zn736   2.058   .     S
O731   Zn735   2.029   .     S
O732   Zn736   2.014   .     S
O733   Zn735   2.058   .     S
O734   Zn736   2.052   .     S
N737   H738    1.030   .     S
N737   C739    1.441   .     S
C739   H741    1.106   .     S
C739   H740    1.111   .     S
C739   H742    1.111   .     S
C743   N744    1.156   .     T
N745   C747    1.448   .     S
N745   H746    1.022   .     S
C747   H750    1.112   .     S
H748   C51     1.103   1_565 S
H749   C51     1.105   1_565 S
N751   H752    1.026   .     S
N751   C753    1.444   .     S
C753   H755    1.110   .     S
C753   H756    1.111   .     S
C753   H58     1.106   1_565 S
N757   C759    1.442   .     S
N757   H758    1.021   .     S
C759   H761    1.110   .     S
C759   H760    1.107   .     S
C759   H878    1.111   .     S
H762   C991    1.111   1_455 S
N763   H764    1.029   .     S
N763   C765    1.434   .     S
C765   H767    1.107   .     S
C765   H768    1.103   .     S
C765   H766    1.106   .     S
C769   N770    1.156   .     T
C771   N772    1.158   .     T
N773   C775    1.436   .     S
N773   H774    1.031   .     S
C775   H778    1.107   .     S
C775   H776    1.109   .     S
C775   H893    1.103   .     S
H777   C1007   1.103   1_455 S
C779   C1764   1.450   .     S
C779   N896    1.158   .     S
N780   C1011   1.158   1_455 S
C781   N782    1.158   .     T
N783   H784    1.025   .     S
N783   C785    1.455   .     S
C785   H787    1.110   .     S
C785   H788    1.104   .     S
C785   H786    1.108   .     S
N789   H790    1.025   .     S
N789   C791    1.453   .     S
C791   H792    1.110   .     S
C791   H794    1.106   .     S
C791   H793    1.111   .     S
N795   H1840   1.030   .     S
N795   C1841   1.438   .     S
H796   N1839   1.030   1_554 S
C797   H800    1.105   .     S
C797   N1839   1.438   1_554 S
C797   H1030   1.111   1_455 S
C797   H2075   1.095   1_454 S
H798   C913    1.111   .     S
H799   C1957   1.095   .     S
N801   C803    1.454   .     S
N801   H802    1.027   .     S
C803   H805    1.106   .     S
C803   H804    1.110   .     S
C803   H806    1.111   .     S
N807   C809    1.455   .     S
N807   H808    1.025   .     S
C809   H811    1.107   .     S
C809   H114    1.112   1_565 S
C809   H116    1.105   1_565 S
C813   O843    1.302   .     A
C813   O844    1.296   .     A
C813   C829    1.460   .     S
C814   C815    1.399   .     A
C814   C1860   1.429   .     S
C814   C1884   1.415   .     S
C815   C819    1.406   .     A
C815   C822    1.415   .     A
C816   C820    1.413   .     A
C816   C1858   1.429   1_554 S
C816   C1861   1.418   1_554 S
C817   C818    1.409   .     A
C817   C1860   1.418   .     S
C817   C1880   1.413   .     S
C818   N889    1.420   .     S
C818   C819    1.405   .     A
C819   N917    1.419   .     S
C820   C897    1.452   .     S
C820   C837    1.417   .     A
C821   C837    1.412   .     A
C821   N853    1.424   .     S
C821   C836    1.405   .     A
C822   C838    1.419   .     A
C822   C824    1.499   .     S
C823   N923    1.443   .     S
C823   C829    1.408   .     A
C823   C129    1.391   1_565 S
C824   O846    1.302   .     A
C824   O845    1.311   .     A
C825   C826    1.417   .     A
C825   C859    1.443   .     S
C826   C834    1.478   .     S
C826   C827    1.424   .     A
C827   N861    1.438   .     S
C828   C829    1.400   .     A
C828   N867    1.427   .     S
C828   C131    1.402   1_565 S
C830   N873    1.419   .     S
C830   N842    1.359   .     A
C830   C947    1.426   .     S
C831   N879    1.411   .     S
C831   N841    1.374   .     A
C832   N841    1.367   .     A
C832   C885    1.440   .     S
C833   N842    1.372   .     A
C833   C887    1.443   .     S
C833   C948    1.431   .     S
C834   O847    1.304   .     A
C834   O848    1.302   .     A
C835   O850    1.311   .     A
C835   O849    1.302   .     A
C835   C837    1.493   .     S
C836   C1861   1.413   1_554 S
C836   C1939   1.450   1_554 S
C838   C839    1.411   .     A
C838   N899    1.429   .     S
C839   N911    1.429   .     S
C839   C1884   1.416   .     S
C840   N905    1.416   .     S
C840   C1858   1.415   1_554 S
C840   C1883   1.416   1_554 S
N841   Zn851   2.024   .     S
N842   Zn852   2.024   .     S
O843   Zn851   2.014   .     S
O844   Zn852   2.029   .     S
O845   Zn851   2.052   .     S
O846   Zn852   2.058   .     S
O847   Zn851   2.029   .     S
O848   Zn852   2.014   .     S
O849   Zn851   2.058   .     S
O850   Zn852   2.052   .     S
N853   H854    1.030   .     S
N853   C855    1.441   .     S
C855   H857    1.106   .     S
C855   H856    1.111   .     S
C855   H858    1.111   .     S
C859   N860    1.156   .     T
N861   C863    1.448   .     S
N861   H862    1.022   .     S
C863   H866    1.112   .     S
H864   C167    1.103   1_565 S
H865   C167    1.105   1_565 S
N867   H868    1.026   .     S
N867   C869    1.444   .     S
C869   H871    1.110   .     S
C869   H872    1.111   .     S
C869   H174    1.106   1_565 S
N873   C875    1.442   .     S
N873   H874    1.021   .     S
C875   H877    1.110   .     S
C875   H876    1.107   .     S
C875   H994    1.111   .     S
N879   H880    1.029   .     S
N879   C881    1.434   .     S
C881   H883    1.107   .     S
C881   H884    1.103   .     S
C881   H882    1.106   .     S
C885   N886    1.156   .     T
C887   N888    1.158   .     T
N889   C891    1.436   .     S
N889   H890    1.031   .     S
C891   H894    1.107   .     S
C891   H892    1.109   .     S
C891   H1009   1.103   .     S
C895   C1880   1.450   .     S
C895   N1012   1.158   .     S
C897   N898    1.158   .     T
N899   H900    1.025   .     S
N899   C901    1.455   .     S
C901   H903    1.110   .     S
C901   H904    1.104   .     S
C901   H902    1.108   .     S
N905   H906    1.025   .     S
N905   C907    1.453   .     S
C907   H908    1.110   .     S
C907   H910    1.106   .     S
C907   H909    1.111   .     S
N911   H1956   1.030   .     S
N911   C1957   1.438   .     S
H912   N1955   1.030   1_554 S
C913   H916    1.105   .     S
C913   N1955   1.438   1_554 S
C913   H1843   1.095   1_554 S
H914   C1029   1.111   .     S
H915   C2073   1.095   .     S
N917   C919    1.454   .     S
N917   H918    1.027   .     S
C919   H921    1.106   .     S
C919   H920    1.110   .     S
C919   H922    1.111   .     S
N923   C925    1.455   .     S
N923   H924    1.025   .     S
C925   H927    1.107   .     S
C925   H230    1.112   1_565 S
C925   H232    1.105   1_565 S
C929   O959    1.302   .     A
C929   O960    1.296   .     A
C929   C945    1.460   .     S
C930   C931    1.399   .     A
C930   C1976   1.429   .     S
C930   C2000   1.415   .     S
C931   C935    1.406   .     A
C931   C938    1.415   .     A
C932   C936    1.413   .     A
C932   C1974   1.429   1_554 S
C932   C1977   1.418   1_554 S
C933   C934    1.409   .     A
C933   C1976   1.418   .     S
C933   C1996   1.413   .     S
C934   N1005   1.420   .     S
C934   C935    1.405   .     A
C935   N1033   1.419   .     S
C936   C1013   1.452   .     S
C936   C953    1.417   .     A
C937   C953    1.412   .     A
C937   N969    1.424   .     S
C937   C952    1.405   .     A
C938   C954    1.419   .     A
C938   C940    1.499   .     S
C939   N1039   1.443   .     S
C939   C945    1.408   .     A
C939   C245    1.391   1_565 S
C940   O962    1.302   .     A
C940   O961    1.311   .     A
C941   C942    1.417   .     A
C941   C975    1.443   .     S
C942   C950    1.478   .     S
C942   C943    1.424   .     A
C943   N977    1.438   .     S
C944   C945    1.400   .     A
C944   N983    1.427   .     S
C944   C247    1.402   1_565 S
C946   N989    1.419   .     S
C946   N958    1.359   .     A
C946   C715    1.426   1_655 S
C947   N995    1.411   .     S
C947   N957    1.374   .     A
C948   N957    1.367   .     A
C948   C1001   1.440   .     S
C949   N958    1.372   .     A
C949   C1003   1.443   .     S
C949   C716    1.431   1_655 S
C950   O963    1.304   .     A
C950   O964    1.302   .     A
C951   O966    1.311   .     A
C951   O965    1.302   .     A
C951   C953    1.493   .     S
C952   C1977   1.413   1_554 S
C952   C2055   1.450   1_554 S
C954   C955    1.411   .     A
C954   N1015   1.429   .     S
C955   N1027   1.429   .     S
C955   C2000   1.416   .     S
C956   N1021   1.416   .     S
C956   C1974   1.415   1_554 S
C956   C1999   1.416   1_554 S
N957   Zn967   2.024   .     S
N958   Zn968   2.024   .     S
O959   Zn967   2.014   .     S
O960   Zn968   2.029   .     S
O961   Zn967   2.052   .     S
O962   Zn968   2.058   .     S
O963   Zn967   2.029   .     S
O964   Zn968   2.014   .     S
O965   Zn967   2.058   .     S
O966   Zn968   2.052   .     S
N969   H970    1.030   .     S
N969   C971    1.441   .     S
C971   H973    1.106   .     S
C971   H972    1.111   .     S
C971   H974    1.111   .     S
C975   N976    1.156   .     T
N977   C979    1.448   .     S
N977   H978    1.022   .     S
C979   H982    1.112   .     S
H980   C283    1.103   1_565 S
H981   C283    1.105   1_565 S
N983   H984    1.026   .     S
N983   C985    1.444   .     S
C985   H987    1.110   .     S
C985   H988    1.111   .     S
C985   H290    1.106   1_565 S
N989   C991    1.442   .     S
N989   H990    1.021   .     S
C991   H993    1.110   .     S
C991   H992    1.107   .     S
C991   H762    1.111   1_655 S
N995   H996    1.029   .     S
N995   C997    1.434   .     S
C997   H999    1.107   .     S
C997   H1000   1.103   .     S
C997   H998    1.106   .     S
C1001  N1002   1.156   .     T
C1003  N1004   1.158   .     T
N1005  C1007   1.436   .     S
N1005  H1006   1.031   .     S
C1007  H1010   1.107   .     S
C1007  H1008   1.109   .     S
C1007  H777    1.103   1_655 S
C1011  C1996   1.450   .     S
C1011  N780    1.158   1_655 S
C1013  N1014   1.158   .     T
N1015  H1016   1.025   .     S
N1015  C1017   1.455   .     S
C1017  H1019   1.110   .     S
C1017  H1020   1.104   .     S
C1017  H1018   1.108   .     S
N1021  H1022   1.025   .     S
N1021  C1023   1.453   .     S
C1023  H1024   1.110   .     S
C1023  H1026   1.106   .     S
C1023  H1025   1.111   .     S
N1027  H2072   1.030   .     S
N1027  C2073   1.438   .     S
H1028  N2071   1.030   1_554 S
C1029  H1032   1.105   .     S
C1029  N2071   1.438   1_554 S
C1029  H1959   1.095   1_554 S
H1030  C797    1.111   1_655 S
H1031  C1841   1.095   1_655 S
N1033  C1035   1.454   .     S
N1033  H1034   1.027   .     S
C1035  H1037   1.106   .     S
C1035  H1036   1.110   .     S
C1035  H1038   1.111   .     S
N1039  C1041   1.455   .     S
N1039  H1040   1.025   .     S
C1041  H1043   1.107   .     S
C1041  H346    1.112   1_565 S
C1041  H348    1.105   1_565 S
C1045  O1075   1.302   .     A
C1045  O1076   1.296   .     A
C1045  C1061   1.460   .     S
C1046  C1047   1.399   .     A
C1046  C4      1.429   1_556 S
C1046  C28     1.415   1_556 S
C1047  C1051   1.406   .     A
C1047  C1054   1.415   .     A
C1048  C1052   1.413   .     A
C1049  C1050   1.409   .     A
C1049  C4      1.418   1_556 S
C1049  C24     1.413   1_556 S
C1050  N1121   1.420   .     S
C1050  C1051   1.405   .     A
C1051  N1149   1.419   .     S
C1052  C1129   1.452   .     S
C1052  C1069   1.417   .     A
C1053  C1069   1.412   .     A
C1053  N1085   1.424   .     S
C1053  C1068   1.405   .     A
C1054  C1070   1.419   .     A
C1054  C1056   1.499   .     S
C1055  N1155   1.443   .     S
C1055  C1061   1.408   .     A
C1055  C1405   1.391   .     S
C1056  O1078   1.302   .     A
C1056  O1077   1.311   .     A
C1057  C1058   1.417   .     A
C1057  C1091   1.443   .     S
C1057  C1751   1.391   1_545 S
C1058  C1066   1.478   .     S
C1058  C1059   1.424   .     A
C1059  N1093   1.438   .     S
C1059  C1756   1.402   1_545 S
C1060  C1061   1.400   .     A
C1060  N1099   1.427   .     S
C1060  C1407   1.402   .     S
C1062  N1105   1.419   .     S
C1062  N1074   1.359   .     A
C1062  C1179   1.426   .     S
C1063  N1111   1.411   .     S
C1063  N1073   1.374   .     A
C1063  C1294   1.426   1_455 S
C1064  N1073   1.367   .     A
C1064  C1117   1.440   .     S
C1064  C1297   1.431   1_455 S
C1065  N1074   1.372   .     A
C1065  C1119   1.443   .     S
C1065  C1180   1.431   .     S
C1066  O1079   1.304   .     A
C1066  O1080   1.302   .     A
C1067  O1082   1.311   .     A
C1067  O1081   1.302   .     A
C1067  C1069   1.493   .     S
C1070  C1071   1.411   .     A
C1070  N1131   1.429   .     S
C1071  N1143   1.429   .     S
C1071  C28     1.416   1_556 S
C1072  N1137   1.416   .     S
N1073  Zn1083  2.024   .     S
N1074  Zn1084  2.024   .     S
O1075  Zn1083  2.014   .     S
O1076  Zn1084  2.029   .     S
O1077  Zn1083  2.052   .     S
O1078  Zn1084  2.058   .     S
O1079  Zn1083  2.029   .     S
O1080  Zn1084  2.014   .     S
O1081  Zn1083  2.058   .     S
O1082  Zn1084  2.052   .     S
N1085  H1086   1.030   .     S
N1085  C1087   1.441   .     S
C1087  H1089   1.106   .     S
C1087  H1088   1.111   .     S
C1087  H1090   1.111   .     S
C1091  N1092   1.156   .     T
N1093  C1095   1.448   .     S
N1093  H1094   1.022   .     S
C1095  H1098   1.112   .     S
C1095  H1792   1.103   1_545 S
C1095  H1793   1.105   1_545 S
H1096  C1443   1.103   .     S
H1097  C1443   1.105   .     S
N1099  H1100   1.026   .     S
N1099  C1101   1.444   .     S
C1101  H1103   1.110   .     S
C1101  H1104   1.111   .     S
C1101  H1450   1.106   .     S
H1102  C1797   1.106   1_545 S
N1105  C1107   1.442   .     S
N1105  H1106   1.021   .     S
C1107  H1109   1.110   .     S
C1107  H1108   1.107   .     S
C1107  H1226   1.111   .     S
H1110  C1339   1.111   1_455 S
N1111  H1112   1.029   .     S
N1111  C1113   1.434   .     S
C1113  H1115   1.107   .     S
C1113  H1116   1.103   .     S
C1113  H1114   1.106   .     S
C1117  N1118   1.156   .     T
C1119  N1120   1.158   .     T
N1121  C1123   1.436   .     S
N1121  H1122   1.031   .     S
C1123  H1126   1.107   .     S
C1123  H1124   1.109   .     S
C1123  H1241   1.103   .     S
H1125  C1355   1.103   1_455 S
C1127  C24     1.450   1_556 S
C1127  N1244   1.158   .     S
N1128  C1359   1.158   1_455 S
C1129  N1130   1.158   .     T
N1131  H1132   1.025   .     S
N1131  C1133   1.455   .     S
C1133  H1135   1.110   .     S
C1133  H1136   1.104   .     S
C1133  H1134   1.108   .     S
N1137  H1138   1.025   .     S
N1137  C1139   1.453   .     S
C1139  H1140   1.110   .     S
C1139  H1142   1.106   .     S
C1139  H1141   1.111   .     S
N1143  H100    1.030   1_556 S
N1143  C101    1.438   1_556 S
C1145  H1148   1.105   .     S
C1145  H1378   1.111   1_455 S
C1145  H335    1.095   1_455 S
H1146  C1261   1.111   .     S
H1147  C217    1.095   1_556 S
N1149  C1151   1.454   .     S
N1149  H1150   1.027   .     S
C1151  H1153   1.106   .     S
C1151  H1152   1.110   .     S
C1151  H1154   1.111   .     S
N1155  C1157   1.455   .     S
N1155  H1156   1.025   .     S
C1157  H1159   1.107   .     S
C1157  H1506   1.112   .     S
C1157  H1508   1.105   .     S
H1158  C1853   1.112   1_545 S
H1160  C1853   1.105   1_545 S
C1161  O1191   1.302   .     A
C1161  O1192   1.296   .     A
C1161  C1177   1.460   .     S
C1162  C1163   1.399   .     A
C1162  C120    1.429   1_556 S
C1162  C144    1.415   1_556 S
C1163  C1167   1.406   .     A
C1163  C1170   1.415   .     A
C1164  C1168   1.413   .     A
C1165  C1166   1.409   .     A
C1165  C120    1.418   1_556 S
C1165  C140    1.413   1_556 S
C1166  N1237   1.420   .     S
C1166  C1167   1.405   .     A
C1167  N1265   1.419   .     S
C1168  C1245   1.452   .     S
C1168  C1185   1.417   .     A
C1169  C1185   1.412   .     A
C1169  N1201   1.424   .     S
C1169  C1184   1.405   .     A
C1170  C1186   1.419   .     A
C1170  C1172   1.499   .     S
C1171  N1271   1.443   .     S
C1171  C1177   1.408   .     A
C1171  C1521   1.391   .     S
C1172  O1194   1.302   .     A
C1172  O1193   1.311   .     A
C1173  C1174   1.417   .     A
C1173  C1207   1.443   .     S
C1173  C1867   1.391   1_545 S
C1174  C1182   1.478   .     S
C1174  C1175   1.424   .     A
C1175  N1209   1.438   .     S
C1175  C1872   1.402   1_545 S
C1176  C1177   1.400   .     A
C1176  N1215   1.427   .     S
C1176  C1523   1.402   .     S
C1178  N1221   1.419   .     S
C1178  N1190   1.359   .     A
C1178  C1295   1.426   .     S
C1179  N1227   1.411   .     S
C1179  N1189   1.374   .     A
C1180  N1189   1.367   .     A
C1180  C1233   1.440   .     S
C1181  N1190   1.372   .     A
C1181  C1235   1.443   .     S
C1181  C1296   1.431   .     S
C1182  O1195   1.304   .     A
C1182  O1196   1.302   .     A
C1183  O1198   1.311   .     A
C1183  O1197   1.302   .     A
C1183  C1185   1.493   .     S
C1186  C1187   1.411   .     A
C1186  N1247   1.429   .     S
C1187  N1259   1.429   .     S
C1187  C144    1.416   1_556 S
C1188  N1253   1.416   .     S
N1189  Zn1199  2.024   .     S
N1190  Zn1200  2.024   .     S
O1191  Zn1199  2.014   .     S
O1192  Zn1200  2.029   .     S
O1193  Zn1199  2.052   .     S
O1194  Zn1200  2.058   .     S
O1195  Zn1199  2.029   .     S
O1196  Zn1200  2.014   .     S
O1197  Zn1199  2.058   .     S
O1198  Zn1200  2.052   .     S
N1201  H1202   1.030   .     S
N1201  C1203   1.441   .     S
C1203  H1205   1.106   .     S
C1203  H1204   1.111   .     S
C1203  H1206   1.111   .     S
C1207  N1208   1.156   .     T
N1209  C1211   1.448   .     S
N1209  H1210   1.022   .     S
C1211  H1214   1.112   .     S
C1211  H1908   1.103   1_545 S
C1211  H1909   1.105   1_545 S
H1212  C1559   1.103   .     S
H1213  C1559   1.105   .     S
N1215  H1216   1.026   .     S
N1215  C1217   1.444   .     S
C1217  H1219   1.110   .     S
C1217  H1220   1.111   .     S
C1217  H1566   1.106   .     S
H1218  C1913   1.106   1_545 S
N1221  C1223   1.442   .     S
N1221  H1222   1.021   .     S
C1223  H1225   1.110   .     S
C1223  H1224   1.107   .     S
C1223  H1342   1.111   .     S
N1227  H1228   1.029   .     S
N1227  C1229   1.434   .     S
C1229  H1231   1.107   .     S
C1229  H1232   1.103   .     S
C1229  H1230   1.106   .     S
C1233  N1234   1.156   .     T
C1235  N1236   1.158   .     T
N1237  C1239   1.436   .     S
N1237  H1238   1.031   .     S
C1239  H1242   1.107   .     S
C1239  H1240   1.109   .     S
C1239  H1357   1.103   .     S
C1243  C140    1.450   1_556 S
C1243  N1360   1.158   .     S
C1245  N1246   1.158   .     T
N1247  H1248   1.025   .     S
N1247  C1249   1.455   .     S
C1249  H1251   1.110   .     S
C1249  H1252   1.104   .     S
C1249  H1250   1.108   .     S
N1253  H1254   1.025   .     S
N1253  C1255   1.453   .     S
C1255  H1256   1.110   .     S
C1255  H1258   1.106   .     S
C1255  H1257   1.111   .     S
N1259  H216    1.030   1_556 S
N1259  C217    1.438   1_556 S
C1261  H1264   1.105   .     S
H1262  C1377   1.111   .     S
H1263  C333    1.095   1_556 S
N1265  C1267   1.454   .     S
N1265  H1266   1.027   .     S
C1267  H1269   1.106   .     S
C1267  H1268   1.110   .     S
C1267  H1270   1.111   .     S
N1271  C1273   1.455   .     S
N1271  H1272   1.025   .     S
C1273  H1275   1.107   .     S
C1273  H1622   1.112   .     S
C1273  H1624   1.105   .     S
H1274  C1969   1.112   1_545 S
H1276  C1969   1.105   1_545 S
C1277  O1307   1.302   .     A
C1277  O1308   1.296   .     A
C1277  C1293   1.460   .     S
C1278  C1279   1.399   .     A
C1278  C236    1.429   1_556 S
C1278  C260    1.415   1_556 S
C1279  C1283   1.406   .     A
C1279  C1286   1.415   .     A
C1280  C1284   1.413   .     A
C1281  C1282   1.409   .     A
C1281  C236    1.418   1_556 S
C1281  C256    1.413   1_556 S
C1282  N1353   1.420   .     S
C1282  C1283   1.405   .     A
C1283  N1381   1.419   .     S
C1284  C1361   1.452   .     S
C1284  C1301   1.417   .     A
C1285  C1301   1.412   .     A
C1285  N1317   1.424   .     S
C1285  C1300   1.405   .     A
C1286  C1302   1.419   .     A
C1286  C1288   1.499   .     S
C1287  N1387   1.443   .     S
C1287  C1293   1.408   .     A
C1287  C1637   1.391   .     S
C1288  O1310   1.302   .     A
C1288  O1309   1.311   .     A
C1289  C1290   1.417   .     A
C1289  C1323   1.443   .     S
C1289  C1983   1.391   1_545 S
C1290  C1298   1.478   .     S
C1290  C1291   1.424   .     A
C1291  N1325   1.438   .     S
C1291  C1988   1.402   1_545 S
C1292  C1293   1.400   .     A
C1292  N1331   1.427   .     S
C1292  C1639   1.402   .     S
C1294  N1337   1.419   .     S
C1294  N1306   1.359   .     A
C1294  C1063   1.426   1_655 S
C1295  N1343   1.411   .     S
C1295  N1305   1.374   .     A
C1296  N1305   1.367   .     A
C1296  C1349   1.440   .     S
C1297  N1306   1.372   .     A
C1297  C1351   1.443   .     S
C1297  C1064   1.431   1_655 S
C1298  O1311   1.304   .     A
C1298  O1312   1.302   .     A
C1299  O1314   1.311   .     A
C1299  O1313   1.302   .     A
C1299  C1301   1.493   .     S
C1302  C1303   1.411   .     A
C1302  N1363   1.429   .     S
C1303  N1375   1.429   .     S
C1303  C260    1.416   1_556 S
C1304  N1369   1.416   .     S
N1305  Zn1315  2.024   .     S
N1306  Zn1316  2.024   .     S
O1307  Zn1315  2.014   .     S
O1308  Zn1316  2.029   .     S
O1309  Zn1315  2.052   .     S
O1310  Zn1316  2.058   .     S
O1311  Zn1315  2.029   .     S
O1312  Zn1316  2.014   .     S
O1313  Zn1315  2.058   .     S
O1314  Zn1316  2.052   .     S
N1317  H1318   1.030   .     S
N1317  C1319   1.441   .     S
C1319  H1321   1.106   .     S
C1319  H1320   1.111   .     S
C1319  H1322   1.111   .     S
C1323  N1324   1.156   .     T
N1325  C1327   1.448   .     S
N1325  H1326   1.022   .     S
C1327  H1330   1.112   .     S
C1327  H2024   1.103   1_545 S
C1327  H2025   1.105   1_545 S
H1328  C1675   1.103   .     S
H1329  C1675   1.105   .     S
N1331  H1332   1.026   .     S
N1331  C1333   1.444   .     S
C1333  H1335   1.110   .     S
C1333  H1336   1.111   .     S
C1333  H1682   1.106   .     S
H1334  C2029   1.106   1_545 S
N1337  C1339   1.442   .     S
N1337  H1338   1.021   .     S
C1339  H1341   1.110   .     S
C1339  H1340   1.107   .     S
C1339  H1110   1.111   1_655 S
N1343  H1344   1.029   .     S
N1343  C1345   1.434   .     S
C1345  H1347   1.107   .     S
C1345  H1348   1.103   .     S
C1345  H1346   1.106   .     S
C1349  N1350   1.156   .     T
C1351  N1352   1.158   .     T
N1353  C1355   1.436   .     S
N1353  H1354   1.031   .     S
C1355  H1358   1.107   .     S
C1355  H1356   1.109   .     S
C1355  H1125   1.103   1_655 S
C1359  C256    1.450   1_556 S
C1359  N1128   1.158   1_655 S
C1361  N1362   1.158   .     T
N1363  H1364   1.025   .     S
N1363  C1365   1.455   .     S
C1365  H1367   1.110   .     S
C1365  H1368   1.104   .     S
C1365  H1366   1.108   .     S
N1369  H1370   1.025   .     S
N1369  C1371   1.453   .     S
C1371  H1372   1.110   .     S
C1371  H1374   1.106   .     S
C1371  H1373   1.111   .     S
N1375  H332    1.030   1_556 S
N1375  C333    1.438   1_556 S
C1377  H1380   1.105   .     S
H1378  C1145   1.111   1_655 S
H1379  C101    1.095   1_656 S
N1381  C1383   1.454   .     S
N1381  H1382   1.027   .     S
C1383  H1385   1.106   .     S
C1383  H1384   1.110   .     S
C1383  H1386   1.111   .     S
N1387  C1389   1.455   .     S
N1387  H1388   1.025   .     S
C1389  H1391   1.107   .     S
C1389  H1738   1.112   .     S
C1389  H1740   1.105   .     S
H1390  C2085   1.112   1_545 S
H1392  C2085   1.105   1_545 S
C1393  O1423   1.302   .     A
C1393  O1424   1.296   .     A
C1393  C1409   1.460   .     S
C1394  C1395   1.399   .     A
C1394  C352    1.429   1_556 S
C1394  C376    1.415   1_556 S
C1395  C1399   1.406   .     A
C1395  C1402   1.415   .     A
C1396  C1400   1.413   .     A
C1397  C1398   1.409   .     A
C1397  C352    1.418   1_556 S
C1397  C372    1.413   1_556 S
C1398  N1469   1.420   .     S
C1398  C1399   1.405   .     A
C1399  N1497   1.419   .     S
C1400  C1477   1.452   .     S
C1400  C1417   1.417   .     A
C1401  C1417   1.412   .     A
C1401  N1433   1.424   .     S
C1401  C1416   1.405   .     A
C1402  C1418   1.419   .     A
C1402  C1404   1.499   .     S
C1403  N1503   1.443   .     S
C1403  C1409   1.408   .     A
C1403  C1753   1.391   .     S
C1404  O1426   1.302   .     A
C1404  O1425   1.311   .     A
C1405  C1406   1.417   .     A
C1405  C1439   1.443   .     S
C1406  C1414   1.478   .     S
C1406  C1407   1.424   .     A
C1407  N1441   1.438   .     S
C1408  C1409   1.400   .     A
C1408  N1447   1.427   .     S
C1408  C1755   1.402   .     S
C1410  N1453   1.419   .     S
C1410  N1422   1.359   .     A
C1410  C1527   1.426   .     S
C1411  N1459   1.411   .     S
C1411  N1421   1.374   .     A
C1411  C1642   1.426   1_455 S
C1412  N1421   1.367   .     A
C1412  C1465   1.440   .     S
C1412  C1645   1.431   1_455 S
C1413  N1422   1.372   .     A
C1413  C1467   1.443   .     S
C1413  C1528   1.431   .     S
C1414  O1427   1.304   .     A
C1414  O1428   1.302   .     A
C1415  O1430   1.311   .     A
C1415  O1429   1.302   .     A
C1415  C1417   1.493   .     S
C1418  C1419   1.411   .     A
C1418  N1479   1.429   .     S
C1419  N1491   1.429   .     S
C1419  C376    1.416   1_556 S
C1420  N1485   1.416   .     S
N1421  Zn1431  2.024   .     S
N1422  Zn1432  2.024   .     S
O1423  Zn1431  2.014   .     S
O1424  Zn1432  2.029   .     S
O1425  Zn1431  2.052   .     S
O1426  Zn1432  2.058   .     S
O1427  Zn1431  2.029   .     S
O1428  Zn1432  2.014   .     S
O1429  Zn1431  2.058   .     S
O1430  Zn1432  2.052   .     S
N1433  H1434   1.030   .     S
N1433  C1435   1.441   .     S
C1435  H1437   1.106   .     S
C1435  H1436   1.111   .     S
C1435  H1438   1.111   .     S
C1439  N1440   1.156   .     T
N1441  C1443   1.448   .     S
N1441  H1442   1.022   .     S
C1443  H1446   1.112   .     S
H1444  C1791   1.103   .     S
H1445  C1791   1.105   .     S
N1447  H1448   1.026   .     S
N1447  C1449   1.444   .     S
C1449  H1451   1.110   .     S
C1449  H1452   1.111   .     S
C1449  H1798   1.106   .     S
N1453  C1455   1.442   .     S
N1453  H1454   1.021   .     S
C1455  H1457   1.110   .     S
C1455  H1456   1.107   .     S
C1455  H1574   1.111   .     S
H1458  C1687   1.111   1_455 S
N1459  H1460   1.029   .     S
N1459  C1461   1.434   .     S
C1461  H1463   1.107   .     S
C1461  H1464   1.103   .     S
C1461  H1462   1.106   .     S
C1465  N1466   1.156   .     T
C1467  N1468   1.158   .     T
N1469  C1471   1.436   .     S
N1469  H1470   1.031   .     S
C1471  H1474   1.107   .     S
C1471  H1472   1.109   .     S
C1471  H1589   1.103   .     S
H1473  C1703   1.103   1_455 S
C1475  C372    1.450   1_556 S
C1475  N1592   1.158   .     S
N1476  C1707   1.158   1_455 S
C1477  N1478   1.158   .     T
N1479  H1480   1.025   .     S
N1479  C1481   1.455   .     S
C1481  H1483   1.110   .     S
C1481  H1484   1.104   .     S
C1481  H1482   1.108   .     S
N1485  H1486   1.025   .     S
N1485  C1487   1.453   .     S
C1487  H1488   1.110   .     S
C1487  H1490   1.106   .     S
C1487  H1489   1.111   .     S
N1491  H448    1.030   1_556 S
N1491  C449    1.438   1_556 S
C1493  H1496   1.105   .     S
C1493  H1726   1.111   1_455 S
C1493  H683    1.095   1_455 S
H1494  C1609   1.111   .     S
H1495  C565    1.095   1_556 S
N1497  C1499   1.454   .     S
N1497  H1498   1.027   .     S
C1499  H1501   1.106   .     S
C1499  H1500   1.110   .     S
C1499  H1502   1.111   .     S
N1503  C1505   1.455   .     S
N1503  H1504   1.025   .     S
C1505  H1507   1.107   .     S
C1505  H1854   1.112   .     S
C1505  H1856   1.105   .     S
C1509  O1539   1.302   .     A
C1509  O1540   1.296   .     A
C1509  C1525   1.460   .     S
C1510  C1511   1.399   .     A
C1510  C468    1.429   1_556 S
C1510  C492    1.415   1_556 S
C1511  C1515   1.406   .     A
C1511  C1518   1.415   .     A
C1512  C1516   1.413   .     A
C1513  C1514   1.409   .     A
C1513  C468    1.418   1_556 S
C1513  C488    1.413   1_556 S
C1514  N1585   1.420   .     S
C1514  C1515   1.405   .     A
C1515  N1613   1.419   .     S
C1516  C1593   1.452   .     S
C1516  C1533   1.417   .     A
C1517  C1533   1.412   .     A
C1517  N1549   1.424   .     S
C1517  C1532   1.405   .     A
C1518  C1534   1.419   .     A
C1518  C1520   1.499   .     S
C1519  N1619   1.443   .     S
C1519  C1525   1.408   .     A
C1519  C1869   1.391   .     S
C1520  O1542   1.302   .     A
C1520  O1541   1.311   .     A
C1521  C1522   1.417   .     A
C1521  C1555   1.443   .     S
C1522  C1530   1.478   .     S
C1522  C1523   1.424   .     A
C1523  N1557   1.438   .     S
C1524  C1525   1.400   .     A
C1524  N1563   1.427   .     S
C1524  C1871   1.402   .     S
C1526  N1569   1.419   .     S
C1526  N1538   1.359   .     A
C1526  C1643   1.426   .     S
C1527  N1575   1.411   .     S
C1527  N1537   1.374   .     A
C1528  N1537   1.367   .     A
C1528  C1581   1.440   .     S
C1529  N1538   1.372   .     A
C1529  C1583   1.443   .     S
C1529  C1644   1.431   .     S
C1530  O1543   1.304   .     A
C1530  O1544   1.302   .     A
C1531  O1546   1.311   .     A
C1531  O1545   1.302   .     A
C1531  C1533   1.493   .     S
C1534  C1535   1.411   .     A
C1534  N1595   1.429   .     S
C1535  N1607   1.429   .     S
C1535  C492    1.416   1_556 S
C1536  N1601   1.416   .     S
N1537  Zn1547  2.024   .     S
N1538  Zn1548  2.024   .     S
O1539  Zn1547  2.014   .     S
O1540  Zn1548  2.029   .     S
O1541  Zn1547  2.052   .     S
O1542  Zn1548  2.058   .     S
O1543  Zn1547  2.029   .     S
O1544  Zn1548  2.014   .     S
O1545  Zn1547  2.058   .     S
O1546  Zn1548  2.052   .     S
N1549  H1550   1.030   .     S
N1549  C1551   1.441   .     S
C1551  H1553   1.106   .     S
C1551  H1552   1.111   .     S
C1551  H1554   1.111   .     S
C1555  N1556   1.156   .     T
N1557  C1559   1.448   .     S
N1557  H1558   1.022   .     S
C1559  H1562   1.112   .     S
H1560  C1907   1.103   .     S
H1561  C1907   1.105   .     S
N1563  H1564   1.026   .     S
N1563  C1565   1.444   .     S
C1565  H1567   1.110   .     S
C1565  H1568   1.111   .     S
C1565  H1914   1.106   .     S
N1569  C1571   1.442   .     S
N1569  H1570   1.021   .     S
C1571  H1573   1.110   .     S
C1571  H1572   1.107   .     S
C1571  H1690   1.111   .     S
N1575  H1576   1.029   .     S
N1575  C1577   1.434   .     S
C1577  H1579   1.107   .     S
C1577  H1580   1.103   .     S
C1577  H1578   1.106   .     S
C1581  N1582   1.156   .     T
C1583  N1584   1.158   .     T
N1585  C1587   1.436   .     S
N1585  H1586   1.031   .     S
C1587  H1590   1.107   .     S
C1587  H1588   1.109   .     S
C1587  H1705   1.103   .     S
C1591  C488    1.450   1_556 S
C1591  N1708   1.158   .     S
C1593  N1594   1.158   .     T
N1595  H1596   1.025   .     S
N1595  C1597   1.455   .     S
C1597  H1599   1.110   .     S
C1597  H1600   1.104   .     S
C1597  H1598   1.108   .     S
N1601  H1602   1.025   .     S
N1601  C1603   1.453   .     S
C1603  H1604   1.110   .     S
C1603  H1606   1.106   .     S
C1603  H1605   1.111   .     S
N1607  H564    1.030   1_556 S
N1607  C565    1.438   1_556 S
C1609  H1612   1.105   .     S
H1610  C1725   1.111   .     S
H1611  C681    1.095   1_556 S
N1613  C1615   1.454   .     S
N1613  H1614   1.027   .     S
C1615  H1617   1.106   .     S
C1615  H1616   1.110   .     S
C1615  H1618   1.111   .     S
N1619  C1621   1.455   .     S
N1619  H1620   1.025   .     S
C1621  H1623   1.107   .     S
C1621  H1970   1.112   .     S
C1621  H1972   1.105   .     S
C1625  O1655   1.302   .     A
C1625  O1656   1.296   .     A
C1625  C1641   1.460   .     S
C1626  C1627   1.399   .     A
C1626  C584    1.429   1_556 S
C1626  C608    1.415   1_556 S
C1627  C1631   1.406   .     A
C1627  C1634   1.415   .     A
C1628  C1632   1.413   .     A
C1629  C1630   1.409   .     A
C1629  C584    1.418   1_556 S
C1629  C604    1.413   1_556 S
C1630  N1701   1.420   .     S
C1630  C1631   1.405   .     A
C1631  N1729   1.419   .     S
C1632  C1709   1.452   .     S
C1632  C1649   1.417   .     A
C1633  C1649   1.412   .     A
C1633  N1665   1.424   .     S
C1633  C1648   1.405   .     A
C1634  C1650   1.419   .     A
C1634  C1636   1.499   .     S
C1635  N1735   1.443   .     S
C1635  C1641   1.408   .     A
C1635  C1985   1.391   .     S
C1636  O1658   1.302   .     A
C1636  O1657   1.311   .     A
C1637  C1638   1.417   .     A
C1637  C1671   1.443   .     S
C1638  C1646   1.478   .     S
C1638  C1639   1.424   .     A
C1639  N1673   1.438   .     S
C1640  C1641   1.400   .     A
C1640  N1679   1.427   .     S
C1640  C1987   1.402   .     S
C1642  N1685   1.419   .     S
C1642  N1654   1.359   .     A
C1642  C1411   1.426   1_655 S
C1643  N1691   1.411   .     S
C1643  N1653   1.374   .     A
C1644  N1653   1.367   .     A
C1644  C1697   1.440   .     S
C1645  N1654   1.372   .     A
C1645  C1699   1.443   .     S
C1645  C1412   1.431   1_655 S
C1646  O1659   1.304   .     A
C1646  O1660   1.302   .     A
C1647  O1662   1.311   .     A
C1647  O1661   1.302   .     A
C1647  C1649   1.493   .     S
C1650  C1651   1.411   .     A
C1650  N1711   1.429   .     S
C1651  N1723   1.429   .     S
C1651  C608    1.416   1_556 S
C1652  N1717   1.416   .     S
N1653  Zn1663  2.024   .     S
N1654  Zn1664  2.024   .     S
O1655  Zn1663  2.014   .     S
O1656  Zn1664  2.029   .     S
O1657  Zn1663  2.052   .     S
O1658  Zn1664  2.058   .     S
O1659  Zn1663  2.029   .     S
O1660  Zn1664  2.014   .     S
O1661  Zn1663  2.058   .     S
O1662  Zn1664  2.052   .     S
N1665  H1666   1.030   .     S
N1665  C1667   1.441   .     S
C1667  H1669   1.106   .     S
C1667  H1668   1.111   .     S
C1667  H1670   1.111   .     S
C1671  N1672   1.156   .     T
N1673  C1675   1.448   .     S
N1673  H1674   1.022   .     S
C1675  H1678   1.112   .     S
H1676  C2023   1.103   .     S
H1677  C2023   1.105   .     S
N1679  H1680   1.026   .     S
N1679  C1681   1.444   .     S
C1681  H1683   1.110   .     S
C1681  H1684   1.111   .     S
C1681  H2030   1.106   .     S
N1685  C1687   1.442   .     S
N1685  H1686   1.021   .     S
C1687  H1689   1.110   .     S
C1687  H1688   1.107   .     S
C1687  H1458   1.111   1_655 S
N1691  H1692   1.029   .     S
N1691  C1693   1.434   .     S
C1693  H1695   1.107   .     S
C1693  H1696   1.103   .     S
C1693  H1694   1.106   .     S
C1697  N1698   1.156   .     T
C1699  N1700   1.158   .     T
N1701  C1703   1.436   .     S
N1701  H1702   1.031   .     S
C1703  H1706   1.107   .     S
C1703  H1704   1.109   .     S
C1703  H1473   1.103   1_655 S
C1707  C604    1.450   1_556 S
C1707  N1476   1.158   1_655 S
C1709  N1710   1.158   .     T
N1711  H1712   1.025   .     S
N1711  C1713   1.455   .     S
C1713  H1715   1.110   .     S
C1713  H1716   1.104   .     S
C1713  H1714   1.108   .     S
N1717  H1718   1.025   .     S
N1717  C1719   1.453   .     S
C1719  H1720   1.110   .     S
C1719  H1722   1.106   .     S
C1719  H1721   1.111   .     S
N1723  H680    1.030   1_556 S
N1723  C681    1.438   1_556 S
C1725  H1728   1.105   .     S
H1726  C1493   1.111   1_655 S
H1727  C449    1.095   1_656 S
N1729  C1731   1.454   .     S
N1729  H1730   1.027   .     S
C1731  H1733   1.106   .     S
C1731  H1732   1.110   .     S
C1731  H1734   1.111   .     S
N1735  C1737   1.455   .     S
N1735  H1736   1.025   .     S
C1737  H1739   1.107   .     S
C1737  H2086   1.112   .     S
C1737  H2088   1.105   .     S
C1741  O1771   1.302   .     A
C1741  O1772   1.296   .     A
C1741  C1757   1.460   .     S
C1742  C1743   1.399   .     A
C1742  C700    1.429   1_556 S
C1742  C724    1.415   1_556 S
C1743  C1747   1.406   .     A
C1743  C1750   1.415   .     A
C1744  C1748   1.413   .     A
C1745  C1746   1.409   .     A
C1745  C700    1.418   1_556 S
C1745  C720    1.413   1_556 S
C1746  N1817   1.420   .     S
C1746  C1747   1.405   .     A
C1747  N1845   1.419   .     S
C1748  C1825   1.452   .     S
C1748  C1765   1.417   .     A
C1749  C1765   1.412   .     A
C1749  N1781   1.424   .     S
C1749  C1764   1.405   .     A
C1750  C1766   1.419   .     A
C1750  C1752   1.499   .     S
C1751  N1851   1.443   .     S
C1751  C1757   1.408   .     A
C1751  C1057   1.391   1_565 S
C1752  O1774   1.302   .     A
C1752  O1773   1.311   .     A
C1753  C1754   1.417   .     A
C1753  C1787   1.443   .     S
C1754  C1762   1.478   .     S
C1754  C1755   1.424   .     A
C1755  N1789   1.438   .     S
C1756  C1757   1.400   .     A
C1756  N1795   1.427   .     S
C1756  C1059   1.402   1_565 S
C1758  N1801   1.419   .     S
C1758  N1770   1.359   .     A
C1758  C1875   1.426   .     S
C1759  N1807   1.411   .     S
C1759  N1769   1.374   .     A
C1759  C1990   1.426   1_455 S
C1760  N1769   1.367   .     A
C1760  C1813   1.440   .     S
C1760  C1993   1.431   1_455 S
C1761  N1770   1.372   .     A
C1761  C1815   1.443   .     S
C1761  C1876   1.431   .     S
C1762  O1775   1.304   .     A
C1762  O1776   1.302   .     A
C1763  O1778   1.311   .     A
C1763  O1777   1.302   .     A
C1763  C1765   1.493   .     S
C1766  C1767   1.411   .     A
C1766  N1827   1.429   .     S
C1767  N1839   1.429   .     S
C1767  C724    1.416   1_556 S
C1768  N1833   1.416   .     S
N1769  Zn1779  2.024   .     S
N1770  Zn1780  2.024   .     S
O1771  Zn1779  2.014   .     S
O1772  Zn1780  2.029   .     S
O1773  Zn1779  2.052   .     S
O1774  Zn1780  2.058   .     S
O1775  Zn1779  2.029   .     S
O1776  Zn1780  2.014   .     S
O1777  Zn1779  2.058   .     S
O1778  Zn1780  2.052   .     S
N1781  H1782   1.030   .     S
N1781  C1783   1.441   .     S
C1783  H1785   1.106   .     S
C1783  H1784   1.111   .     S
C1783  H1786   1.111   .     S
C1787  N1788   1.156   .     T
N1789  C1791   1.448   .     S
N1789  H1790   1.022   .     S
C1791  H1794   1.112   .     S
H1792  C1095   1.103   1_565 S
H1793  C1095   1.105   1_565 S
N1795  H1796   1.026   .     S
N1795  C1797   1.444   .     S
C1797  H1799   1.110   .     S
C1797  H1800   1.111   .     S
C1797  H1102   1.106   1_565 S
N1801  C1803   1.442   .     S
N1801  H1802   1.021   .     S
C1803  H1805   1.110   .     S
C1803  H1804   1.107   .     S
C1803  H1922   1.111   .     S
H1806  C2035   1.111   1_455 S
N1807  H1808   1.029   .     S
N1807  C1809   1.434   .     S
C1809  H1811   1.107   .     S
C1809  H1812   1.103   .     S
C1809  H1810   1.106   .     S
C1813  N1814   1.156   .     T
C1815  N1816   1.158   .     T
N1817  C1819   1.436   .     S
N1817  H1818   1.031   .     S
C1819  H1822   1.107   .     S
C1819  H1820   1.109   .     S
C1819  H1937   1.103   .     S
H1821  C2051   1.103   1_455 S
C1823  C720    1.450   1_556 S
C1823  N1940   1.158   .     S
N1824  C2055   1.158   1_455 S
C1825  N1826   1.158   .     T
N1827  H1828   1.025   .     S
N1827  C1829   1.455   .     S
C1829  H1831   1.110   .     S
C1829  H1832   1.104   .     S
C1829  H1830   1.108   .     S
N1833  H1834   1.025   .     S
N1833  C1835   1.453   .     S
C1835  H1836   1.110   .     S
C1835  H1838   1.106   .     S
C1835  H1837   1.111   .     S
N1839  H796    1.030   1_556 S
N1839  C797    1.438   1_556 S
C1841  H1844   1.105   .     S
C1841  H2074   1.111   1_455 S
C1841  H1031   1.095   1_455 S
H1842  C1957   1.111   .     S
H1843  C913    1.095   1_556 S
N1845  C1847   1.454   .     S
N1845  H1846   1.027   .     S
C1847  H1849   1.106   .     S
C1847  H1848   1.110   .     S
C1847  H1850   1.111   .     S
N1851  C1853   1.455   .     S
N1851  H1852   1.025   .     S
C1853  H1855   1.107   .     S
C1853  H1158   1.112   1_565 S
C1853  H1160   1.105   1_565 S
C1857  O1887   1.302   .     A
C1857  O1888   1.296   .     A
C1857  C1873   1.460   .     S
C1858  C1859   1.399   .     A
C1858  C816    1.429   1_556 S
C1858  C840    1.415   1_556 S
C1859  C1863   1.406   .     A
C1859  C1866   1.415   .     A
C1860  C1864   1.413   .     A
C1861  C1862   1.409   .     A
C1861  C816    1.418   1_556 S
C1861  C836    1.413   1_556 S
C1862  N1933   1.420   .     S
C1862  C1863   1.405   .     A
C1863  N1961   1.419   .     S
C1864  C1941   1.452   .     S
C1864  C1881   1.417   .     A
C1865  C1881   1.412   .     A
C1865  N1897   1.424   .     S
C1865  C1880   1.405   .     A
C1866  C1882   1.419   .     A
C1866  C1868   1.499   .     S
C1867  N1967   1.443   .     S
C1867  C1873   1.408   .     A
C1867  C1173   1.391   1_565 S
C1868  O1890   1.302   .     A
C1868  O1889   1.311   .     A
C1869  C1870   1.417   .     A
C1869  C1903   1.443   .     S
C1870  C1878   1.478   .     S
C1870  C1871   1.424   .     A
C1871  N1905   1.438   .     S
C1872  C1873   1.400   .     A
C1872  N1911   1.427   .     S
C1872  C1175   1.402   1_565 S
C1874  N1917   1.419   .     S
C1874  N1886   1.359   .     A
C1874  C1991   1.426   .     S
C1875  N1923   1.411   .     S
C1875  N1885   1.374   .     A
C1876  N1885   1.367   .     A
C1876  C1929   1.440   .     S
C1877  N1886   1.372   .     A
C1877  C1931   1.443   .     S
C1877  C1992   1.431   .     S
C1878  O1891   1.304   .     A
C1878  O1892   1.302   .     A
C1879  O1894   1.311   .     A
C1879  O1893   1.302   .     A
C1879  C1881   1.493   .     S
C1882  C1883   1.411   .     A
C1882  N1943   1.429   .     S
C1883  N1955   1.429   .     S
C1883  C840    1.416   1_556 S
C1884  N1949   1.416   .     S
N1885  Zn1895  2.024   .     S
N1886  Zn1896  2.024   .     S
O1887  Zn1895  2.014   .     S
O1888  Zn1896  2.029   .     S
O1889  Zn1895  2.052   .     S
O1890  Zn1896  2.058   .     S
O1891  Zn1895  2.029   .     S
O1892  Zn1896  2.014   .     S
O1893  Zn1895  2.058   .     S
O1894  Zn1896  2.052   .     S
N1897  H1898   1.030   .     S
N1897  C1899   1.441   .     S
C1899  H1901   1.106   .     S
C1899  H1900   1.111   .     S
C1899  H1902   1.111   .     S
C1903  N1904   1.156   .     T
N1905  C1907   1.448   .     S
N1905  H1906   1.022   .     S
C1907  H1910   1.112   .     S
H1908  C1211   1.103   1_565 S
H1909  C1211   1.105   1_565 S
N1911  H1912   1.026   .     S
N1911  C1913   1.444   .     S
C1913  H1915   1.110   .     S
C1913  H1916   1.111   .     S
C1913  H1218   1.106   1_565 S
N1917  C1919   1.442   .     S
N1917  H1918   1.021   .     S
C1919  H1921   1.110   .     S
C1919  H1920   1.107   .     S
C1919  H2038   1.111   .     S
N1923  H1924   1.029   .     S
N1923  C1925   1.434   .     S
C1925  H1927   1.107   .     S
C1925  H1928   1.103   .     S
C1925  H1926   1.106   .     S
C1929  N1930   1.156   .     T
C1931  N1932   1.158   .     T
N1933  C1935   1.436   .     S
N1933  H1934   1.031   .     S
C1935  H1938   1.107   .     S
C1935  H1936   1.109   .     S
C1935  H2053   1.103   .     S
C1939  C836    1.450   1_556 S
C1939  N2056   1.158   .     S
C1941  N1942   1.158   .     T
N1943  H1944   1.025   .     S
N1943  C1945   1.455   .     S
C1945  H1947   1.110   .     S
C1945  H1948   1.104   .     S
C1945  H1946   1.108   .     S
N1949  H1950   1.025   .     S
N1949  C1951   1.453   .     S
C1951  H1952   1.110   .     S
C1951  H1954   1.106   .     S
C1951  H1953   1.111   .     S
N1955  H912    1.030   1_556 S
N1955  C913    1.438   1_556 S
C1957  H1960   1.105   .     S
H1958  C2073   1.111   .     S
H1959  C1029   1.095   1_556 S
N1961  C1963   1.454   .     S
N1961  H1962   1.027   .     S
C1963  H1965   1.106   .     S
C1963  H1964   1.110   .     S
C1963  H1966   1.111   .     S
N1967  C1969   1.455   .     S
N1967  H1968   1.025   .     S
C1969  H1971   1.107   .     S
C1969  H1274   1.112   1_565 S
C1969  H1276   1.105   1_565 S
C1973  O2003   1.302   .     A
C1973  O2004   1.296   .     A
C1973  C1989   1.460   .     S
C1974  C1975   1.399   .     A
C1974  C932    1.429   1_556 S
C1974  C956    1.415   1_556 S
C1975  C1979   1.406   .     A
C1975  C1982   1.415   .     A
C1976  C1980   1.413   .     A
C1977  C1978   1.409   .     A
C1977  C932    1.418   1_556 S
C1977  C952    1.413   1_556 S
C1978  N2049   1.420   .     S
C1978  C1979   1.405   .     A
C1979  N2077   1.419   .     S
C1980  C2057   1.452   .     S
C1980  C1997   1.417   .     A
C1981  C1997   1.412   .     A
C1981  N2013   1.424   .     S
C1981  C1996   1.405   .     A
C1982  C1998   1.419   .     A
C1982  C1984   1.499   .     S
C1983  N2083   1.443   .     S
C1983  C1989   1.408   .     A
C1983  C1289   1.391   1_565 S
C1984  O2006   1.302   .     A
C1984  O2005   1.311   .     A
C1985  C1986   1.417   .     A
C1985  C2019   1.443   .     S
C1986  C1994   1.478   .     S
C1986  C1987   1.424   .     A
C1987  N2021   1.438   .     S
C1988  C1989   1.400   .     A
C1988  N2027   1.427   .     S
C1988  C1291   1.402   1_565 S
C1990  N2033   1.419   .     S
C1990  N2002   1.359   .     A
C1990  C1759   1.426   1_655 S
C1991  N2039   1.411   .     S
C1991  N2001   1.374   .     A
C1992  N2001   1.367   .     A
C1992  C2045   1.440   .     S
C1993  N2002   1.372   .     A
C1993  C2047   1.443   .     S
C1993  C1760   1.431   1_655 S
C1994  O2007   1.304   .     A
C1994  O2008   1.302   .     A
C1995  O2010   1.311   .     A
C1995  O2009   1.302   .     A
C1995  C1997   1.493   .     S
C1998  C1999   1.411   .     A
C1998  N2059   1.429   .     S
C1999  N2071   1.429   .     S
C1999  C956    1.416   1_556 S
C2000  N2065   1.416   .     S
N2001  Zn2011  2.024   .     S
N2002  Zn2012  2.024   .     S
O2003  Zn2011  2.014   .     S
O2004  Zn2012  2.029   .     S
O2005  Zn2011  2.052   .     S
O2006  Zn2012  2.058   .     S
O2007  Zn2011  2.029   .     S
O2008  Zn2012  2.014   .     S
O2009  Zn2011  2.058   .     S
O2010  Zn2012  2.052   .     S
N2013  H2014   1.030   .     S
N2013  C2015   1.441   .     S
C2015  H2017   1.106   .     S
C2015  H2016   1.111   .     S
C2015  H2018   1.111   .     S
C2019  N2020   1.156   .     T
N2021  C2023   1.448   .     S
N2021  H2022   1.022   .     S
C2023  H2026   1.112   .     S
H2024  C1327   1.103   1_565 S
H2025  C1327   1.105   1_565 S
N2027  H2028   1.026   .     S
N2027  C2029   1.444   .     S
C2029  H2031   1.110   .     S
C2029  H2032   1.111   .     S
C2029  H1334   1.106   1_565 S
N2033  C2035   1.442   .     S
N2033  H2034   1.021   .     S
C2035  H2037   1.110   .     S
C2035  H2036   1.107   .     S
C2035  H1806   1.111   1_655 S
N2039  H2040   1.029   .     S
N2039  C2041   1.434   .     S
C2041  H2043   1.107   .     S
C2041  H2044   1.103   .     S
C2041  H2042   1.106   .     S
C2045  N2046   1.156   .     T
C2047  N2048   1.158   .     T
N2049  C2051   1.436   .     S
N2049  H2050   1.031   .     S
C2051  H2054   1.107   .     S
C2051  H2052   1.109   .     S
C2051  H1821   1.103   1_655 S
C2055  C952    1.450   1_556 S
C2055  N1824   1.158   1_655 S
C2057  N2058   1.158   .     T
N2059  H2060   1.025   .     S
N2059  C2061   1.455   .     S
C2061  H2063   1.110   .     S
C2061  H2064   1.104   .     S
C2061  H2062   1.108   .     S
N2065  H2066   1.025   .     S
N2065  C2067   1.453   .     S
C2067  H2068   1.110   .     S
C2067  H2070   1.106   .     S
C2067  H2069   1.111   .     S
N2071  H1028   1.030   1_556 S
N2071  C1029   1.438   1_556 S
C2073  H2076   1.105   .     S
H2074  C1841   1.111   1_655 S
H2075  C797    1.095   1_656 S
N2077  C2079   1.454   .     S
N2077  H2078   1.027   .     S
C2079  H2081   1.106   .     S
C2079  H2080   1.110   .     S
C2079  H2082   1.111   .     S
N2083  C2085   1.455   .     S
N2083  H2084   1.025   .     S
C2085  H2087   1.107   .     S
C2085  H1390   1.112   1_565 S
C2085  H1392   1.105   1_565 S
