data_str_m3_o10_o17_pcu_sym.183
_audit_creation_date              2020-01-03
_audit_creation_method            'Materials Studio'
_symmetry_space_group_name_H-M    'P1'
_symmetry_Int_Tables_number       1
_symmetry_cell_setting            triclinic
loop_
_symmetry_equiv_pos_as_xyz
  x,y,z
_cell_length_a                    23.2646
_cell_length_b                    25.8789
_cell_length_c                    29.9026
_cell_angle_alpha                 91.3530
_cell_angle_beta                  85.5496
_cell_angle_gamma                 93.5131
loop_
_atom_site_label
_atom_site_type_symbol
_atom_site_fract_x
_atom_site_fract_y
_atom_site_fract_z
_atom_site_U_iso_or_equiv
_atom_site_adp_type
_atom_site_occupancy
C1     C     0.18173   0.26481   0.24951   0.00000  Uiso   1.00
C2     C     0.15160   0.06852   0.25049   0.00000  Uiso   1.00
C3     C     0.26810   0.19843   0.47153   0.00000  Uiso   1.00
C4     C     0.06523   0.13490   0.02847   0.00000  Uiso   1.00
C5     C     0.18856   0.31915   0.25541   0.00000  Uiso   1.00
C6     C     0.14477   0.01418   0.24459   0.00000  Uiso   1.00
C7     C     0.16714   0.16625   0.33659   0.00000  Uiso   1.00
C8     C     0.16619   0.16708   0.16341   0.00000  Uiso   1.00
C9     C     0.11502   0.15267   0.09550   0.00000  Uiso   1.00
C10    C     0.21832   0.18066   0.40450   0.00000  Uiso   1.00
C11    C     0.16556   0.16824   0.11561   0.00000  Uiso   1.00
C12    C     0.16777   0.16509   0.38439   0.00000  Uiso   1.00
C13    C     0.21623   0.18401   0.09013   0.00000  Uiso   1.00
C14    C     0.11711   0.14932   0.40987   0.00000  Uiso   1.00
C15    C     0.21698   0.18378   0.04388   0.00000  Uiso   1.00
C16    C     0.11636   0.14955   0.45612   0.00000  Uiso   1.00
C17    C     0.16635   0.16721   0.02327   0.00000  Uiso   1.00
C18    C     0.16698   0.16612   0.47673   0.00000  Uiso   1.00
C19    C     0.11514   0.15166   0.04920   0.00000  Uiso   1.00
C20    C     0.21819   0.18167   0.45080   0.00000  Uiso   1.00
C21    C     0.26747   0.19954   0.01803   0.00000  Uiso   1.00
C22    C     0.06586   0.13380   0.48197   0.00000  Uiso   1.00
H23    H     0.07615   0.14030   0.11580   0.00000  Uiso   1.00
H24    H     0.25719   0.19303   0.38420   0.00000  Uiso   1.00
H25    H     0.25500   0.19655   0.10631   0.00000  Uiso   1.00
H26    H     0.07833   0.13679   0.39369   0.00000  Uiso   1.00
H27    H     0.30636   0.21257   0.03375   0.00000  Uiso   1.00
H28    H     0.02697   0.12076   0.46625   0.00000  Uiso   1.00
H29    H     0.30746   0.21062   0.45182   0.00000  Uiso   1.00
H30    H     0.02587   0.12271   0.04818   0.00000  Uiso   1.00
H31    H     0.00481   0.12759   0.21610   0.00000  Uiso   1.00
H32    H     0.32852   0.20574   0.28390   0.00000  Uiso   1.00
N33    N     0.31678   0.15265   0.23783   0.00000  Uiso   1.00
N34    N     0.01656   0.18068   0.26217   0.00000  Uiso   1.00
O35    O     0.12975   0.24619   0.25298   0.00000  Uiso   1.00
O36    O     0.20358   0.08714   0.24702   0.00000  Uiso   1.00
O37    O     0.22613   0.23721   0.24518   0.00000  Uiso   1.00
O38    O     0.10720   0.09613   0.25482   0.00000  Uiso   1.00
O39    O     0.11847   0.17117   0.31998   0.00000  Uiso   1.00
O40    O     0.21486   0.16216   0.18003   0.00000  Uiso   1.00
O41    O     0.21485   0.16219   0.31218   0.00000  Uiso   1.00
O42    O     0.11848   0.17115   0.18783   0.00000  Uiso   1.00
Zn43   Zn    0.10231   0.17266   0.25521   0.00000  Uiso   1.00
Zn44   Zn    0.23102   0.16067   0.24479   0.00000  Uiso   1.00
O45    O     0.23575   0.00766   0.27644   0.00000  Uiso   1.00
H46    H     0.26039   0.31342   0.28489   0.00000  Uiso   1.00
O47    O     0.09758   0.32568   0.22356   0.00000  Uiso   1.00
H48    H     0.07296   0.01992   0.21509   0.00000  Uiso   1.00
C49    C     0.51507   0.26481   0.24951   0.00000  Uiso   1.00
C50    C     0.48493   0.06852   0.25049   0.00000  Uiso   1.00
C51    C     0.60144   0.19843   0.47153   0.00000  Uiso   1.00
C52    C     0.39856   0.13490   0.02847   0.00000  Uiso   1.00
C53    C     0.52189   0.31915   0.25541   0.00000  Uiso   1.00
C54    C     0.47811   0.01418   0.24459   0.00000  Uiso   1.00
C55    C     0.50047   0.16625   0.33659   0.00000  Uiso   1.00
C56    C     0.49953   0.16708   0.16341   0.00000  Uiso   1.00
C57    C     0.44835   0.15267   0.09550   0.00000  Uiso   1.00
C58    C     0.55165   0.18066   0.40450   0.00000  Uiso   1.00
C59    C     0.49890   0.16824   0.11561   0.00000  Uiso   1.00
C60    C     0.50110   0.16509   0.38439   0.00000  Uiso   1.00
C61    C     0.54956   0.18401   0.09013   0.00000  Uiso   1.00
C62    C     0.45044   0.14932   0.40987   0.00000  Uiso   1.00
C63    C     0.55031   0.18378   0.04388   0.00000  Uiso   1.00
C64    C     0.44969   0.14955   0.45612   0.00000  Uiso   1.00
C65    C     0.49969   0.16721   0.02327   0.00000  Uiso   1.00
C66    C     0.50031   0.16612   0.47673   0.00000  Uiso   1.00
C67    C     0.44847   0.15166   0.04920   0.00000  Uiso   1.00
C68    C     0.55153   0.18167   0.45080   0.00000  Uiso   1.00
C69    C     0.60081   0.19954   0.01803   0.00000  Uiso   1.00
C70    C     0.39919   0.13380   0.48197   0.00000  Uiso   1.00
H71    H     0.40948   0.14030   0.11580   0.00000  Uiso   1.00
H72    H     0.59052   0.19303   0.38420   0.00000  Uiso   1.00
H73    H     0.58833   0.19655   0.10631   0.00000  Uiso   1.00
H74    H     0.41167   0.13679   0.39369   0.00000  Uiso   1.00
H75    H     0.63969   0.21257   0.03375   0.00000  Uiso   1.00
H76    H     0.36031   0.12076   0.46625   0.00000  Uiso   1.00
H77    H     0.64080   0.21062   0.45182   0.00000  Uiso   1.00
H78    H     0.35920   0.12271   0.04818   0.00000  Uiso   1.00
H79    H     0.33814   0.12759   0.21610   0.00000  Uiso   1.00
H80    H     0.66186   0.20574   0.28390   0.00000  Uiso   1.00
N81    N     0.65011   0.15265   0.23783   0.00000  Uiso   1.00
N82    N     0.34989   0.18068   0.26217   0.00000  Uiso   1.00
O83    O     0.46308   0.24619   0.25298   0.00000  Uiso   1.00
O84    O     0.53692   0.08714   0.24702   0.00000  Uiso   1.00
O85    O     0.55946   0.23721   0.24518   0.00000  Uiso   1.00
O86    O     0.44054   0.09613   0.25482   0.00000  Uiso   1.00
O87    O     0.45181   0.17117   0.31998   0.00000  Uiso   1.00
O88    O     0.54819   0.16216   0.18003   0.00000  Uiso   1.00
O89    O     0.54819   0.16219   0.31218   0.00000  Uiso   1.00
O90    O     0.45181   0.17115   0.18783   0.00000  Uiso   1.00
Zn91   Zn    0.43565   0.17266   0.25521   0.00000  Uiso   1.00
Zn92   Zn    0.56435   0.16067   0.24479   0.00000  Uiso   1.00
O93    O     0.56909   0.00766   0.27644   0.00000  Uiso   1.00
H94    H     0.59372   0.31342   0.28489   0.00000  Uiso   1.00
O95    O     0.43091   0.32568   0.22356   0.00000  Uiso   1.00
H96    H     0.40629   0.01992   0.21509   0.00000  Uiso   1.00
C97    C     0.84840   0.26481   0.24951   0.00000  Uiso   1.00
C98    C     0.81826   0.06852   0.25049   0.00000  Uiso   1.00
C99    C     0.93477   0.19843   0.47153   0.00000  Uiso   1.00
C100   C     0.73190   0.13490   0.02847   0.00000  Uiso   1.00
C101   C     0.85523   0.31915   0.25541   0.00000  Uiso   1.00
C102   C     0.81144   0.01418   0.24459   0.00000  Uiso   1.00
C103   C     0.83381   0.16625   0.33659   0.00000  Uiso   1.00
C104   C     0.83286   0.16708   0.16341   0.00000  Uiso   1.00
C105   C     0.78168   0.15267   0.09550   0.00000  Uiso   1.00
C106   C     0.88498   0.18066   0.40450   0.00000  Uiso   1.00
C107   C     0.83223   0.16824   0.11561   0.00000  Uiso   1.00
C108   C     0.83444   0.16509   0.38439   0.00000  Uiso   1.00
C109   C     0.88289   0.18401   0.09013   0.00000  Uiso   1.00
C110   C     0.78377   0.14932   0.40987   0.00000  Uiso   1.00
C111   C     0.88364   0.18378   0.04388   0.00000  Uiso   1.00
C112   C     0.78302   0.14955   0.45612   0.00000  Uiso   1.00
C113   C     0.83302   0.16721   0.02327   0.00000  Uiso   1.00
C114   C     0.83365   0.16612   0.47673   0.00000  Uiso   1.00
C115   C     0.78180   0.15166   0.04920   0.00000  Uiso   1.00
C116   C     0.88486   0.18167   0.45080   0.00000  Uiso   1.00
C117   C     0.93414   0.19954   0.01803   0.00000  Uiso   1.00
C118   C     0.73253   0.13380   0.48197   0.00000  Uiso   1.00
H119   H     0.74281   0.14030   0.11580   0.00000  Uiso   1.00
H120   H     0.92385   0.19303   0.38420   0.00000  Uiso   1.00
H121   H     0.92167   0.19655   0.10631   0.00000  Uiso   1.00
H122   H     0.74500   0.13679   0.39369   0.00000  Uiso   1.00
H123   H     0.97302   0.21257   0.03375   0.00000  Uiso   1.00
H124   H     0.69364   0.12076   0.46625   0.00000  Uiso   1.00
H125   H     0.97413   0.21062   0.45182   0.00000  Uiso   1.00
H126   H     0.69253   0.12271   0.04818   0.00000  Uiso   1.00
H127   H     0.67148   0.12759   0.21610   0.00000  Uiso   1.00
H128   H     0.99519   0.20574   0.28390   0.00000  Uiso   1.00
N129   N     0.98344   0.15265   0.23783   0.00000  Uiso   1.00
N130   N     0.68322   0.18068   0.26217   0.00000  Uiso   1.00
O131   O     0.79642   0.24619   0.25298   0.00000  Uiso   1.00
O132   O     0.87025   0.08714   0.24702   0.00000  Uiso   1.00
O133   O     0.89280   0.23721   0.24518   0.00000  Uiso   1.00
O134   O     0.77387   0.09613   0.25482   0.00000  Uiso   1.00
O135   O     0.78514   0.17117   0.31998   0.00000  Uiso   1.00
O136   O     0.88153   0.16216   0.18003   0.00000  Uiso   1.00
O137   O     0.88152   0.16219   0.31218   0.00000  Uiso   1.00
O138   O     0.78515   0.17115   0.18783   0.00000  Uiso   1.00
Zn139  Zn    0.76898   0.17266   0.25521   0.00000  Uiso   1.00
Zn140  Zn    0.89769   0.16067   0.24479   0.00000  Uiso   1.00
O141   O     0.90242   0.00766   0.27644   0.00000  Uiso   1.00
H142   H     0.92706   0.31342   0.28489   0.00000  Uiso   1.00
O143   O     0.76425   0.32568   0.22356   0.00000  Uiso   1.00
H144   H     0.73963   0.01992   0.21509   0.00000  Uiso   1.00
C145   C     0.18173   0.59814   0.24951   0.00000  Uiso   1.00
C146   C     0.15160   0.40186   0.25049   0.00000  Uiso   1.00
C147   C     0.26810   0.53176   0.47153   0.00000  Uiso   1.00
C148   C     0.06523   0.46824   0.02847   0.00000  Uiso   1.00
C149   C     0.18856   0.65248   0.25541   0.00000  Uiso   1.00
C150   C     0.14477   0.34752   0.24459   0.00000  Uiso   1.00
C151   C     0.16714   0.49959   0.33659   0.00000  Uiso   1.00
C152   C     0.16619   0.50041   0.16341   0.00000  Uiso   1.00
C153   C     0.11502   0.48601   0.09550   0.00000  Uiso   1.00
C154   C     0.21832   0.51399   0.40450   0.00000  Uiso   1.00
C155   C     0.16556   0.50157   0.11561   0.00000  Uiso   1.00
C156   C     0.16777   0.49843   0.38439   0.00000  Uiso   1.00
C157   C     0.21623   0.51735   0.09013   0.00000  Uiso   1.00
C158   C     0.11711   0.48265   0.40987   0.00000  Uiso   1.00
C159   C     0.21698   0.51711   0.04388   0.00000  Uiso   1.00
C160   C     0.11636   0.48289   0.45612   0.00000  Uiso   1.00
C161   C     0.16635   0.50055   0.02327   0.00000  Uiso   1.00
C162   C     0.16698   0.49945   0.47673   0.00000  Uiso   1.00
C163   C     0.11514   0.48499   0.04920   0.00000  Uiso   1.00
C164   C     0.21819   0.51501   0.45080   0.00000  Uiso   1.00
C165   C     0.26747   0.53287   0.01803   0.00000  Uiso   1.00
C166   C     0.06586   0.46713   0.48197   0.00000  Uiso   1.00
H167   H     0.07615   0.47363   0.11580   0.00000  Uiso   1.00
H168   H     0.25719   0.52637   0.38420   0.00000  Uiso   1.00
H169   H     0.25500   0.52988   0.10631   0.00000  Uiso   1.00
H170   H     0.07833   0.47012   0.39369   0.00000  Uiso   1.00
H171   H     0.30636   0.54591   0.03375   0.00000  Uiso   1.00
H172   H     0.02697   0.45409   0.46625   0.00000  Uiso   1.00
H173   H     0.30746   0.54395   0.45182   0.00000  Uiso   1.00
H174   H     0.02587   0.45605   0.04818   0.00000  Uiso   1.00
H175   H     0.00481   0.46092   0.21610   0.00000  Uiso   1.00
H176   H     0.32852   0.53908   0.28390   0.00000  Uiso   1.00
N177   N     0.31678   0.48598   0.23783   0.00000  Uiso   1.00
N178   N     0.01656   0.51402   0.26217   0.00000  Uiso   1.00
O179   O     0.12975   0.57952   0.25298   0.00000  Uiso   1.00
O180   O     0.20358   0.42048   0.24702   0.00000  Uiso   1.00
O181   O     0.22613   0.57054   0.24518   0.00000  Uiso   1.00
O182   O     0.10720   0.42946   0.25482   0.00000  Uiso   1.00
O183   O     0.11847   0.50450   0.31998   0.00000  Uiso   1.00
O184   O     0.21486   0.49550   0.18003   0.00000  Uiso   1.00
O185   O     0.21485   0.49552   0.31218   0.00000  Uiso   1.00
O186   O     0.11848   0.50448   0.18783   0.00000  Uiso   1.00
Zn187  Zn    0.10231   0.50600   0.25521   0.00000  Uiso   1.00
Zn188  Zn    0.23102   0.49400   0.24479   0.00000  Uiso   1.00
O189   O     0.23575   0.34099   0.27644   0.00000  Uiso   1.00
H190   H     0.26039   0.64675   0.28489   0.00000  Uiso   1.00
O191   O     0.09758   0.65901   0.22356   0.00000  Uiso   1.00
H192   H     0.07296   0.35325   0.21509   0.00000  Uiso   1.00
C193   C     0.51507   0.59814   0.24951   0.00000  Uiso   1.00
C194   C     0.48493   0.40186   0.25049   0.00000  Uiso   1.00
C195   C     0.60144   0.53176   0.47153   0.00000  Uiso   1.00
C196   C     0.39856   0.46824   0.02847   0.00000  Uiso   1.00
C197   C     0.52189   0.65248   0.25541   0.00000  Uiso   1.00
C198   C     0.47811   0.34752   0.24459   0.00000  Uiso   1.00
C199   C     0.50047   0.49959   0.33659   0.00000  Uiso   1.00
C200   C     0.49953   0.50041   0.16341   0.00000  Uiso   1.00
C201   C     0.44835   0.48601   0.09550   0.00000  Uiso   1.00
C202   C     0.55165   0.51399   0.40450   0.00000  Uiso   1.00
C203   C     0.49890   0.50157   0.11561   0.00000  Uiso   1.00
C204   C     0.50110   0.49843   0.38439   0.00000  Uiso   1.00
C205   C     0.54956   0.51735   0.09013   0.00000  Uiso   1.00
C206   C     0.45044   0.48265   0.40987   0.00000  Uiso   1.00
C207   C     0.55031   0.51711   0.04388   0.00000  Uiso   1.00
C208   C     0.44969   0.48289   0.45612   0.00000  Uiso   1.00
C209   C     0.49969   0.50055   0.02327   0.00000  Uiso   1.00
C210   C     0.50031   0.49945   0.47673   0.00000  Uiso   1.00
C211   C     0.44847   0.48499   0.04920   0.00000  Uiso   1.00
C212   C     0.55153   0.51501   0.45080   0.00000  Uiso   1.00
C213   C     0.60081   0.53287   0.01803   0.00000  Uiso   1.00
C214   C     0.39919   0.46713   0.48197   0.00000  Uiso   1.00
H215   H     0.40948   0.47363   0.11580   0.00000  Uiso   1.00
H216   H     0.59052   0.52637   0.38420   0.00000  Uiso   1.00
H217   H     0.58833   0.52988   0.10631   0.00000  Uiso   1.00
H218   H     0.41167   0.47012   0.39369   0.00000  Uiso   1.00
H219   H     0.63969   0.54591   0.03375   0.00000  Uiso   1.00
H220   H     0.36031   0.45409   0.46625   0.00000  Uiso   1.00
H221   H     0.64080   0.54395   0.45182   0.00000  Uiso   1.00
H222   H     0.35920   0.45605   0.04818   0.00000  Uiso   1.00
H223   H     0.33814   0.46092   0.21610   0.00000  Uiso   1.00
H224   H     0.66186   0.53908   0.28390   0.00000  Uiso   1.00
N225   N     0.65011   0.48598   0.23783   0.00000  Uiso   1.00
N226   N     0.34989   0.51402   0.26217   0.00000  Uiso   1.00
O227   O     0.46308   0.57952   0.25298   0.00000  Uiso   1.00
O228   O     0.53692   0.42048   0.24702   0.00000  Uiso   1.00
O229   O     0.55946   0.57054   0.24518   0.00000  Uiso   1.00
O230   O     0.44054   0.42946   0.25482   0.00000  Uiso   1.00
O231   O     0.45181   0.50450   0.31998   0.00000  Uiso   1.00
O232   O     0.54819   0.49550   0.18003   0.00000  Uiso   1.00
O233   O     0.54819   0.49552   0.31218   0.00000  Uiso   1.00
O234   O     0.45181   0.50448   0.18783   0.00000  Uiso   1.00
Zn235  Zn    0.43565   0.50600   0.25521   0.00000  Uiso   1.00
Zn236  Zn    0.56435   0.49400   0.24479   0.00000  Uiso   1.00
O237   O     0.56909   0.34099   0.27644   0.00000  Uiso   1.00
H238   H     0.59372   0.64675   0.28489   0.00000  Uiso   1.00
O239   O     0.43091   0.65901   0.22356   0.00000  Uiso   1.00
H240   H     0.40629   0.35325   0.21509   0.00000  Uiso   1.00
C241   C     0.84840   0.59814   0.24951   0.00000  Uiso   1.00
C242   C     0.81826   0.40186   0.25049   0.00000  Uiso   1.00
C243   C     0.93477   0.53176   0.47153   0.00000  Uiso   1.00
C244   C     0.73190   0.46824   0.02847   0.00000  Uiso   1.00
C245   C     0.85523   0.65248   0.25541   0.00000  Uiso   1.00
C246   C     0.81144   0.34752   0.24459   0.00000  Uiso   1.00
C247   C     0.83381   0.49959   0.33659   0.00000  Uiso   1.00
C248   C     0.83286   0.50041   0.16341   0.00000  Uiso   1.00
C249   C     0.78168   0.48601   0.09550   0.00000  Uiso   1.00
C250   C     0.88498   0.51399   0.40450   0.00000  Uiso   1.00
C251   C     0.83223   0.50157   0.11561   0.00000  Uiso   1.00
C252   C     0.83444   0.49843   0.38439   0.00000  Uiso   1.00
C253   C     0.88289   0.51735   0.09013   0.00000  Uiso   1.00
C254   C     0.78377   0.48265   0.40987   0.00000  Uiso   1.00
C255   C     0.88364   0.51711   0.04388   0.00000  Uiso   1.00
C256   C     0.78302   0.48289   0.45612   0.00000  Uiso   1.00
C257   C     0.83302   0.50055   0.02327   0.00000  Uiso   1.00
C258   C     0.83365   0.49945   0.47673   0.00000  Uiso   1.00
C259   C     0.78180   0.48499   0.04920   0.00000  Uiso   1.00
C260   C     0.88486   0.51501   0.45080   0.00000  Uiso   1.00
C261   C     0.93414   0.53287   0.01803   0.00000  Uiso   1.00
C262   C     0.73253   0.46713   0.48197   0.00000  Uiso   1.00
H263   H     0.74281   0.47363   0.11580   0.00000  Uiso   1.00
H264   H     0.92385   0.52637   0.38420   0.00000  Uiso   1.00
H265   H     0.92167   0.52988   0.10631   0.00000  Uiso   1.00
H266   H     0.74500   0.47012   0.39369   0.00000  Uiso   1.00
H267   H     0.97302   0.54591   0.03375   0.00000  Uiso   1.00
H268   H     0.69364   0.45409   0.46625   0.00000  Uiso   1.00
H269   H     0.97413   0.54395   0.45182   0.00000  Uiso   1.00
H270   H     0.69253   0.45605   0.04818   0.00000  Uiso   1.00
H271   H     0.67148   0.46092   0.21610   0.00000  Uiso   1.00
H272   H     0.99519   0.53908   0.28390   0.00000  Uiso   1.00
N273   N     0.98344   0.48598   0.23783   0.00000  Uiso   1.00
N274   N     0.68322   0.51402   0.26217   0.00000  Uiso   1.00
O275   O     0.79642   0.57952   0.25298   0.00000  Uiso   1.00
O276   O     0.87025   0.42048   0.24702   0.00000  Uiso   1.00
O277   O     0.89280   0.57054   0.24518   0.00000  Uiso   1.00
O278   O     0.77387   0.42946   0.25482   0.00000  Uiso   1.00
O279   O     0.78514   0.50450   0.31998   0.00000  Uiso   1.00
O280   O     0.88153   0.49550   0.18003   0.00000  Uiso   1.00
O281   O     0.88152   0.49552   0.31218   0.00000  Uiso   1.00
O282   O     0.78515   0.50448   0.18783   0.00000  Uiso   1.00
Zn283  Zn    0.76898   0.50600   0.25521   0.00000  Uiso   1.00
Zn284  Zn    0.89769   0.49400   0.24479   0.00000  Uiso   1.00
O285   O     0.90242   0.34099   0.27644   0.00000  Uiso   1.00
H286   H     0.92706   0.64675   0.28489   0.00000  Uiso   1.00
O287   O     0.76425   0.65901   0.22356   0.00000  Uiso   1.00
H288   H     0.73963   0.35325   0.21509   0.00000  Uiso   1.00
C289   C     0.18173   0.93148   0.24951   0.00000  Uiso   1.00
C290   C     0.15160   0.73519   0.25049   0.00000  Uiso   1.00
C291   C     0.26810   0.86510   0.47153   0.00000  Uiso   1.00
C292   C     0.06523   0.80157   0.02847   0.00000  Uiso   1.00
C293   C     0.18856   0.98582   0.25541   0.00000  Uiso   1.00
C294   C     0.14477   0.68085   0.24459   0.00000  Uiso   1.00
C295   C     0.16714   0.83292   0.33659   0.00000  Uiso   1.00
C296   C     0.16619   0.83375   0.16341   0.00000  Uiso   1.00
C297   C     0.11502   0.81934   0.09550   0.00000  Uiso   1.00
C298   C     0.21832   0.84733   0.40450   0.00000  Uiso   1.00
C299   C     0.16556   0.83490   0.11561   0.00000  Uiso   1.00
C300   C     0.16777   0.83176   0.38439   0.00000  Uiso   1.00
C301   C     0.21623   0.85068   0.09013   0.00000  Uiso   1.00
C302   C     0.11711   0.81599   0.40987   0.00000  Uiso   1.00
C303   C     0.21698   0.85045   0.04388   0.00000  Uiso   1.00
C304   C     0.11636   0.81622   0.45612   0.00000  Uiso   1.00
C305   C     0.16635   0.83388   0.02327   0.00000  Uiso   1.00
C306   C     0.16698   0.83279   0.47673   0.00000  Uiso   1.00
C307   C     0.11514   0.81833   0.04920   0.00000  Uiso   1.00
C308   C     0.21819   0.84834   0.45080   0.00000  Uiso   1.00
C309   C     0.26747   0.86620   0.01803   0.00000  Uiso   1.00
C310   C     0.06586   0.80046   0.48197   0.00000  Uiso   1.00
H311   H     0.07615   0.80697   0.11580   0.00000  Uiso   1.00
H312   H     0.25719   0.85970   0.38420   0.00000  Uiso   1.00
H313   H     0.25500   0.86321   0.10631   0.00000  Uiso   1.00
H314   H     0.07833   0.80345   0.39369   0.00000  Uiso   1.00
H315   H     0.30636   0.87924   0.03375   0.00000  Uiso   1.00
H316   H     0.02697   0.78742   0.46625   0.00000  Uiso   1.00
H317   H     0.30746   0.87729   0.45182   0.00000  Uiso   1.00
H318   H     0.02587   0.78938   0.04818   0.00000  Uiso   1.00
H319   H     0.00481   0.79426   0.21610   0.00000  Uiso   1.00
H320   H     0.32852   0.87241   0.28390   0.00000  Uiso   1.00
N321   N     0.31678   0.81932   0.23783   0.00000  Uiso   1.00
N322   N     0.01656   0.84735   0.26217   0.00000  Uiso   1.00
O323   O     0.12975   0.91286   0.25298   0.00000  Uiso   1.00
O324   O     0.20358   0.75381   0.24702   0.00000  Uiso   1.00
O325   O     0.22613   0.90387   0.24518   0.00000  Uiso   1.00
O326   O     0.10720   0.76279   0.25482   0.00000  Uiso   1.00
O327   O     0.11847   0.83784   0.31998   0.00000  Uiso   1.00
O328   O     0.21486   0.82883   0.18003   0.00000  Uiso   1.00
O329   O     0.21485   0.82885   0.31218   0.00000  Uiso   1.00
O330   O     0.11848   0.83781   0.18783   0.00000  Uiso   1.00
Zn331  Zn    0.10231   0.83933   0.25521   0.00000  Uiso   1.00
Zn332  Zn    0.23102   0.82734   0.24479   0.00000  Uiso   1.00
O333   O     0.23575   0.67432   0.27644   0.00000  Uiso   1.00
H334   H     0.26039   0.98009   0.28489   0.00000  Uiso   1.00
O335   O     0.09758   0.99234   0.22356   0.00000  Uiso   1.00
H336   H     0.07296   0.68658   0.21509   0.00000  Uiso   1.00
C337   C     0.51507   0.93148   0.24951   0.00000  Uiso   1.00
C338   C     0.48493   0.73519   0.25049   0.00000  Uiso   1.00
C339   C     0.60144   0.86510   0.47153   0.00000  Uiso   1.00
C340   C     0.39856   0.80157   0.02847   0.00000  Uiso   1.00
C341   C     0.52189   0.98582   0.25541   0.00000  Uiso   1.00
C342   C     0.47811   0.68085   0.24459   0.00000  Uiso   1.00
C343   C     0.50047   0.83292   0.33659   0.00000  Uiso   1.00
C344   C     0.49953   0.83375   0.16341   0.00000  Uiso   1.00
C345   C     0.44835   0.81934   0.09550   0.00000  Uiso   1.00
C346   C     0.55165   0.84733   0.40450   0.00000  Uiso   1.00
C347   C     0.49890   0.83490   0.11561   0.00000  Uiso   1.00
C348   C     0.50110   0.83176   0.38439   0.00000  Uiso   1.00
C349   C     0.54956   0.85068   0.09013   0.00000  Uiso   1.00
C350   C     0.45044   0.81599   0.40987   0.00000  Uiso   1.00
C351   C     0.55031   0.85045   0.04388   0.00000  Uiso   1.00
C352   C     0.44969   0.81622   0.45612   0.00000  Uiso   1.00
C353   C     0.49969   0.83388   0.02327   0.00000  Uiso   1.00
C354   C     0.50031   0.83279   0.47673   0.00000  Uiso   1.00
C355   C     0.44847   0.81833   0.04920   0.00000  Uiso   1.00
C356   C     0.55153   0.84834   0.45080   0.00000  Uiso   1.00
C357   C     0.60081   0.86620   0.01803   0.00000  Uiso   1.00
C358   C     0.39919   0.80046   0.48197   0.00000  Uiso   1.00
H359   H     0.40948   0.80697   0.11580   0.00000  Uiso   1.00
H360   H     0.59052   0.85970   0.38420   0.00000  Uiso   1.00
H361   H     0.58833   0.86321   0.10631   0.00000  Uiso   1.00
H362   H     0.41167   0.80345   0.39369   0.00000  Uiso   1.00
H363   H     0.63969   0.87924   0.03375   0.00000  Uiso   1.00
H364   H     0.36031   0.78742   0.46625   0.00000  Uiso   1.00
H365   H     0.64080   0.87729   0.45182   0.00000  Uiso   1.00
H366   H     0.35920   0.78938   0.04818   0.00000  Uiso   1.00
H367   H     0.33814   0.79426   0.21610   0.00000  Uiso   1.00
H368   H     0.66186   0.87241   0.28390   0.00000  Uiso   1.00
N369   N     0.65011   0.81932   0.23783   0.00000  Uiso   1.00
N370   N     0.34989   0.84735   0.26217   0.00000  Uiso   1.00
O371   O     0.46308   0.91286   0.25298   0.00000  Uiso   1.00
O372   O     0.53692   0.75381   0.24702   0.00000  Uiso   1.00
O373   O     0.55946   0.90387   0.24518   0.00000  Uiso   1.00
O374   O     0.44054   0.76279   0.25482   0.00000  Uiso   1.00
O375   O     0.45181   0.83784   0.31998   0.00000  Uiso   1.00
O376   O     0.54819   0.82883   0.18003   0.00000  Uiso   1.00
O377   O     0.54819   0.82885   0.31218   0.00000  Uiso   1.00
O378   O     0.45181   0.83781   0.18783   0.00000  Uiso   1.00
Zn379  Zn    0.43565   0.83933   0.25521   0.00000  Uiso   1.00
Zn380  Zn    0.56435   0.82734   0.24479   0.00000  Uiso   1.00
O381   O     0.56909   0.67432   0.27644   0.00000  Uiso   1.00
H382   H     0.59372   0.98009   0.28489   0.00000  Uiso   1.00
O383   O     0.43091   0.99234   0.22356   0.00000  Uiso   1.00
H384   H     0.40629   0.68658   0.21509   0.00000  Uiso   1.00
C385   C     0.84840   0.93148   0.24951   0.00000  Uiso   1.00
C386   C     0.81826   0.73519   0.25049   0.00000  Uiso   1.00
C387   C     0.93477   0.86510   0.47153   0.00000  Uiso   1.00
C388   C     0.73190   0.80157   0.02847   0.00000  Uiso   1.00
C389   C     0.85523   0.98582   0.25541   0.00000  Uiso   1.00
C390   C     0.81144   0.68085   0.24459   0.00000  Uiso   1.00
C391   C     0.83381   0.83292   0.33659   0.00000  Uiso   1.00
C392   C     0.83286   0.83375   0.16341   0.00000  Uiso   1.00
C393   C     0.78168   0.81934   0.09550   0.00000  Uiso   1.00
C394   C     0.88498   0.84733   0.40450   0.00000  Uiso   1.00
C395   C     0.83223   0.83490   0.11561   0.00000  Uiso   1.00
C396   C     0.83444   0.83176   0.38439   0.00000  Uiso   1.00
C397   C     0.88289   0.85068   0.09013   0.00000  Uiso   1.00
C398   C     0.78377   0.81599   0.40987   0.00000  Uiso   1.00
C399   C     0.88364   0.85045   0.04388   0.00000  Uiso   1.00
C400   C     0.78302   0.81622   0.45612   0.00000  Uiso   1.00
C401   C     0.83302   0.83388   0.02327   0.00000  Uiso   1.00
C402   C     0.83365   0.83279   0.47673   0.00000  Uiso   1.00
C403   C     0.78180   0.81833   0.04920   0.00000  Uiso   1.00
C404   C     0.88486   0.84834   0.45080   0.00000  Uiso   1.00
C405   C     0.93414   0.86620   0.01803   0.00000  Uiso   1.00
C406   C     0.73253   0.80046   0.48197   0.00000  Uiso   1.00
H407   H     0.74281   0.80697   0.11580   0.00000  Uiso   1.00
H408   H     0.92385   0.85970   0.38420   0.00000  Uiso   1.00
H409   H     0.92167   0.86321   0.10631   0.00000  Uiso   1.00
H410   H     0.74500   0.80345   0.39369   0.00000  Uiso   1.00
H411   H     0.97302   0.87924   0.03375   0.00000  Uiso   1.00
H412   H     0.69364   0.78742   0.46625   0.00000  Uiso   1.00
H413   H     0.97413   0.87729   0.45182   0.00000  Uiso   1.00
H414   H     0.69253   0.78938   0.04818   0.00000  Uiso   1.00
H415   H     0.67148   0.79426   0.21610   0.00000  Uiso   1.00
H416   H     0.99519   0.87241   0.28390   0.00000  Uiso   1.00
N417   N     0.98344   0.81932   0.23783   0.00000  Uiso   1.00
N418   N     0.68322   0.84735   0.26217   0.00000  Uiso   1.00
O419   O     0.79642   0.91286   0.25298   0.00000  Uiso   1.00
O420   O     0.87025   0.75381   0.24702   0.00000  Uiso   1.00
O421   O     0.89280   0.90387   0.24518   0.00000  Uiso   1.00
O422   O     0.77387   0.76279   0.25482   0.00000  Uiso   1.00
O423   O     0.78514   0.83784   0.31998   0.00000  Uiso   1.00
O424   O     0.88153   0.82883   0.18003   0.00000  Uiso   1.00
O425   O     0.88152   0.82885   0.31218   0.00000  Uiso   1.00
O426   O     0.78515   0.83781   0.18783   0.00000  Uiso   1.00
Zn427  Zn    0.76898   0.83933   0.25521   0.00000  Uiso   1.00
Zn428  Zn    0.89769   0.82734   0.24479   0.00000  Uiso   1.00
O429   O     0.90242   0.67432   0.27644   0.00000  Uiso   1.00
H430   H     0.92706   0.98009   0.28489   0.00000  Uiso   1.00
O431   O     0.76425   0.99234   0.22356   0.00000  Uiso   1.00
H432   H     0.73963   0.68658   0.21509   0.00000  Uiso   1.00
C433   C     0.18173   0.26481   0.74951   0.00000  Uiso   1.00
C434   C     0.15160   0.06852   0.75049   0.00000  Uiso   1.00
C435   C     0.26810   0.19843   0.97153   0.00000  Uiso   1.00
C436   C     0.06523   0.13490   0.52847   0.00000  Uiso   1.00
C437   C     0.18856   0.31915   0.75541   0.00000  Uiso   1.00
C438   C     0.14477   0.01418   0.74459   0.00000  Uiso   1.00
C439   C     0.16714   0.16625   0.83659   0.00000  Uiso   1.00
C440   C     0.16619   0.16708   0.66341   0.00000  Uiso   1.00
C441   C     0.11502   0.15267   0.59550   0.00000  Uiso   1.00
C442   C     0.21832   0.18066   0.90450   0.00000  Uiso   1.00
C443   C     0.16556   0.16824   0.61561   0.00000  Uiso   1.00
C444   C     0.16777   0.16509   0.88439   0.00000  Uiso   1.00
C445   C     0.21623   0.18401   0.59013   0.00000  Uiso   1.00
C446   C     0.11711   0.14932   0.90987   0.00000  Uiso   1.00
C447   C     0.21698   0.18378   0.54388   0.00000  Uiso   1.00
C448   C     0.11636   0.14955   0.95612   0.00000  Uiso   1.00
C449   C     0.16635   0.16721   0.52327   0.00000  Uiso   1.00
C450   C     0.16698   0.16612   0.97673   0.00000  Uiso   1.00
C451   C     0.11514   0.15166   0.54920   0.00000  Uiso   1.00
C452   C     0.21819   0.18167   0.95080   0.00000  Uiso   1.00
C453   C     0.26747   0.19954   0.51803   0.00000  Uiso   1.00
C454   C     0.06586   0.13380   0.98197   0.00000  Uiso   1.00
H455   H     0.07615   0.14030   0.61580   0.00000  Uiso   1.00
H456   H     0.25719   0.19303   0.88420   0.00000  Uiso   1.00
H457   H     0.25500   0.19655   0.60631   0.00000  Uiso   1.00
H458   H     0.07833   0.13679   0.89369   0.00000  Uiso   1.00
H459   H     0.30636   0.21257   0.53375   0.00000  Uiso   1.00
H460   H     0.02697   0.12076   0.96625   0.00000  Uiso   1.00
H461   H     0.30746   0.21062   0.95182   0.00000  Uiso   1.00
H462   H     0.02587   0.12271   0.54818   0.00000  Uiso   1.00
H463   H     0.00481   0.12759   0.71610   0.00000  Uiso   1.00
H464   H     0.32852   0.20574   0.78390   0.00000  Uiso   1.00
N465   N     0.31678   0.15265   0.73783   0.00000  Uiso   1.00
N466   N     0.01656   0.18068   0.76217   0.00000  Uiso   1.00
O467   O     0.12975   0.24619   0.75298   0.00000  Uiso   1.00
O468   O     0.20358   0.08714   0.74702   0.00000  Uiso   1.00
O469   O     0.22613   0.23721   0.74518   0.00000  Uiso   1.00
O470   O     0.10720   0.09613   0.75482   0.00000  Uiso   1.00
O471   O     0.11847   0.17117   0.81998   0.00000  Uiso   1.00
O472   O     0.21486   0.16216   0.68003   0.00000  Uiso   1.00
O473   O     0.21485   0.16219   0.81218   0.00000  Uiso   1.00
O474   O     0.11848   0.17115   0.68783   0.00000  Uiso   1.00
Zn475  Zn    0.10231   0.17266   0.75521   0.00000  Uiso   1.00
Zn476  Zn    0.23102   0.16067   0.74479   0.00000  Uiso   1.00
O477   O     0.23575   0.00766   0.77644   0.00000  Uiso   1.00
H478   H     0.26039   0.31342   0.78489   0.00000  Uiso   1.00
O479   O     0.09758   0.32568   0.72356   0.00000  Uiso   1.00
H480   H     0.07296   0.01992   0.71509   0.00000  Uiso   1.00
C481   C     0.51507   0.26481   0.74951   0.00000  Uiso   1.00
C482   C     0.48493   0.06852   0.75049   0.00000  Uiso   1.00
C483   C     0.60144   0.19843   0.97153   0.00000  Uiso   1.00
C484   C     0.39856   0.13490   0.52847   0.00000  Uiso   1.00
C485   C     0.52189   0.31915   0.75541   0.00000  Uiso   1.00
C486   C     0.47811   0.01418   0.74459   0.00000  Uiso   1.00
C487   C     0.50047   0.16625   0.83659   0.00000  Uiso   1.00
C488   C     0.49953   0.16708   0.66341   0.00000  Uiso   1.00
C489   C     0.44835   0.15267   0.59550   0.00000  Uiso   1.00
C490   C     0.55165   0.18066   0.90450   0.00000  Uiso   1.00
C491   C     0.49890   0.16824   0.61561   0.00000  Uiso   1.00
C492   C     0.50110   0.16509   0.88439   0.00000  Uiso   1.00
C493   C     0.54956   0.18401   0.59013   0.00000  Uiso   1.00
C494   C     0.45044   0.14932   0.90987   0.00000  Uiso   1.00
C495   C     0.55031   0.18378   0.54388   0.00000  Uiso   1.00
C496   C     0.44969   0.14955   0.95612   0.00000  Uiso   1.00
C497   C     0.49969   0.16721   0.52327   0.00000  Uiso   1.00
C498   C     0.50031   0.16612   0.97673   0.00000  Uiso   1.00
C499   C     0.44847   0.15166   0.54920   0.00000  Uiso   1.00
C500   C     0.55153   0.18167   0.95080   0.00000  Uiso   1.00
C501   C     0.60081   0.19954   0.51803   0.00000  Uiso   1.00
C502   C     0.39919   0.13380   0.98197   0.00000  Uiso   1.00
H503   H     0.40948   0.14030   0.61580   0.00000  Uiso   1.00
H504   H     0.59052   0.19303   0.88420   0.00000  Uiso   1.00
H505   H     0.58833   0.19655   0.60631   0.00000  Uiso   1.00
H506   H     0.41167   0.13679   0.89369   0.00000  Uiso   1.00
H507   H     0.63969   0.21257   0.53375   0.00000  Uiso   1.00
H508   H     0.36031   0.12076   0.96625   0.00000  Uiso   1.00
H509   H     0.64080   0.21062   0.95182   0.00000  Uiso   1.00
H510   H     0.35920   0.12271   0.54818   0.00000  Uiso   1.00
H511   H     0.33814   0.12759   0.71610   0.00000  Uiso   1.00
H512   H     0.66186   0.20574   0.78390   0.00000  Uiso   1.00
N513   N     0.65011   0.15265   0.73783   0.00000  Uiso   1.00
N514   N     0.34989   0.18068   0.76217   0.00000  Uiso   1.00
O515   O     0.46308   0.24619   0.75298   0.00000  Uiso   1.00
O516   O     0.53692   0.08714   0.74702   0.00000  Uiso   1.00
O517   O     0.55946   0.23721   0.74518   0.00000  Uiso   1.00
O518   O     0.44054   0.09613   0.75482   0.00000  Uiso   1.00
O519   O     0.45181   0.17117   0.81998   0.00000  Uiso   1.00
O520   O     0.54819   0.16216   0.68003   0.00000  Uiso   1.00
O521   O     0.54819   0.16219   0.81218   0.00000  Uiso   1.00
O522   O     0.45181   0.17115   0.68783   0.00000  Uiso   1.00
Zn523  Zn    0.43565   0.17266   0.75521   0.00000  Uiso   1.00
Zn524  Zn    0.56435   0.16067   0.74479   0.00000  Uiso   1.00
O525   O     0.56909   0.00766   0.77644   0.00000  Uiso   1.00
H526   H     0.59372   0.31342   0.78489   0.00000  Uiso   1.00
O527   O     0.43091   0.32568   0.72356   0.00000  Uiso   1.00
H528   H     0.40629   0.01992   0.71509   0.00000  Uiso   1.00
C529   C     0.84840   0.26481   0.74951   0.00000  Uiso   1.00
C530   C     0.81826   0.06852   0.75049   0.00000  Uiso   1.00
C531   C     0.93477   0.19843   0.97153   0.00000  Uiso   1.00
C532   C     0.73190   0.13490   0.52847   0.00000  Uiso   1.00
C533   C     0.85523   0.31915   0.75541   0.00000  Uiso   1.00
C534   C     0.81144   0.01418   0.74459   0.00000  Uiso   1.00
C535   C     0.83381   0.16625   0.83659   0.00000  Uiso   1.00
C536   C     0.83286   0.16708   0.66341   0.00000  Uiso   1.00
C537   C     0.78168   0.15267   0.59550   0.00000  Uiso   1.00
C538   C     0.88498   0.18066   0.90450   0.00000  Uiso   1.00
C539   C     0.83223   0.16824   0.61561   0.00000  Uiso   1.00
C540   C     0.83444   0.16509   0.88439   0.00000  Uiso   1.00
C541   C     0.88289   0.18401   0.59013   0.00000  Uiso   1.00
C542   C     0.78377   0.14932   0.90987   0.00000  Uiso   1.00
C543   C     0.88364   0.18378   0.54388   0.00000  Uiso   1.00
C544   C     0.78302   0.14955   0.95612   0.00000  Uiso   1.00
C545   C     0.83302   0.16721   0.52327   0.00000  Uiso   1.00
C546   C     0.83365   0.16612   0.97673   0.00000  Uiso   1.00
C547   C     0.78180   0.15166   0.54920   0.00000  Uiso   1.00
C548   C     0.88486   0.18167   0.95080   0.00000  Uiso   1.00
C549   C     0.93414   0.19954   0.51803   0.00000  Uiso   1.00
C550   C     0.73253   0.13380   0.98197   0.00000  Uiso   1.00
H551   H     0.74281   0.14030   0.61580   0.00000  Uiso   1.00
H552   H     0.92385   0.19303   0.88420   0.00000  Uiso   1.00
H553   H     0.92167   0.19655   0.60631   0.00000  Uiso   1.00
H554   H     0.74500   0.13679   0.89369   0.00000  Uiso   1.00
H555   H     0.97302   0.21257   0.53375   0.00000  Uiso   1.00
H556   H     0.69364   0.12076   0.96625   0.00000  Uiso   1.00
H557   H     0.97413   0.21062   0.95182   0.00000  Uiso   1.00
H558   H     0.69253   0.12271   0.54818   0.00000  Uiso   1.00
H559   H     0.67148   0.12759   0.71610   0.00000  Uiso   1.00
H560   H     0.99519   0.20574   0.78390   0.00000  Uiso   1.00
N561   N     0.98344   0.15265   0.73783   0.00000  Uiso   1.00
N562   N     0.68322   0.18068   0.76217   0.00000  Uiso   1.00
O563   O     0.79642   0.24619   0.75298   0.00000  Uiso   1.00
O564   O     0.87025   0.08714   0.74702   0.00000  Uiso   1.00
O565   O     0.89280   0.23721   0.74518   0.00000  Uiso   1.00
O566   O     0.77387   0.09613   0.75482   0.00000  Uiso   1.00
O567   O     0.78514   0.17117   0.81998   0.00000  Uiso   1.00
O568   O     0.88153   0.16216   0.68003   0.00000  Uiso   1.00
O569   O     0.88152   0.16219   0.81218   0.00000  Uiso   1.00
O570   O     0.78515   0.17115   0.68783   0.00000  Uiso   1.00
Zn571  Zn    0.76898   0.17266   0.75521   0.00000  Uiso   1.00
Zn572  Zn    0.89769   0.16067   0.74479   0.00000  Uiso   1.00
O573   O     0.90242   0.00766   0.77644   0.00000  Uiso   1.00
H574   H     0.92706   0.31342   0.78489   0.00000  Uiso   1.00
O575   O     0.76425   0.32568   0.72356   0.00000  Uiso   1.00
H576   H     0.73963   0.01992   0.71509   0.00000  Uiso   1.00
C577   C     0.18173   0.59814   0.74951   0.00000  Uiso   1.00
C578   C     0.15160   0.40186   0.75049   0.00000  Uiso   1.00
C579   C     0.26810   0.53176   0.97153   0.00000  Uiso   1.00
C580   C     0.06523   0.46824   0.52847   0.00000  Uiso   1.00
C581   C     0.18856   0.65248   0.75541   0.00000  Uiso   1.00
C582   C     0.14477   0.34752   0.74459   0.00000  Uiso   1.00
C583   C     0.16714   0.49959   0.83659   0.00000  Uiso   1.00
C584   C     0.16619   0.50041   0.66341   0.00000  Uiso   1.00
C585   C     0.11502   0.48601   0.59550   0.00000  Uiso   1.00
C586   C     0.21832   0.51399   0.90450   0.00000  Uiso   1.00
C587   C     0.16556   0.50157   0.61561   0.00000  Uiso   1.00
C588   C     0.16777   0.49843   0.88439   0.00000  Uiso   1.00
C589   C     0.21623   0.51735   0.59013   0.00000  Uiso   1.00
C590   C     0.11711   0.48265   0.90987   0.00000  Uiso   1.00
C591   C     0.21698   0.51711   0.54388   0.00000  Uiso   1.00
C592   C     0.11636   0.48289   0.95612   0.00000  Uiso   1.00
C593   C     0.16635   0.50055   0.52327   0.00000  Uiso   1.00
C594   C     0.16698   0.49945   0.97673   0.00000  Uiso   1.00
C595   C     0.11514   0.48499   0.54920   0.00000  Uiso   1.00
C596   C     0.21819   0.51501   0.95080   0.00000  Uiso   1.00
C597   C     0.26747   0.53287   0.51803   0.00000  Uiso   1.00
C598   C     0.06586   0.46713   0.98197   0.00000  Uiso   1.00
H599   H     0.07615   0.47363   0.61580   0.00000  Uiso   1.00
H600   H     0.25719   0.52637   0.88420   0.00000  Uiso   1.00
H601   H     0.25500   0.52988   0.60631   0.00000  Uiso   1.00
H602   H     0.07833   0.47012   0.89369   0.00000  Uiso   1.00
H603   H     0.30636   0.54591   0.53375   0.00000  Uiso   1.00
H604   H     0.02697   0.45409   0.96625   0.00000  Uiso   1.00
H605   H     0.30746   0.54395   0.95182   0.00000  Uiso   1.00
H606   H     0.02587   0.45605   0.54818   0.00000  Uiso   1.00
H607   H     0.00481   0.46092   0.71610   0.00000  Uiso   1.00
H608   H     0.32852   0.53908   0.78390   0.00000  Uiso   1.00
N609   N     0.31678   0.48598   0.73783   0.00000  Uiso   1.00
N610   N     0.01656   0.51402   0.76217   0.00000  Uiso   1.00
O611   O     0.12975   0.57952   0.75298   0.00000  Uiso   1.00
O612   O     0.20358   0.42048   0.74702   0.00000  Uiso   1.00
O613   O     0.22613   0.57054   0.74518   0.00000  Uiso   1.00
O614   O     0.10720   0.42946   0.75482   0.00000  Uiso   1.00
O615   O     0.11847   0.50450   0.81998   0.00000  Uiso   1.00
O616   O     0.21486   0.49550   0.68003   0.00000  Uiso   1.00
O617   O     0.21485   0.49552   0.81218   0.00000  Uiso   1.00
O618   O     0.11848   0.50448   0.68783   0.00000  Uiso   1.00
Zn619  Zn    0.10231   0.50600   0.75521   0.00000  Uiso   1.00
Zn620  Zn    0.23102   0.49400   0.74479   0.00000  Uiso   1.00
O621   O     0.23575   0.34099   0.77644   0.00000  Uiso   1.00
H622   H     0.26039   0.64675   0.78489   0.00000  Uiso   1.00
O623   O     0.09758   0.65901   0.72356   0.00000  Uiso   1.00
H624   H     0.07296   0.35325   0.71509   0.00000  Uiso   1.00
C625   C     0.51507   0.59814   0.74951   0.00000  Uiso   1.00
C626   C     0.48493   0.40186   0.75049   0.00000  Uiso   1.00
C627   C     0.60144   0.53176   0.97153   0.00000  Uiso   1.00
C628   C     0.39856   0.46824   0.52847   0.00000  Uiso   1.00
C629   C     0.52189   0.65248   0.75541   0.00000  Uiso   1.00
C630   C     0.47811   0.34752   0.74459   0.00000  Uiso   1.00
C631   C     0.50047   0.49959   0.83659   0.00000  Uiso   1.00
C632   C     0.49953   0.50041   0.66341   0.00000  Uiso   1.00
C633   C     0.44835   0.48601   0.59550   0.00000  Uiso   1.00
C634   C     0.55165   0.51399   0.90450   0.00000  Uiso   1.00
C635   C     0.49890   0.50157   0.61561   0.00000  Uiso   1.00
C636   C     0.50110   0.49843   0.88439   0.00000  Uiso   1.00
C637   C     0.54956   0.51735   0.59013   0.00000  Uiso   1.00
C638   C     0.45044   0.48265   0.90987   0.00000  Uiso   1.00
C639   C     0.55031   0.51711   0.54388   0.00000  Uiso   1.00
C640   C     0.44969   0.48289   0.95612   0.00000  Uiso   1.00
C641   C     0.49969   0.50055   0.52327   0.00000  Uiso   1.00
C642   C     0.50031   0.49945   0.97673   0.00000  Uiso   1.00
C643   C     0.44847   0.48499   0.54920   0.00000  Uiso   1.00
C644   C     0.55153   0.51501   0.95080   0.00000  Uiso   1.00
C645   C     0.60081   0.53287   0.51803   0.00000  Uiso   1.00
C646   C     0.39919   0.46713   0.98197   0.00000  Uiso   1.00
H647   H     0.40948   0.47363   0.61580   0.00000  Uiso   1.00
H648   H     0.59052   0.52637   0.88420   0.00000  Uiso   1.00
H649   H     0.58833   0.52988   0.60631   0.00000  Uiso   1.00
H650   H     0.41167   0.47012   0.89369   0.00000  Uiso   1.00
H651   H     0.63969   0.54591   0.53375   0.00000  Uiso   1.00
H652   H     0.36031   0.45409   0.96625   0.00000  Uiso   1.00
H653   H     0.64080   0.54395   0.95182   0.00000  Uiso   1.00
H654   H     0.35920   0.45605   0.54818   0.00000  Uiso   1.00
H655   H     0.33814   0.46092   0.71610   0.00000  Uiso   1.00
H656   H     0.66186   0.53908   0.78390   0.00000  Uiso   1.00
N657   N     0.65011   0.48598   0.73783   0.00000  Uiso   1.00
N658   N     0.34989   0.51402   0.76217   0.00000  Uiso   1.00
O659   O     0.46308   0.57952   0.75298   0.00000  Uiso   1.00
O660   O     0.53692   0.42048   0.74702   0.00000  Uiso   1.00
O661   O     0.55946   0.57054   0.74518   0.00000  Uiso   1.00
O662   O     0.44054   0.42946   0.75482   0.00000  Uiso   1.00
O663   O     0.45181   0.50450   0.81998   0.00000  Uiso   1.00
O664   O     0.54819   0.49550   0.68003   0.00000  Uiso   1.00
O665   O     0.54819   0.49552   0.81218   0.00000  Uiso   1.00
O666   O     0.45181   0.50448   0.68783   0.00000  Uiso   1.00
Zn667  Zn    0.43565   0.50600   0.75521   0.00000  Uiso   1.00
Zn668  Zn    0.56435   0.49400   0.74479   0.00000  Uiso   1.00
O669   O     0.56909   0.34099   0.77644   0.00000  Uiso   1.00
H670   H     0.59372   0.64675   0.78489   0.00000  Uiso   1.00
O671   O     0.43091   0.65901   0.72356   0.00000  Uiso   1.00
H672   H     0.40629   0.35325   0.71509   0.00000  Uiso   1.00
C673   C     0.84840   0.59814   0.74951   0.00000  Uiso   1.00
C674   C     0.81826   0.40186   0.75049   0.00000  Uiso   1.00
C675   C     0.93477   0.53176   0.97153   0.00000  Uiso   1.00
C676   C     0.73190   0.46824   0.52847   0.00000  Uiso   1.00
C677   C     0.85523   0.65248   0.75541   0.00000  Uiso   1.00
C678   C     0.81144   0.34752   0.74459   0.00000  Uiso   1.00
C679   C     0.83381   0.49959   0.83659   0.00000  Uiso   1.00
C680   C     0.83286   0.50041   0.66341   0.00000  Uiso   1.00
C681   C     0.78168   0.48601   0.59550   0.00000  Uiso   1.00
C682   C     0.88498   0.51399   0.90450   0.00000  Uiso   1.00
C683   C     0.83223   0.50157   0.61561   0.00000  Uiso   1.00
C684   C     0.83444   0.49843   0.88439   0.00000  Uiso   1.00
C685   C     0.88289   0.51735   0.59013   0.00000  Uiso   1.00
C686   C     0.78377   0.48265   0.90987   0.00000  Uiso   1.00
C687   C     0.88364   0.51711   0.54388   0.00000  Uiso   1.00
C688   C     0.78302   0.48289   0.95612   0.00000  Uiso   1.00
C689   C     0.83302   0.50055   0.52327   0.00000  Uiso   1.00
C690   C     0.83365   0.49945   0.97673   0.00000  Uiso   1.00
C691   C     0.78180   0.48499   0.54920   0.00000  Uiso   1.00
C692   C     0.88486   0.51501   0.95080   0.00000  Uiso   1.00
C693   C     0.93414   0.53287   0.51803   0.00000  Uiso   1.00
C694   C     0.73253   0.46713   0.98197   0.00000  Uiso   1.00
H695   H     0.74281   0.47363   0.61580   0.00000  Uiso   1.00
H696   H     0.92385   0.52637   0.88420   0.00000  Uiso   1.00
H697   H     0.92167   0.52988   0.60631   0.00000  Uiso   1.00
H698   H     0.74500   0.47012   0.89369   0.00000  Uiso   1.00
H699   H     0.97302   0.54591   0.53375   0.00000  Uiso   1.00
H700   H     0.69364   0.45409   0.96625   0.00000  Uiso   1.00
H701   H     0.97413   0.54395   0.95182   0.00000  Uiso   1.00
H702   H     0.69253   0.45605   0.54818   0.00000  Uiso   1.00
H703   H     0.67148   0.46092   0.71610   0.00000  Uiso   1.00
H704   H     0.99519   0.53908   0.78390   0.00000  Uiso   1.00
N705   N     0.98344   0.48598   0.73783   0.00000  Uiso   1.00
N706   N     0.68322   0.51402   0.76217   0.00000  Uiso   1.00
O707   O     0.79642   0.57952   0.75298   0.00000  Uiso   1.00
O708   O     0.87025   0.42048   0.74702   0.00000  Uiso   1.00
O709   O     0.89280   0.57054   0.74518   0.00000  Uiso   1.00
O710   O     0.77387   0.42946   0.75482   0.00000  Uiso   1.00
O711   O     0.78514   0.50450   0.81998   0.00000  Uiso   1.00
O712   O     0.88153   0.49550   0.68003   0.00000  Uiso   1.00
O713   O     0.88152   0.49552   0.81218   0.00000  Uiso   1.00
O714   O     0.78515   0.50448   0.68783   0.00000  Uiso   1.00
Zn715  Zn    0.76898   0.50600   0.75521   0.00000  Uiso   1.00
Zn716  Zn    0.89769   0.49400   0.74479   0.00000  Uiso   1.00
O717   O     0.90242   0.34099   0.77644   0.00000  Uiso   1.00
H718   H     0.92706   0.64675   0.78489   0.00000  Uiso   1.00
O719   O     0.76425   0.65901   0.72356   0.00000  Uiso   1.00
H720   H     0.73963   0.35325   0.71509   0.00000  Uiso   1.00
C721   C     0.18173   0.93148   0.74951   0.00000  Uiso   1.00
C722   C     0.15160   0.73519   0.75049   0.00000  Uiso   1.00
C723   C     0.26810   0.86510   0.97153   0.00000  Uiso   1.00
C724   C     0.06523   0.80157   0.52847   0.00000  Uiso   1.00
C725   C     0.18856   0.98582   0.75541   0.00000  Uiso   1.00
C726   C     0.14477   0.68085   0.74459   0.00000  Uiso   1.00
C727   C     0.16714   0.83292   0.83659   0.00000  Uiso   1.00
C728   C     0.16619   0.83375   0.66341   0.00000  Uiso   1.00
C729   C     0.11502   0.81934   0.59550   0.00000  Uiso   1.00
C730   C     0.21832   0.84733   0.90450   0.00000  Uiso   1.00
C731   C     0.16556   0.83490   0.61561   0.00000  Uiso   1.00
C732   C     0.16777   0.83176   0.88439   0.00000  Uiso   1.00
C733   C     0.21623   0.85068   0.59013   0.00000  Uiso   1.00
C734   C     0.11711   0.81599   0.90987   0.00000  Uiso   1.00
C735   C     0.21698   0.85045   0.54388   0.00000  Uiso   1.00
C736   C     0.11636   0.81622   0.95612   0.00000  Uiso   1.00
C737   C     0.16635   0.83388   0.52327   0.00000  Uiso   1.00
C738   C     0.16698   0.83279   0.97673   0.00000  Uiso   1.00
C739   C     0.11514   0.81833   0.54920   0.00000  Uiso   1.00
C740   C     0.21819   0.84834   0.95080   0.00000  Uiso   1.00
C741   C     0.26747   0.86620   0.51803   0.00000  Uiso   1.00
C742   C     0.06586   0.80046   0.98197   0.00000  Uiso   1.00
H743   H     0.07615   0.80697   0.61580   0.00000  Uiso   1.00
H744   H     0.25719   0.85970   0.88420   0.00000  Uiso   1.00
H745   H     0.25500   0.86321   0.60631   0.00000  Uiso   1.00
H746   H     0.07833   0.80345   0.89369   0.00000  Uiso   1.00
H747   H     0.30636   0.87924   0.53375   0.00000  Uiso   1.00
H748   H     0.02697   0.78742   0.96625   0.00000  Uiso   1.00
H749   H     0.30746   0.87729   0.95182   0.00000  Uiso   1.00
H750   H     0.02587   0.78938   0.54818   0.00000  Uiso   1.00
H751   H     0.00481   0.79426   0.71610   0.00000  Uiso   1.00
H752   H     0.32852   0.87241   0.78390   0.00000  Uiso   1.00
N753   N     0.31678   0.81932   0.73783   0.00000  Uiso   1.00
N754   N     0.01656   0.84735   0.76217   0.00000  Uiso   1.00
O755   O     0.12975   0.91286   0.75298   0.00000  Uiso   1.00
O756   O     0.20358   0.75381   0.74702   0.00000  Uiso   1.00
O757   O     0.22613   0.90387   0.74518   0.00000  Uiso   1.00
O758   O     0.10720   0.76279   0.75482   0.00000  Uiso   1.00
O759   O     0.11847   0.83784   0.81998   0.00000  Uiso   1.00
O760   O     0.21486   0.82883   0.68003   0.00000  Uiso   1.00
O761   O     0.21485   0.82885   0.81218   0.00000  Uiso   1.00
O762   O     0.11848   0.83781   0.68783   0.00000  Uiso   1.00
Zn763  Zn    0.10231   0.83933   0.75521   0.00000  Uiso   1.00
Zn764  Zn    0.23102   0.82734   0.74479   0.00000  Uiso   1.00
O765   O     0.23575   0.67432   0.77644   0.00000  Uiso   1.00
H766   H     0.26039   0.98009   0.78489   0.00000  Uiso   1.00
O767   O     0.09758   0.99234   0.72356   0.00000  Uiso   1.00
H768   H     0.07296   0.68658   0.71509   0.00000  Uiso   1.00
C769   C     0.51507   0.93148   0.74951   0.00000  Uiso   1.00
C770   C     0.48493   0.73519   0.75049   0.00000  Uiso   1.00
C771   C     0.60144   0.86510   0.97153   0.00000  Uiso   1.00
C772   C     0.39856   0.80157   0.52847   0.00000  Uiso   1.00
C773   C     0.52189   0.98582   0.75541   0.00000  Uiso   1.00
C774   C     0.47811   0.68085   0.74459   0.00000  Uiso   1.00
C775   C     0.50047   0.83292   0.83659   0.00000  Uiso   1.00
C776   C     0.49953   0.83375   0.66341   0.00000  Uiso   1.00
C777   C     0.44835   0.81934   0.59550   0.00000  Uiso   1.00
C778   C     0.55165   0.84733   0.90450   0.00000  Uiso   1.00
C779   C     0.49890   0.83490   0.61561   0.00000  Uiso   1.00
C780   C     0.50110   0.83176   0.88439   0.00000  Uiso   1.00
C781   C     0.54956   0.85068   0.59013   0.00000  Uiso   1.00
C782   C     0.45044   0.81599   0.90987   0.00000  Uiso   1.00
C783   C     0.55031   0.85045   0.54388   0.00000  Uiso   1.00
C784   C     0.44969   0.81622   0.95612   0.00000  Uiso   1.00
C785   C     0.49969   0.83388   0.52327   0.00000  Uiso   1.00
C786   C     0.50031   0.83279   0.97673   0.00000  Uiso   1.00
C787   C     0.44847   0.81833   0.54920   0.00000  Uiso   1.00
C788   C     0.55153   0.84834   0.95080   0.00000  Uiso   1.00
C789   C     0.60081   0.86620   0.51803   0.00000  Uiso   1.00
C790   C     0.39919   0.80046   0.98197   0.00000  Uiso   1.00
H791   H     0.40948   0.80697   0.61580   0.00000  Uiso   1.00
H792   H     0.59052   0.85970   0.88420   0.00000  Uiso   1.00
H793   H     0.58833   0.86321   0.60631   0.00000  Uiso   1.00
H794   H     0.41167   0.80345   0.89369   0.00000  Uiso   1.00
H795   H     0.63969   0.87924   0.53375   0.00000  Uiso   1.00
H796   H     0.36031   0.78742   0.96625   0.00000  Uiso   1.00
H797   H     0.64080   0.87729   0.95182   0.00000  Uiso   1.00
H798   H     0.35920   0.78938   0.54818   0.00000  Uiso   1.00
H799   H     0.33814   0.79426   0.71610   0.00000  Uiso   1.00
H800   H     0.66186   0.87241   0.78390   0.00000  Uiso   1.00
N801   N     0.65011   0.81932   0.73783   0.00000  Uiso   1.00
N802   N     0.34989   0.84735   0.76217   0.00000  Uiso   1.00
O803   O     0.46308   0.91286   0.75298   0.00000  Uiso   1.00
O804   O     0.53692   0.75381   0.74702   0.00000  Uiso   1.00
O805   O     0.55946   0.90387   0.74518   0.00000  Uiso   1.00
O806   O     0.44054   0.76279   0.75482   0.00000  Uiso   1.00
O807   O     0.45181   0.83784   0.81998   0.00000  Uiso   1.00
O808   O     0.54819   0.82883   0.68003   0.00000  Uiso   1.00
O809   O     0.54819   0.82885   0.81218   0.00000  Uiso   1.00
O810   O     0.45181   0.83781   0.68783   0.00000  Uiso   1.00
Zn811  Zn    0.43565   0.83933   0.75521   0.00000  Uiso   1.00
Zn812  Zn    0.56435   0.82734   0.74479   0.00000  Uiso   1.00
O813   O     0.56909   0.67432   0.77644   0.00000  Uiso   1.00
H814   H     0.59372   0.98009   0.78489   0.00000  Uiso   1.00
O815   O     0.43091   0.99234   0.72356   0.00000  Uiso   1.00
H816   H     0.40629   0.68658   0.71509   0.00000  Uiso   1.00
C817   C     0.84840   0.93148   0.74951   0.00000  Uiso   1.00
C818   C     0.81826   0.73519   0.75049   0.00000  Uiso   1.00
C819   C     0.93477   0.86510   0.97153   0.00000  Uiso   1.00
C820   C     0.73190   0.80157   0.52847   0.00000  Uiso   1.00
C821   C     0.85523   0.98582   0.75541   0.00000  Uiso   1.00
C822   C     0.81144   0.68085   0.74459   0.00000  Uiso   1.00
C823   C     0.83381   0.83292   0.83659   0.00000  Uiso   1.00
C824   C     0.83286   0.83375   0.66341   0.00000  Uiso   1.00
C825   C     0.78168   0.81934   0.59550   0.00000  Uiso   1.00
C826   C     0.88498   0.84733   0.90450   0.00000  Uiso   1.00
C827   C     0.83223   0.83490   0.61561   0.00000  Uiso   1.00
C828   C     0.83444   0.83176   0.88439   0.00000  Uiso   1.00
C829   C     0.88289   0.85068   0.59013   0.00000  Uiso   1.00
C830   C     0.78377   0.81599   0.90987   0.00000  Uiso   1.00
C831   C     0.88364   0.85045   0.54388   0.00000  Uiso   1.00
C832   C     0.78302   0.81622   0.95612   0.00000  Uiso   1.00
C833   C     0.83302   0.83388   0.52327   0.00000  Uiso   1.00
C834   C     0.83365   0.83279   0.97673   0.00000  Uiso   1.00
C835   C     0.78180   0.81833   0.54920   0.00000  Uiso   1.00
C836   C     0.88486   0.84834   0.95080   0.00000  Uiso   1.00
C837   C     0.93414   0.86620   0.51803   0.00000  Uiso   1.00
C838   C     0.73253   0.80046   0.98197   0.00000  Uiso   1.00
H839   H     0.74281   0.80697   0.61580   0.00000  Uiso   1.00
H840   H     0.92385   0.85970   0.88420   0.00000  Uiso   1.00
H841   H     0.92167   0.86321   0.60631   0.00000  Uiso   1.00
H842   H     0.74500   0.80345   0.89369   0.00000  Uiso   1.00
H843   H     0.97302   0.87924   0.53375   0.00000  Uiso   1.00
H844   H     0.69364   0.78742   0.96625   0.00000  Uiso   1.00
H845   H     0.97413   0.87729   0.95182   0.00000  Uiso   1.00
H846   H     0.69253   0.78938   0.54818   0.00000  Uiso   1.00
H847   H     0.67148   0.79426   0.71610   0.00000  Uiso   1.00
H848   H     0.99519   0.87241   0.78390   0.00000  Uiso   1.00
N849   N     0.98344   0.81932   0.73783   0.00000  Uiso   1.00
N850   N     0.68322   0.84735   0.76217   0.00000  Uiso   1.00
O851   O     0.79642   0.91286   0.75298   0.00000  Uiso   1.00
O852   O     0.87025   0.75381   0.74702   0.00000  Uiso   1.00
O853   O     0.89280   0.90387   0.74518   0.00000  Uiso   1.00
O854   O     0.77387   0.76279   0.75482   0.00000  Uiso   1.00
O855   O     0.78514   0.83784   0.81998   0.00000  Uiso   1.00
O856   O     0.88153   0.82883   0.68003   0.00000  Uiso   1.00
O857   O     0.88152   0.82885   0.81218   0.00000  Uiso   1.00
O858   O     0.78515   0.83781   0.68783   0.00000  Uiso   1.00
Zn859  Zn    0.76898   0.83933   0.75521   0.00000  Uiso   1.00
Zn860  Zn    0.89769   0.82734   0.74479   0.00000  Uiso   1.00
O861   O     0.90242   0.67432   0.77644   0.00000  Uiso   1.00
H862   H     0.92706   0.98009   0.78489   0.00000  Uiso   1.00
O863   O     0.76425   0.99234   0.72356   0.00000  Uiso   1.00
H864   H     0.73963   0.68658   0.71509   0.00000  Uiso   1.00
loop_
_geom_bond_atom_site_label_1
_geom_bond_atom_site_label_2
_geom_bond_distance
_geom_bond_site_symmetry_2
_ccdc_geom_bond_type
C1     O37     1.288   .     A
C1     C5      1.414   .     S
C1     O35     1.272   .     A
C2     O38     1.288   .     A
C2     C6      1.414   .     S
C2     O36     1.272   .     A
C3     C20     1.399   .     A
C3     H29     1.084   .     S
C3     C453    1.389   .     S
C4     C19     1.399   .     A
C4     H30     1.084   .     S
C4     C454    1.389   1_554 S
C5     C150    1.355   .     S
C5     O189    1.391   .     S
C6     C293    1.355   1_545 S
C6     O335    1.391   1_545 S
C7     O41     1.289   .     A
C7     C12     1.431   .     S
C7     O39     1.286   .     A
C8     C11     1.431   .     S
C8     O42     1.289   .     A
C8     O40     1.286   .     A
C9     C11     1.395   .     A
C9     H23     1.085   .     S
C9     C19     1.384   .     A
C10    C12     1.395   .     A
C10    H24     1.085   .     S
C10    C20     1.384   .     A
C11    C13     1.397   .     A
C12    C14     1.397   .     A
C13    H25     1.085   .     S
C13    C15     1.381   .     A
C14    H26     1.085   .     S
C14    C16     1.381   .     A
C15    C21     1.400   .     A
C15    C17     1.410   .     A
C16    C22     1.400   .     A
C16    C18     1.410   .     A
C17    C19     1.413   .     A
C17    C450    1.390   1_554 S
C18    C20     1.413   .     A
C18    C449    1.390   .     S
C21    H27     1.084   .     S
C21    C435    1.389   1_554 S
C22    H28     1.084   .     S
C22    C436    1.389   .     S
H31    N129    1.029   1_455 S
H32    N82     1.029   .     S
N33    Zn44    2.013   .     S
N33    H79     1.029   .     S
N33    N82     1.282   .     S
N34    Zn43    2.013   .     S
N34    N129    1.282   1_455 S
N34    H128    1.029   1_455 S
O35    Zn43    1.971   .     S
O36    Zn44    1.971   .     S
O37    Zn44    1.991   .     S
O38    Zn43    1.991   .     S
O39    Zn43    2.003   .     S
O40    Zn44    2.003   .     S
O41    Zn44    2.021   .     S
O42    Zn43    2.021   .     S
O45    C293    1.391   1_545 S
O45    H334    0.991   1_545 S
H46    O189    0.991   .     S
O47    C150    1.391   .     S
O47    H192    0.991   .     S
H48    O335    0.991   1_545 S
C49    O85     1.288   .     A
C49    C53     1.414   .     S
C49    O83     1.272   .     A
C50    O86     1.288   .     A
C50    C54     1.414   .     S
C50    O84     1.272   .     A
C51    C68     1.399   .     A
C51    H77     1.084   .     S
C51    C501    1.389   .     S
C52    C67     1.399   .     A
C52    H78     1.084   .     S
C52    C502    1.389   1_554 S
C53    C198    1.355   .     S
C53    O237    1.391   .     S
C54    C341    1.355   1_545 S
C54    O383    1.391   1_545 S
C55    O89     1.289   .     A
C55    C60     1.431   .     S
C55    O87     1.286   .     A
C56    C59     1.431   .     S
C56    O90     1.289   .     A
C56    O88     1.286   .     A
C57    C59     1.395   .     A
C57    H71     1.085   .     S
C57    C67     1.384   .     A
C58    C60     1.395   .     A
C58    H72     1.085   .     S
C58    C68     1.384   .     A
C59    C61     1.397   .     A
C60    C62     1.397   .     A
C61    H73     1.085   .     S
C61    C63     1.381   .     A
C62    H74     1.085   .     S
C62    C64     1.381   .     A
C63    C69     1.400   .     A
C63    C65     1.410   .     A
C64    C70     1.400   .     A
C64    C66     1.410   .     A
C65    C67     1.413   .     A
C65    C498    1.390   1_554 S
C66    C68     1.413   .     A
C66    C497    1.390   .     S
C69    H75     1.084   .     S
C69    C483    1.389   1_554 S
C70    H76     1.084   .     S
C70    C484    1.389   .     S
H80    N130    1.029   .     S
N81    Zn92    2.013   .     S
N81    H127    1.029   .     S
N81    N130    1.282   .     S
N82    Zn91    2.013   .     S
O83    Zn91    1.971   .     S
O84    Zn92    1.971   .     S
O85    Zn92    1.991   .     S
O86    Zn91    1.991   .     S
O87    Zn91    2.003   .     S
O88    Zn92    2.003   .     S
O89    Zn92    2.021   .     S
O90    Zn91    2.021   .     S
O93    C341    1.391   1_545 S
O93    H382    0.991   1_545 S
H94    O237    0.991   .     S
O95    C198    1.391   .     S
O95    H240    0.991   .     S
H96    O383    0.991   1_545 S
C97    O133    1.288   .     A
C97    C101    1.414   .     S
C97    O131    1.272   .     A
C98    O134    1.288   .     A
C98    C102    1.414   .     S
C98    O132    1.272   .     A
C99    C116    1.399   .     A
C99    H125    1.084   .     S
C99    C549    1.389   .     S
C100   C115    1.399   .     A
C100   H126    1.084   .     S
C100   C550    1.389   1_554 S
C101   C246    1.355   .     S
C101   O285    1.391   .     S
C102   C389    1.355   1_545 S
C102   O431    1.391   1_545 S
C103   O137    1.289   .     A
C103   C108    1.431   .     S
C103   O135    1.286   .     A
C104   C107    1.431   .     S
C104   O138    1.289   .     A
C104   O136    1.286   .     A
C105   C107    1.395   .     A
C105   H119    1.085   .     S
C105   C115    1.384   .     A
C106   C108    1.395   .     A
C106   H120    1.085   .     S
C106   C116    1.384   .     A
C107   C109    1.397   .     A
C108   C110    1.397   .     A
C109   H121    1.085   .     S
C109   C111    1.381   .     A
C110   H122    1.085   .     S
C110   C112    1.381   .     A
C111   C117    1.400   .     A
C111   C113    1.410   .     A
C112   C118    1.400   .     A
C112   C114    1.410   .     A
C113   C115    1.413   .     A
C113   C546    1.390   1_554 S
C114   C116    1.413   .     A
C114   C545    1.390   .     S
C117   H123    1.084   .     S
C117   C531    1.389   1_554 S
C118   H124    1.084   .     S
C118   C532    1.389   .     S
H128   N34     1.029   1_655 S
N129   Zn140   2.013   .     S
N129   H31     1.029   1_655 S
N129   N34     1.282   1_655 S
N130   Zn139   2.013   .     S
O131   Zn139   1.971   .     S
O132   Zn140   1.971   .     S
O133   Zn140   1.991   .     S
O134   Zn139   1.991   .     S
O135   Zn139   2.003   .     S
O136   Zn140   2.003   .     S
O137   Zn140   2.021   .     S
O138   Zn139   2.021   .     S
O141   C389    1.391   1_545 S
O141   H430    0.991   1_545 S
H142   O285    0.991   .     S
O143   C246    1.391   .     S
O143   H288    0.991   .     S
H144   O431    0.991   1_545 S
C145   O181    1.288   .     A
C145   C149    1.414   .     S
C145   O179    1.272   .     A
C146   O182    1.288   .     A
C146   C150    1.414   .     S
C146   O180    1.272   .     A
C147   C164    1.399   .     A
C147   H173    1.084   .     S
C147   C597    1.389   .     S
C148   C163    1.399   .     A
C148   H174    1.084   .     S
C148   C598    1.389   1_554 S
C149   C294    1.355   .     S
C149   O333    1.391   .     S
C151   O185    1.289   .     A
C151   C156    1.431   .     S
C151   O183    1.286   .     A
C152   C155    1.431   .     S
C152   O186    1.289   .     A
C152   O184    1.286   .     A
C153   C155    1.395   .     A
C153   H167    1.085   .     S
C153   C163    1.384   .     A
C154   C156    1.395   .     A
C154   H168    1.085   .     S
C154   C164    1.384   .     A
C155   C157    1.397   .     A
C156   C158    1.397   .     A
C157   H169    1.085   .     S
C157   C159    1.381   .     A
C158   H170    1.085   .     S
C158   C160    1.381   .     A
C159   C165    1.400   .     A
C159   C161    1.410   .     A
C160   C166    1.400   .     A
C160   C162    1.410   .     A
C161   C163    1.413   .     A
C161   C594    1.390   1_554 S
C162   C164    1.413   .     A
C162   C593    1.390   .     S
C165   H171    1.084   .     S
C165   C579    1.389   1_554 S
C166   H172    1.084   .     S
C166   C580    1.389   .     S
H175   N273    1.029   1_455 S
H176   N226    1.029   .     S
N177   Zn188   2.013   .     S
N177   H223    1.029   .     S
N177   N226    1.282   .     S
N178   Zn187   2.013   .     S
N178   N273    1.282   1_455 S
N178   H272    1.029   1_455 S
O179   Zn187   1.971   .     S
O180   Zn188   1.971   .     S
O181   Zn188   1.991   .     S
O182   Zn187   1.991   .     S
O183   Zn187   2.003   .     S
O184   Zn188   2.003   .     S
O185   Zn188   2.021   .     S
O186   Zn187   2.021   .     S
H190   O333    0.991   .     S
O191   C294    1.391   .     S
O191   H336    0.991   .     S
C193   O229    1.288   .     A
C193   C197    1.414   .     S
C193   O227    1.272   .     A
C194   O230    1.288   .     A
C194   C198    1.414   .     S
C194   O228    1.272   .     A
C195   C212    1.399   .     A
C195   H221    1.084   .     S
C195   C645    1.389   .     S
C196   C211    1.399   .     A
C196   H222    1.084   .     S
C196   C646    1.389   1_554 S
C197   C342    1.355   .     S
C197   O381    1.391   .     S
C199   O233    1.289   .     A
C199   C204    1.431   .     S
C199   O231    1.286   .     A
C200   C203    1.431   .     S
C200   O234    1.289   .     A
C200   O232    1.286   .     A
C201   C203    1.395   .     A
C201   H215    1.085   .     S
C201   C211    1.384   .     A
C202   C204    1.395   .     A
C202   H216    1.085   .     S
C202   C212    1.384   .     A
C203   C205    1.397   .     A
C204   C206    1.397   .     A
C205   H217    1.085   .     S
C205   C207    1.381   .     A
C206   H218    1.085   .     S
C206   C208    1.381   .     A
C207   C213    1.400   .     A
C207   C209    1.410   .     A
C208   C214    1.400   .     A
C208   C210    1.410   .     A
C209   C211    1.413   .     A
C209   C642    1.390   1_554 S
C210   C212    1.413   .     A
C210   C641    1.390   .     S
C213   H219    1.084   .     S
C213   C627    1.389   1_554 S
C214   H220    1.084   .     S
C214   C628    1.389   .     S
H224   N274    1.029   .     S
N225   Zn236   2.013   .     S
N225   H271    1.029   .     S
N225   N274    1.282   .     S
N226   Zn235   2.013   .     S
O227   Zn235   1.971   .     S
O228   Zn236   1.971   .     S
O229   Zn236   1.991   .     S
O230   Zn235   1.991   .     S
O231   Zn235   2.003   .     S
O232   Zn236   2.003   .     S
O233   Zn236   2.021   .     S
O234   Zn235   2.021   .     S
H238   O381    0.991   .     S
O239   C342    1.391   .     S
O239   H384    0.991   .     S
C241   O277    1.288   .     A
C241   C245    1.414   .     S
C241   O275    1.272   .     A
C242   O278    1.288   .     A
C242   C246    1.414   .     S
C242   O276    1.272   .     A
C243   C260    1.399   .     A
C243   H269    1.084   .     S
C243   C693    1.389   .     S
C244   C259    1.399   .     A
C244   H270    1.084   .     S
C244   C694    1.389   1_554 S
C245   C390    1.355   .     S
C245   O429    1.391   .     S
C247   O281    1.289   .     A
C247   C252    1.431   .     S
C247   O279    1.286   .     A
C248   C251    1.431   .     S
C248   O282    1.289   .     A
C248   O280    1.286   .     A
C249   C251    1.395   .     A
C249   H263    1.085   .     S
C249   C259    1.384   .     A
C250   C252    1.395   .     A
C250   H264    1.085   .     S
C250   C260    1.384   .     A
C251   C253    1.397   .     A
C252   C254    1.397   .     A
C253   H265    1.085   .     S
C253   C255    1.381   .     A
C254   H266    1.085   .     S
C254   C256    1.381   .     A
C255   C261    1.400   .     A
C255   C257    1.410   .     A
C256   C262    1.400   .     A
C256   C258    1.410   .     A
C257   C259    1.413   .     A
C257   C690    1.390   1_554 S
C258   C260    1.413   .     A
C258   C689    1.390   .     S
C261   H267    1.084   .     S
C261   C675    1.389   1_554 S
C262   H268    1.084   .     S
C262   C676    1.389   .     S
H272   N178    1.029   1_655 S
N273   Zn284   2.013   .     S
N273   H175    1.029   1_655 S
N273   N178    1.282   1_655 S
N274   Zn283   2.013   .     S
O275   Zn283   1.971   .     S
O276   Zn284   1.971   .     S
O277   Zn284   1.991   .     S
O278   Zn283   1.991   .     S
O279   Zn283   2.003   .     S
O280   Zn284   2.003   .     S
O281   Zn284   2.021   .     S
O282   Zn283   2.021   .     S
H286   O429    0.991   .     S
O287   C390    1.391   .     S
O287   H432    0.991   .     S
C289   O325    1.288   .     A
C289   C293    1.414   .     S
C289   O323    1.272   .     A
C290   O326    1.288   .     A
C290   C294    1.414   .     S
C290   O324    1.272   .     A
C291   C308    1.399   .     A
C291   H317    1.084   .     S
C291   C741    1.389   .     S
C292   C307    1.399   .     A
C292   H318    1.084   .     S
C292   C742    1.389   1_554 S
C293   C6      1.355   1_565 S
C293   O45     1.391   1_565 S
C295   O329    1.289   .     A
C295   C300    1.431   .     S
C295   O327    1.286   .     A
C296   C299    1.431   .     S
C296   O330    1.289   .     A
C296   O328    1.286   .     A
C297   C299    1.395   .     A
C297   H311    1.085   .     S
C297   C307    1.384   .     A
C298   C300    1.395   .     A
C298   H312    1.085   .     S
C298   C308    1.384   .     A
C299   C301    1.397   .     A
C300   C302    1.397   .     A
C301   H313    1.085   .     S
C301   C303    1.381   .     A
C302   H314    1.085   .     S
C302   C304    1.381   .     A
C303   C309    1.400   .     A
C303   C305    1.410   .     A
C304   C310    1.400   .     A
C304   C306    1.410   .     A
C305   C307    1.413   .     A
C305   C738    1.390   1_554 S
C306   C308    1.413   .     A
C306   C737    1.390   .     S
C309   H315    1.084   .     S
C309   C723    1.389   1_554 S
C310   H316    1.084   .     S
C310   C724    1.389   .     S
H319   N417    1.029   1_455 S
H320   N370    1.029   .     S
N321   Zn332   2.013   .     S
N321   H367    1.029   .     S
N321   N370    1.282   .     S
N322   Zn331   2.013   .     S
N322   N417    1.282   1_455 S
N322   H416    1.029   1_455 S
O323   Zn331   1.971   .     S
O324   Zn332   1.971   .     S
O325   Zn332   1.991   .     S
O326   Zn331   1.991   .     S
O327   Zn331   2.003   .     S
O328   Zn332   2.003   .     S
O329   Zn332   2.021   .     S
O330   Zn331   2.021   .     S
H334   O45     0.991   1_565 S
O335   C6      1.391   1_565 S
O335   H48     0.991   1_565 S
C337   O373    1.288   .     A
C337   C341    1.414   .     S
C337   O371    1.272   .     A
C338   O374    1.288   .     A
C338   C342    1.414   .     S
C338   O372    1.272   .     A
C339   C356    1.399   .     A
C339   H365    1.084   .     S
C339   C789    1.389   .     S
C340   C355    1.399   .     A
C340   H366    1.084   .     S
C340   C790    1.389   1_554 S
C341   C54     1.355   1_565 S
C341   O93     1.391   1_565 S
C343   O377    1.289   .     A
C343   C348    1.431   .     S
C343   O375    1.286   .     A
C344   C347    1.431   .     S
C344   O378    1.289   .     A
C344   O376    1.286   .     A
C345   C347    1.395   .     A
C345   H359    1.085   .     S
C345   C355    1.384   .     A
C346   C348    1.395   .     A
C346   H360    1.085   .     S
C346   C356    1.384   .     A
C347   C349    1.397   .     A
C348   C350    1.397   .     A
C349   H361    1.085   .     S
C349   C351    1.381   .     A
C350   H362    1.085   .     S
C350   C352    1.381   .     A
C351   C357    1.400   .     A
C351   C353    1.410   .     A
C352   C358    1.400   .     A
C352   C354    1.410   .     A
C353   C355    1.413   .     A
C353   C786    1.390   1_554 S
C354   C356    1.413   .     A
C354   C785    1.390   .     S
C357   H363    1.084   .     S
C357   C771    1.389   1_554 S
C358   H364    1.084   .     S
C358   C772    1.389   .     S
H368   N418    1.029   .     S
N369   Zn380   2.013   .     S
N369   H415    1.029   .     S
N369   N418    1.282   .     S
N370   Zn379   2.013   .     S
O371   Zn379   1.971   .     S
O372   Zn380   1.971   .     S
O373   Zn380   1.991   .     S
O374   Zn379   1.991   .     S
O375   Zn379   2.003   .     S
O376   Zn380   2.003   .     S
O377   Zn380   2.021   .     S
O378   Zn379   2.021   .     S
H382   O93     0.991   1_565 S
O383   C54     1.391   1_565 S
O383   H96     0.991   1_565 S
C385   O421    1.288   .     A
C385   C389    1.414   .     S
C385   O419    1.272   .     A
C386   O422    1.288   .     A
C386   C390    1.414   .     S
C386   O420    1.272   .     A
C387   C404    1.399   .     A
C387   H413    1.084   .     S
C387   C837    1.389   .     S
C388   C403    1.399   .     A
C388   H414    1.084   .     S
C388   C838    1.389   1_554 S
C389   C102    1.355   1_565 S
C389   O141    1.391   1_565 S
C391   O425    1.289   .     A
C391   C396    1.431   .     S
C391   O423    1.286   .     A
C392   C395    1.431   .     S
C392   O426    1.289   .     A
C392   O424    1.286   .     A
C393   C395    1.395   .     A
C393   H407    1.085   .     S
C393   C403    1.384   .     A
C394   C396    1.395   .     A
C394   H408    1.085   .     S
C394   C404    1.384   .     A
C395   C397    1.397   .     A
C396   C398    1.397   .     A
C397   H409    1.085   .     S
C397   C399    1.381   .     A
C398   H410    1.085   .     S
C398   C400    1.381   .     A
C399   C405    1.400   .     A
C399   C401    1.410   .     A
C400   C406    1.400   .     A
C400   C402    1.410   .     A
C401   C403    1.413   .     A
C401   C834    1.390   1_554 S
C402   C404    1.413   .     A
C402   C833    1.390   .     S
C405   H411    1.084   .     S
C405   C819    1.389   1_554 S
C406   H412    1.084   .     S
C406   C820    1.389   .     S
H416   N322    1.029   1_655 S
N417   Zn428   2.013   .     S
N417   H319    1.029   1_655 S
N417   N322    1.282   1_655 S
N418   Zn427   2.013   .     S
O419   Zn427   1.971   .     S
O420   Zn428   1.971   .     S
O421   Zn428   1.991   .     S
O422   Zn427   1.991   .     S
O423   Zn427   2.003   .     S
O424   Zn428   2.003   .     S
O425   Zn428   2.021   .     S
O426   Zn427   2.021   .     S
H430   O141    0.991   1_565 S
O431   C102    1.391   1_565 S
O431   H144    0.991   1_565 S
C433   O469    1.288   .     A
C433   C437    1.414   .     S
C433   O467    1.272   .     A
C434   O470    1.288   .     A
C434   C438    1.414   .     S
C434   O468    1.272   .     A
C435   C452    1.399   .     A
C435   H461    1.084   .     S
C435   C21     1.389   1_556 S
C436   C451    1.399   .     A
C436   H462    1.084   .     S
C437   C582    1.355   .     S
C437   O621    1.391   .     S
C438   C725    1.355   1_545 S
C438   O767    1.391   1_545 S
C439   O473    1.289   .     A
C439   C444    1.431   .     S
C439   O471    1.286   .     A
C440   C443    1.431   .     S
C440   O474    1.289   .     A
C440   O472    1.286   .     A
C441   C443    1.395   .     A
C441   H455    1.085   .     S
C441   C451    1.384   .     A
C442   C444    1.395   .     A
C442   H456    1.085   .     S
C442   C452    1.384   .     A
C443   C445    1.397   .     A
C444   C446    1.397   .     A
C445   H457    1.085   .     S
C445   C447    1.381   .     A
C446   H458    1.085   .     S
C446   C448    1.381   .     A
C447   C453    1.400   .     A
C447   C449    1.410   .     A
C448   C454    1.400   .     A
C448   C450    1.410   .     A
C449   C451    1.413   .     A
C450   C452    1.413   .     A
C450   C17     1.390   1_556 S
C453   H459    1.084   .     S
C454   H460    1.084   .     S
C454   C4      1.389   1_556 S
H463   N561    1.029   1_455 S
H464   N514    1.029   .     S
N465   Zn476   2.013   .     S
N465   H511    1.029   .     S
N465   N514    1.282   .     S
N466   Zn475   2.013   .     S
N466   N561    1.282   1_455 S
N466   H560    1.029   1_455 S
O467   Zn475   1.971   .     S
O468   Zn476   1.971   .     S
O469   Zn476   1.991   .     S
O470   Zn475   1.991   .     S
O471   Zn475   2.003   .     S
O472   Zn476   2.003   .     S
O473   Zn476   2.021   .     S
O474   Zn475   2.021   .     S
O477   C725    1.391   1_545 S
O477   H766    0.991   1_545 S
H478   O621    0.991   .     S
O479   C582    1.391   .     S
O479   H624    0.991   .     S
H480   O767    0.991   1_545 S
C481   O517    1.288   .     A
C481   C485    1.414   .     S
C481   O515    1.272   .     A
C482   O518    1.288   .     A
C482   C486    1.414   .     S
C482   O516    1.272   .     A
C483   C500    1.399   .     A
C483   H509    1.084   .     S
C483   C69     1.389   1_556 S
C484   C499    1.399   .     A
C484   H510    1.084   .     S
C485   C630    1.355   .     S
C485   O669    1.391   .     S
C486   C773    1.355   1_545 S
C486   O815    1.391   1_545 S
C487   O521    1.289   .     A
C487   C492    1.431   .     S
C487   O519    1.286   .     A
C488   C491    1.431   .     S
C488   O522    1.289   .     A
C488   O520    1.286   .     A
C489   C491    1.395   .     A
C489   H503    1.085   .     S
C489   C499    1.384   .     A
C490   C492    1.395   .     A
C490   H504    1.085   .     S
C490   C500    1.384   .     A
C491   C493    1.397   .     A
C492   C494    1.397   .     A
C493   H505    1.085   .     S
C493   C495    1.381   .     A
C494   H506    1.085   .     S
C494   C496    1.381   .     A
C495   C501    1.400   .     A
C495   C497    1.410   .     A
C496   C502    1.400   .     A
C496   C498    1.410   .     A
C497   C499    1.413   .     A
C498   C500    1.413   .     A
C498   C65     1.390   1_556 S
C501   H507    1.084   .     S
C502   H508    1.084   .     S
C502   C52     1.389   1_556 S
H512   N562    1.029   .     S
N513   Zn524   2.013   .     S
N513   H559    1.029   .     S
N513   N562    1.282   .     S
N514   Zn523   2.013   .     S
O515   Zn523   1.971   .     S
O516   Zn524   1.971   .     S
O517   Zn524   1.991   .     S
O518   Zn523   1.991   .     S
O519   Zn523   2.003   .     S
O520   Zn524   2.003   .     S
O521   Zn524   2.021   .     S
O522   Zn523   2.021   .     S
O525   C773    1.391   1_545 S
O525   H814    0.991   1_545 S
H526   O669    0.991   .     S
O527   C630    1.391   .     S
O527   H672    0.991   .     S
H528   O815    0.991   1_545 S
C529   O565    1.288   .     A
C529   C533    1.414   .     S
C529   O563    1.272   .     A
C530   O566    1.288   .     A
C530   C534    1.414   .     S
C530   O564    1.272   .     A
C531   C548    1.399   .     A
C531   H557    1.084   .     S
C531   C117    1.389   1_556 S
C532   C547    1.399   .     A
C532   H558    1.084   .     S
C533   C678    1.355   .     S
C533   O717    1.391   .     S
C534   C821    1.355   1_545 S
C534   O863    1.391   1_545 S
C535   O569    1.289   .     A
C535   C540    1.431   .     S
C535   O567    1.286   .     A
C536   C539    1.431   .     S
C536   O570    1.289   .     A
C536   O568    1.286   .     A
C537   C539    1.395   .     A
C537   H551    1.085   .     S
C537   C547    1.384   .     A
C538   C540    1.395   .     A
C538   H552    1.085   .     S
C538   C548    1.384   .     A
C539   C541    1.397   .     A
C540   C542    1.397   .     A
C541   H553    1.085   .     S
C541   C543    1.381   .     A
C542   H554    1.085   .     S
C542   C544    1.381   .     A
C543   C549    1.400   .     A
C543   C545    1.410   .     A
C544   C550    1.400   .     A
C544   C546    1.410   .     A
C545   C547    1.413   .     A
C546   C548    1.413   .     A
C546   C113    1.390   1_556 S
C549   H555    1.084   .     S
C550   H556    1.084   .     S
C550   C100    1.389   1_556 S
H560   N466    1.029   1_655 S
N561   Zn572   2.013   .     S
N561   H463    1.029   1_655 S
N561   N466    1.282   1_655 S
N562   Zn571   2.013   .     S
O563   Zn571   1.971   .     S
O564   Zn572   1.971   .     S
O565   Zn572   1.991   .     S
O566   Zn571   1.991   .     S
O567   Zn571   2.003   .     S
O568   Zn572   2.003   .     S
O569   Zn572   2.021   .     S
O570   Zn571   2.021   .     S
O573   C821    1.391   1_545 S
O573   H862    0.991   1_545 S
H574   O717    0.991   .     S
O575   C678    1.391   .     S
O575   H720    0.991   .     S
H576   O863    0.991   1_545 S
C577   O613    1.288   .     A
C577   C581    1.414   .     S
C577   O611    1.272   .     A
C578   O614    1.288   .     A
C578   C582    1.414   .     S
C578   O612    1.272   .     A
C579   C596    1.399   .     A
C579   H605    1.084   .     S
C579   C165    1.389   1_556 S
C580   C595    1.399   .     A
C580   H606    1.084   .     S
C581   C726    1.355   .     S
C581   O765    1.391   .     S
C583   O617    1.289   .     A
C583   C588    1.431   .     S
C583   O615    1.286   .     A
C584   C587    1.431   .     S
C584   O618    1.289   .     A
C584   O616    1.286   .     A
C585   C587    1.395   .     A
C585   H599    1.085   .     S
C585   C595    1.384   .     A
C586   C588    1.395   .     A
C586   H600    1.085   .     S
C586   C596    1.384   .     A
C587   C589    1.397   .     A
C588   C590    1.397   .     A
C589   H601    1.085   .     S
C589   C591    1.381   .     A
C590   H602    1.085   .     S
C590   C592    1.381   .     A
C591   C597    1.400   .     A
C591   C593    1.410   .     A
C592   C598    1.400   .     A
C592   C594    1.410   .     A
C593   C595    1.413   .     A
C594   C596    1.413   .     A
C594   C161    1.390   1_556 S
C597   H603    1.084   .     S
C598   H604    1.084   .     S
C598   C148    1.389   1_556 S
H607   N705    1.029   1_455 S
H608   N658    1.029   .     S
N609   Zn620   2.013   .     S
N609   H655    1.029   .     S
N609   N658    1.282   .     S
N610   Zn619   2.013   .     S
N610   N705    1.282   1_455 S
N610   H704    1.029   1_455 S
O611   Zn619   1.971   .     S
O612   Zn620   1.971   .     S
O613   Zn620   1.991   .     S
O614   Zn619   1.991   .     S
O615   Zn619   2.003   .     S
O616   Zn620   2.003   .     S
O617   Zn620   2.021   .     S
O618   Zn619   2.021   .     S
H622   O765    0.991   .     S
O623   C726    1.391   .     S
O623   H768    0.991   .     S
C625   O661    1.288   .     A
C625   C629    1.414   .     S
C625   O659    1.272   .     A
C626   O662    1.288   .     A
C626   C630    1.414   .     S
C626   O660    1.272   .     A
C627   C644    1.399   .     A
C627   H653    1.084   .     S
C627   C213    1.389   1_556 S
C628   C643    1.399   .     A
C628   H654    1.084   .     S
C629   C774    1.355   .     S
C629   O813    1.391   .     S
C631   O665    1.289   .     A
C631   C636    1.431   .     S
C631   O663    1.286   .     A
C632   C635    1.431   .     S
C632   O666    1.289   .     A
C632   O664    1.286   .     A
C633   C635    1.395   .     A
C633   H647    1.085   .     S
C633   C643    1.384   .     A
C634   C636    1.395   .     A
C634   H648    1.085   .     S
C634   C644    1.384   .     A
C635   C637    1.397   .     A
C636   C638    1.397   .     A
C637   H649    1.085   .     S
C637   C639    1.381   .     A
C638   H650    1.085   .     S
C638   C640    1.381   .     A
C639   C645    1.400   .     A
C639   C641    1.410   .     A
C640   C646    1.400   .     A
C640   C642    1.410   .     A
C641   C643    1.413   .     A
C642   C644    1.413   .     A
C642   C209    1.390   1_556 S
C645   H651    1.084   .     S
C646   H652    1.084   .     S
C646   C196    1.389   1_556 S
H656   N706    1.029   .     S
N657   Zn668   2.013   .     S
N657   H703    1.029   .     S
N657   N706    1.282   .     S
N658   Zn667   2.013   .     S
O659   Zn667   1.971   .     S
O660   Zn668   1.971   .     S
O661   Zn668   1.991   .     S
O662   Zn667   1.991   .     S
O663   Zn667   2.003   .     S
O664   Zn668   2.003   .     S
O665   Zn668   2.021   .     S
O666   Zn667   2.021   .     S
H670   O813    0.991   .     S
O671   C774    1.391   .     S
O671   H816    0.991   .     S
C673   O709    1.288   .     A
C673   C677    1.414   .     S
C673   O707    1.272   .     A
C674   O710    1.288   .     A
C674   C678    1.414   .     S
C674   O708    1.272   .     A
C675   C692    1.399   .     A
C675   H701    1.084   .     S
C675   C261    1.389   1_556 S
C676   C691    1.399   .     A
C676   H702    1.084   .     S
C677   C822    1.355   .     S
C677   O861    1.391   .     S
C679   O713    1.289   .     A
C679   C684    1.431   .     S
C679   O711    1.286   .     A
C680   C683    1.431   .     S
C680   O714    1.289   .     A
C680   O712    1.286   .     A
C681   C683    1.395   .     A
C681   H695    1.085   .     S
C681   C691    1.384   .     A
C682   C684    1.395   .     A
C682   H696    1.085   .     S
C682   C692    1.384   .     A
C683   C685    1.397   .     A
C684   C686    1.397   .     A
C685   H697    1.085   .     S
C685   C687    1.381   .     A
C686   H698    1.085   .     S
C686   C688    1.381   .     A
C687   C693    1.400   .     A
C687   C689    1.410   .     A
C688   C694    1.400   .     A
C688   C690    1.410   .     A
C689   C691    1.413   .     A
C690   C692    1.413   .     A
C690   C257    1.390   1_556 S
C693   H699    1.084   .     S
C694   H700    1.084   .     S
C694   C244    1.389   1_556 S
H704   N610    1.029   1_655 S
N705   Zn716   2.013   .     S
N705   H607    1.029   1_655 S
N705   N610    1.282   1_655 S
N706   Zn715   2.013   .     S
O707   Zn715   1.971   .     S
O708   Zn716   1.971   .     S
O709   Zn716   1.991   .     S
O710   Zn715   1.991   .     S
O711   Zn715   2.003   .     S
O712   Zn716   2.003   .     S
O713   Zn716   2.021   .     S
O714   Zn715   2.021   .     S
H718   O861    0.991   .     S
O719   C822    1.391   .     S
O719   H864    0.991   .     S
C721   O757    1.288   .     A
C721   C725    1.414   .     S
C721   O755    1.272   .     A
C722   O758    1.288   .     A
C722   C726    1.414   .     S
C722   O756    1.272   .     A
C723   C740    1.399   .     A
C723   H749    1.084   .     S
C723   C309    1.389   1_556 S
C724   C739    1.399   .     A
C724   H750    1.084   .     S
C725   C438    1.355   1_565 S
C725   O477    1.391   1_565 S
C727   O761    1.289   .     A
C727   C732    1.431   .     S
C727   O759    1.286   .     A
C728   C731    1.431   .     S
C728   O762    1.289   .     A
C728   O760    1.286   .     A
C729   C731    1.395   .     A
C729   H743    1.085   .     S
C729   C739    1.384   .     A
C730   C732    1.395   .     A
C730   H744    1.085   .     S
C730   C740    1.384   .     A
C731   C733    1.397   .     A
C732   C734    1.397   .     A
C733   H745    1.085   .     S
C733   C735    1.381   .     A
C734   H746    1.085   .     S
C734   C736    1.381   .     A
C735   C741    1.400   .     A
C735   C737    1.410   .     A
C736   C742    1.400   .     A
C736   C738    1.410   .     A
C737   C739    1.413   .     A
C738   C740    1.413   .     A
C738   C305    1.390   1_556 S
C741   H747    1.084   .     S
C742   H748    1.084   .     S
C742   C292    1.389   1_556 S
H751   N849    1.029   1_455 S
H752   N802    1.029   .     S
N753   Zn764   2.013   .     S
N753   H799    1.029   .     S
N753   N802    1.282   .     S
N754   Zn763   2.013   .     S
N754   N849    1.282   1_455 S
N754   H848    1.029   1_455 S
O755   Zn763   1.971   .     S
O756   Zn764   1.971   .     S
O757   Zn764   1.991   .     S
O758   Zn763   1.991   .     S
O759   Zn763   2.003   .     S
O760   Zn764   2.003   .     S
O761   Zn764   2.021   .     S
O762   Zn763   2.021   .     S
H766   O477    0.991   1_565 S
O767   C438    1.391   1_565 S
O767   H480    0.991   1_565 S
C769   O805    1.288   .     A
C769   C773    1.414   .     S
C769   O803    1.272   .     A
C770   O806    1.288   .     A
C770   C774    1.414   .     S
C770   O804    1.272   .     A
C771   C788    1.399   .     A
C771   H797    1.084   .     S
C771   C357    1.389   1_556 S
C772   C787    1.399   .     A
C772   H798    1.084   .     S
C773   C486    1.355   1_565 S
C773   O525    1.391   1_565 S
C775   O809    1.289   .     A
C775   C780    1.431   .     S
C775   O807    1.286   .     A
C776   C779    1.431   .     S
C776   O810    1.289   .     A
C776   O808    1.286   .     A
C777   C779    1.395   .     A
C777   H791    1.085   .     S
C777   C787    1.384   .     A
C778   C780    1.395   .     A
C778   H792    1.085   .     S
C778   C788    1.384   .     A
C779   C781    1.397   .     A
C780   C782    1.397   .     A
C781   H793    1.085   .     S
C781   C783    1.381   .     A
C782   H794    1.085   .     S
C782   C784    1.381   .     A
C783   C789    1.400   .     A
C783   C785    1.410   .     A
C784   C790    1.400   .     A
C784   C786    1.410   .     A
C785   C787    1.413   .     A
C786   C788    1.413   .     A
C786   C353    1.390   1_556 S
C789   H795    1.084   .     S
C790   H796    1.084   .     S
C790   C340    1.389   1_556 S
H800   N850    1.029   .     S
N801   Zn812   2.013   .     S
N801   H847    1.029   .     S
N801   N850    1.282   .     S
N802   Zn811   2.013   .     S
O803   Zn811   1.971   .     S
O804   Zn812   1.971   .     S
O805   Zn812   1.991   .     S
O806   Zn811   1.991   .     S
O807   Zn811   2.003   .     S
O808   Zn812   2.003   .     S
O809   Zn812   2.021   .     S
O810   Zn811   2.021   .     S
H814   O525    0.991   1_565 S
O815   C486    1.391   1_565 S
O815   H528    0.991   1_565 S
C817   O853    1.288   .     A
C817   C821    1.414   .     S
C817   O851    1.272   .     A
C818   O854    1.288   .     A
C818   C822    1.414   .     S
C818   O852    1.272   .     A
C819   C836    1.399   .     A
C819   H845    1.084   .     S
C819   C405    1.389   1_556 S
C820   C835    1.399   .     A
C820   H846    1.084   .     S
C821   C534    1.355   1_565 S
C821   O573    1.391   1_565 S
C823   O857    1.289   .     A
C823   C828    1.431   .     S
C823   O855    1.286   .     A
C824   C827    1.431   .     S
C824   O858    1.289   .     A
C824   O856    1.286   .     A
C825   C827    1.395   .     A
C825   H839    1.085   .     S
C825   C835    1.384   .     A
C826   C828    1.395   .     A
C826   H840    1.085   .     S
C826   C836    1.384   .     A
C827   C829    1.397   .     A
C828   C830    1.397   .     A
C829   H841    1.085   .     S
C829   C831    1.381   .     A
C830   H842    1.085   .     S
C830   C832    1.381   .     A
C831   C837    1.400   .     A
C831   C833    1.410   .     A
C832   C838    1.400   .     A
C832   C834    1.410   .     A
C833   C835    1.413   .     A
C834   C836    1.413   .     A
C834   C401    1.390   1_556 S
C837   H843    1.084   .     S
C838   H844    1.084   .     S
C838   C388    1.389   1_556 S
H848   N754    1.029   1_655 S
N849   Zn860   2.013   .     S
N849   H751    1.029   1_655 S
N849   N754    1.282   1_655 S
N850   Zn859   2.013   .     S
O851   Zn859   1.971   .     S
O852   Zn860   1.971   .     S
O853   Zn860   1.991   .     S
O854   Zn859   1.991   .     S
O855   Zn859   2.003   .     S
O856   Zn860   2.003   .     S
O857   Zn860   2.021   .     S
O858   Zn859   2.021   .     S
H862   O573    0.991   1_565 S
O863   C534    1.391   1_565 S
O863   H576    0.991   1_565 S
