data_str_m3_o1_o16_pcu_sym.3
_audit_creation_date              2020-01-03
_audit_creation_method            'Materials Studio'
_symmetry_space_group_name_H-M    'P1'
_symmetry_Int_Tables_number       1
_symmetry_cell_setting            triclinic
loop_
_symmetry_equiv_pos_as_xyz
  x,y,z
_cell_length_a                    29.4650
_cell_length_b                    32.2131
_cell_length_c                    26.3579
_cell_angle_alpha                 89.4483
_cell_angle_beta                  71.4463
_cell_angle_gamma                 90.2883
loop_
_atom_site_label
_atom_site_type_symbol
_atom_site_fract_x
_atom_site_fract_y
_atom_site_fract_z
_atom_site_U_iso_or_equiv
_atom_site_adp_type
_atom_site_occupancy
C1     C     0.16642   0.24665   0.25120   0.00000  Uiso   1.00
C2     C     0.12480   0.17097   0.41000   0.00000  Uiso   1.00
C3     C     0.20037   0.31242   0.26650   0.00000  Uiso   1.00
C4     C     0.14059   0.16847   0.35180   0.00000  Uiso   1.00
C5     C     0.20018   0.02161   0.26484   0.00000  Uiso   1.00
C6     C     0.16702   0.04231   0.24573   0.00000  Uiso   1.00
C7     C     0.13386   0.02007   0.22709   0.00000  Uiso   1.00
C8     C     0.13242   0.31088   0.23310   0.00000  Uiso   1.00
C9     C     0.16626   0.29067   0.25091   0.00000  Uiso   1.00
C10    C     0.31914   0.14267   0.21492   0.00000  Uiso   1.00
C11    C     0.03389   0.14302   0.21458   0.00000  Uiso   1.00
C12    C     0.14583   0.17987   0.49116   0.00000  Uiso   1.00
C13    C     0.01436   0.19110   0.28453   0.00000  Uiso   1.00
C14    C     0.29987   0.19140   0.28408   0.00000  Uiso   1.00
C15    C     0.16698   0.08660   0.24792   0.00000  Uiso   1.00
C16    C     0.19257   0.17189   0.14856   0.00000  Uiso   1.00
C17    C     0.26337   0.20624   0.00576   0.00000  Uiso   1.00
C18    C     0.20670   0.18578   0.09210   0.00000  Uiso   1.00
C19    C     0.08250   0.15026   0.43946   0.00000  Uiso   1.00
C20    C     0.07235   0.14340   0.49407   0.00000  Uiso   1.00
C21    C     0.10415   0.15717   0.01969   0.00000  Uiso   1.00
C22    C     0.29735   0.19385   0.08014   0.00000  Uiso   1.00
C23    C     0.15543   0.18808   0.43627   0.00000  Uiso   1.00
C24    C     0.29840   0.23243   0.11308   0.00000  Uiso   1.00
C25    C     0.10134   0.03914   0.19855   0.00000  Uiso   1.00
C26    C     0.13018   0.05753   0.14406   0.00000  Uiso   1.00
C27    C     0.12506   0.21900   0.10001   0.00000  Uiso   1.00
C28    C     0.13965   0.26123   0.11567   0.00000  Uiso   1.00
C29    C     0.18025   0.19186   0.01516   0.00000  Uiso   1.00
C30    C     0.22631   0.20458   0.48336   0.00000  Uiso   1.00
C31    C     0.23340   0.21714   0.43071   0.00000  Uiso   1.00
C32    C     0.19654   0.21194   0.40886   0.00000  Uiso   1.00
C33    C     0.16942   0.19380   0.07024   0.00000  Uiso   1.00
C34    C     0.25492   0.19407   0.05943   0.00000  Uiso   1.00
H35    H     0.10581   0.29324   0.22192   0.00000  Uiso   1.00
H36    H     0.22638   0.29665   0.28091   0.00000  Uiso   1.00
H37    H     0.30438   0.26058   0.08704   0.00000  Uiso   1.00
H38    H     0.26440   0.23613   0.14624   0.00000  Uiso   1.00
H39    H     0.32819   0.22995   0.13024   0.00000  Uiso   1.00
H40    H     0.29815   0.16492   0.10293   0.00000  Uiso   1.00
H41    H     0.33126   0.19399   0.04616   0.00000  Uiso   1.00
H42    H     0.22576   0.03826   0.27903   0.00000  Uiso   1.00
H43    H     0.15387   0.08318   0.14827   0.00000  Uiso   1.00
H44    H     0.15246   0.03309   0.11867   0.00000  Uiso   1.00
H45    H     0.10542   0.06986   0.12353   0.00000  Uiso   1.00
H46    H     0.06011   0.12468   0.18571   0.00000  Uiso   1.00
H47    H     0.07696   0.01527   0.19092   0.00000  Uiso   1.00
H48    H     0.07689   0.06212   0.22390   0.00000  Uiso   1.00
H49    H     0.30878   0.12352   0.18689   0.00000  Uiso   1.00
H50    H     0.27445   0.21172   0.31058   0.00000  Uiso   1.00
H51    H     0.10713   0.27975   0.13464   0.00000  Uiso   1.00
H52    H     0.16038   0.25747   0.14384   0.00000  Uiso   1.00
H53    H     0.16211   0.27838   0.07955   0.00000  Uiso   1.00
H54    H     0.10285   0.22592   0.07397   0.00000  Uiso   1.00
H55    H     0.10023   0.20259   0.13495   0.00000  Uiso   1.00
H56    H     0.02486   0.21067   0.31210   0.00000  Uiso   1.00
H57    H     0.26685   0.23148   0.40695   0.00000  Uiso   1.00
H58    H     0.29901   0.21562   0.48103   0.00000  Uiso   1.00
H59    H     0.05878   0.13708   0.41968   0.00000  Uiso   1.00
H60    H     0.09658   0.14892   0.06150   0.00000  Uiso   1.00
H61    H     0.04067   0.12590   0.01624   0.00000  Uiso   1.00
H62    H     0.20125   0.22533   0.36980   0.00000  Uiso   1.00
N63    N     0.04760   0.16668   0.25002   0.00000  Uiso   1.00
N64    N     0.28573   0.16665   0.25001   0.00000  Uiso   1.00
O65    O     0.12846   0.22775   0.25001   0.00000  Uiso   1.00
O66    O     0.20490   0.22774   0.25001   0.00000  Uiso   1.00
O67    O     0.10947   0.16666   0.32681   0.00000  Uiso   1.00
O68    O     0.18591   0.16665   0.32681   0.00000  Uiso   1.00
O69    O     0.12843   0.10559   0.25000   0.00000  Uiso   1.00
O70    O     0.20488   0.10558   0.25000   0.00000  Uiso   1.00
O71    O     0.14742   0.16668   0.17319   0.00000  Uiso   1.00
O72    O     0.22387   0.16667   0.17319   0.00000  Uiso   1.00
Zn73   Zn    0.11562   0.16667   0.25000   0.00000  Uiso   1.00
Zn74   Zn    0.21771   0.16666   0.25000   0.00000  Uiso   1.00
C75    C     0.49975   0.24665   0.25120   0.00000  Uiso   1.00
C76    C     0.45814   0.17097   0.41000   0.00000  Uiso   1.00
C77    C     0.53370   0.31242   0.26650   0.00000  Uiso   1.00
C78    C     0.47392   0.16847   0.35180   0.00000  Uiso   1.00
C79    C     0.53351   0.02161   0.26484   0.00000  Uiso   1.00
C80    C     0.50035   0.04231   0.24573   0.00000  Uiso   1.00
C81    C     0.46719   0.02007   0.22709   0.00000  Uiso   1.00
C82    C     0.46575   0.31088   0.23310   0.00000  Uiso   1.00
C83    C     0.49959   0.29067   0.25091   0.00000  Uiso   1.00
C84    C     0.65247   0.14267   0.21492   0.00000  Uiso   1.00
C85    C     0.36722   0.14302   0.21458   0.00000  Uiso   1.00
C86    C     0.47916   0.17987   0.49116   0.00000  Uiso   1.00
C87    C     0.34770   0.19110   0.28453   0.00000  Uiso   1.00
C88    C     0.63320   0.19140   0.28408   0.00000  Uiso   1.00
C89    C     0.50032   0.08660   0.24792   0.00000  Uiso   1.00
C90    C     0.52590   0.17189   0.14856   0.00000  Uiso   1.00
C91    C     0.59671   0.20624   0.00576   0.00000  Uiso   1.00
C92    C     0.54003   0.18578   0.09210   0.00000  Uiso   1.00
C93    C     0.41583   0.15026   0.43946   0.00000  Uiso   1.00
C94    C     0.40568   0.14340   0.49407   0.00000  Uiso   1.00
C95    C     0.43748   0.15717   0.01969   0.00000  Uiso   1.00
C96    C     0.63069   0.19385   0.08014   0.00000  Uiso   1.00
C97    C     0.48876   0.18808   0.43627   0.00000  Uiso   1.00
C98    C     0.63174   0.23243   0.11308   0.00000  Uiso   1.00
C99    C     0.43468   0.03914   0.19855   0.00000  Uiso   1.00
C100   C     0.46351   0.05753   0.14406   0.00000  Uiso   1.00
C101   C     0.45840   0.21900   0.10001   0.00000  Uiso   1.00
C102   C     0.47299   0.26123   0.11567   0.00000  Uiso   1.00
C103   C     0.51358   0.19186   0.01516   0.00000  Uiso   1.00
C104   C     0.55964   0.20458   0.48336   0.00000  Uiso   1.00
C105   C     0.56673   0.21714   0.43071   0.00000  Uiso   1.00
C106   C     0.52988   0.21194   0.40886   0.00000  Uiso   1.00
C107   C     0.50275   0.19380   0.07024   0.00000  Uiso   1.00
C108   C     0.58825   0.19407   0.05943   0.00000  Uiso   1.00
H109   H     0.43914   0.29324   0.22192   0.00000  Uiso   1.00
H110   H     0.55971   0.29665   0.28091   0.00000  Uiso   1.00
H111   H     0.63771   0.26058   0.08704   0.00000  Uiso   1.00
H112   H     0.59773   0.23613   0.14624   0.00000  Uiso   1.00
H113   H     0.66152   0.22995   0.13024   0.00000  Uiso   1.00
H114   H     0.63148   0.16492   0.10293   0.00000  Uiso   1.00
H115   H     0.66460   0.19399   0.04616   0.00000  Uiso   1.00
H116   H     0.55909   0.03826   0.27903   0.00000  Uiso   1.00
H117   H     0.48721   0.08318   0.14827   0.00000  Uiso   1.00
H118   H     0.48579   0.03309   0.11867   0.00000  Uiso   1.00
H119   H     0.43876   0.06986   0.12353   0.00000  Uiso   1.00
H120   H     0.39344   0.12468   0.18571   0.00000  Uiso   1.00
H121   H     0.41030   0.01527   0.19092   0.00000  Uiso   1.00
H122   H     0.41022   0.06212   0.22390   0.00000  Uiso   1.00
H123   H     0.64212   0.12352   0.18689   0.00000  Uiso   1.00
H124   H     0.60778   0.21172   0.31058   0.00000  Uiso   1.00
H125   H     0.44046   0.27975   0.13464   0.00000  Uiso   1.00
H126   H     0.49372   0.25747   0.14384   0.00000  Uiso   1.00
H127   H     0.49544   0.27838   0.07955   0.00000  Uiso   1.00
H128   H     0.43618   0.22592   0.07397   0.00000  Uiso   1.00
H129   H     0.43356   0.20259   0.13495   0.00000  Uiso   1.00
H130   H     0.35819   0.21067   0.31210   0.00000  Uiso   1.00
H131   H     0.60018   0.23148   0.40695   0.00000  Uiso   1.00
H132   H     0.63234   0.21562   0.48103   0.00000  Uiso   1.00
H133   H     0.39211   0.13708   0.41968   0.00000  Uiso   1.00
H134   H     0.42991   0.14892   0.06150   0.00000  Uiso   1.00
H135   H     0.37400   0.12590   0.01624   0.00000  Uiso   1.00
H136   H     0.53459   0.22533   0.36980   0.00000  Uiso   1.00
N137   N     0.38093   0.16668   0.25002   0.00000  Uiso   1.00
N138   N     0.61906   0.16665   0.25001   0.00000  Uiso   1.00
O139   O     0.46179   0.22775   0.25001   0.00000  Uiso   1.00
O140   O     0.53823   0.22774   0.25001   0.00000  Uiso   1.00
O141   O     0.44280   0.16666   0.32681   0.00000  Uiso   1.00
O142   O     0.51924   0.16665   0.32681   0.00000  Uiso   1.00
O143   O     0.46177   0.10559   0.25000   0.00000  Uiso   1.00
O144   O     0.53821   0.10558   0.25000   0.00000  Uiso   1.00
O145   O     0.48076   0.16668   0.17319   0.00000  Uiso   1.00
O146   O     0.55720   0.16667   0.17319   0.00000  Uiso   1.00
Zn147  Zn    0.44896   0.16667   0.25000   0.00000  Uiso   1.00
Zn148  Zn    0.55104   0.16666   0.25000   0.00000  Uiso   1.00
C149   C     0.83308   0.24665   0.25120   0.00000  Uiso   1.00
C150   C     0.79147   0.17097   0.41000   0.00000  Uiso   1.00
C151   C     0.86704   0.31242   0.26650   0.00000  Uiso   1.00
C152   C     0.80726   0.16847   0.35180   0.00000  Uiso   1.00
C153   C     0.86685   0.02161   0.26484   0.00000  Uiso   1.00
C154   C     0.83368   0.04231   0.24573   0.00000  Uiso   1.00
C155   C     0.80052   0.02007   0.22709   0.00000  Uiso   1.00
C156   C     0.79909   0.31088   0.23310   0.00000  Uiso   1.00
C157   C     0.83293   0.29067   0.25091   0.00000  Uiso   1.00
C158   C     0.98581   0.14267   0.21492   0.00000  Uiso   1.00
C159   C     0.70055   0.14302   0.21458   0.00000  Uiso   1.00
C160   C     0.81250   0.17987   0.49116   0.00000  Uiso   1.00
C161   C     0.68103   0.19110   0.28453   0.00000  Uiso   1.00
C162   C     0.96654   0.19140   0.28408   0.00000  Uiso   1.00
C163   C     0.83365   0.08660   0.24792   0.00000  Uiso   1.00
C164   C     0.85924   0.17189   0.14856   0.00000  Uiso   1.00
C165   C     0.93004   0.20624   0.00576   0.00000  Uiso   1.00
C166   C     0.87337   0.18578   0.09210   0.00000  Uiso   1.00
C167   C     0.74916   0.15026   0.43946   0.00000  Uiso   1.00
C168   C     0.73902   0.14340   0.49407   0.00000  Uiso   1.00
C169   C     0.77081   0.15717   0.01969   0.00000  Uiso   1.00
C170   C     0.96402   0.19385   0.08014   0.00000  Uiso   1.00
C171   C     0.82209   0.18808   0.43627   0.00000  Uiso   1.00
C172   C     0.96507   0.23243   0.11308   0.00000  Uiso   1.00
C173   C     0.76801   0.03914   0.19855   0.00000  Uiso   1.00
C174   C     0.79685   0.05753   0.14406   0.00000  Uiso   1.00
C175   C     0.79173   0.21900   0.10001   0.00000  Uiso   1.00
C176   C     0.80632   0.26123   0.11567   0.00000  Uiso   1.00
C177   C     0.84692   0.19186   0.01516   0.00000  Uiso   1.00
C178   C     0.89298   0.20458   0.48336   0.00000  Uiso   1.00
C179   C     0.90006   0.21714   0.43071   0.00000  Uiso   1.00
C180   C     0.86321   0.21194   0.40886   0.00000  Uiso   1.00
C181   C     0.83608   0.19380   0.07024   0.00000  Uiso   1.00
C182   C     0.92158   0.19407   0.05943   0.00000  Uiso   1.00
H183   H     0.77247   0.29324   0.22192   0.00000  Uiso   1.00
H184   H     0.89304   0.29665   0.28091   0.00000  Uiso   1.00
H185   H     0.97105   0.26058   0.08704   0.00000  Uiso   1.00
H186   H     0.93106   0.23613   0.14624   0.00000  Uiso   1.00
H187   H     0.99485   0.22995   0.13024   0.00000  Uiso   1.00
H188   H     0.96482   0.16492   0.10293   0.00000  Uiso   1.00
H189   H     0.99793   0.19399   0.04616   0.00000  Uiso   1.00
H190   H     0.89243   0.03826   0.27903   0.00000  Uiso   1.00
H191   H     0.82054   0.08318   0.14827   0.00000  Uiso   1.00
H192   H     0.81913   0.03309   0.11867   0.00000  Uiso   1.00
H193   H     0.77209   0.06986   0.12353   0.00000  Uiso   1.00
H194   H     0.72678   0.12468   0.18571   0.00000  Uiso   1.00
H195   H     0.74363   0.01527   0.19092   0.00000  Uiso   1.00
H196   H     0.74356   0.06212   0.22390   0.00000  Uiso   1.00
H197   H     0.97545   0.12352   0.18689   0.00000  Uiso   1.00
H198   H     0.94112   0.21172   0.31058   0.00000  Uiso   1.00
H199   H     0.77379   0.27975   0.13464   0.00000  Uiso   1.00
H200   H     0.82705   0.25747   0.14384   0.00000  Uiso   1.00
H201   H     0.82877   0.27838   0.07955   0.00000  Uiso   1.00
H202   H     0.76951   0.22592   0.07397   0.00000  Uiso   1.00
H203   H     0.76689   0.20259   0.13495   0.00000  Uiso   1.00
H204   H     0.69152   0.21067   0.31210   0.00000  Uiso   1.00
H205   H     0.93351   0.23148   0.40695   0.00000  Uiso   1.00
H206   H     0.96567   0.21562   0.48103   0.00000  Uiso   1.00
H207   H     0.72544   0.13708   0.41968   0.00000  Uiso   1.00
H208   H     0.76324   0.14892   0.06150   0.00000  Uiso   1.00
H209   H     0.70734   0.12590   0.01624   0.00000  Uiso   1.00
H210   H     0.86792   0.22533   0.36980   0.00000  Uiso   1.00
N211   N     0.71426   0.16668   0.25002   0.00000  Uiso   1.00
N212   N     0.95239   0.16665   0.25001   0.00000  Uiso   1.00
O213   O     0.79512   0.22775   0.25001   0.00000  Uiso   1.00
O214   O     0.87157   0.22774   0.25001   0.00000  Uiso   1.00
O215   O     0.77613   0.16666   0.32681   0.00000  Uiso   1.00
O216   O     0.85258   0.16665   0.32681   0.00000  Uiso   1.00
O217   O     0.79510   0.10559   0.25000   0.00000  Uiso   1.00
O218   O     0.87154   0.10558   0.25000   0.00000  Uiso   1.00
O219   O     0.81409   0.16668   0.17319   0.00000  Uiso   1.00
O220   O     0.89053   0.16667   0.17319   0.00000  Uiso   1.00
Zn221  Zn    0.78229   0.16667   0.25000   0.00000  Uiso   1.00
Zn222  Zn    0.88438   0.16666   0.25000   0.00000  Uiso   1.00
C223   C     0.16642   0.57998   0.25120   0.00000  Uiso   1.00
C224   C     0.12480   0.50430   0.41000   0.00000  Uiso   1.00
C225   C     0.20037   0.64575   0.26650   0.00000  Uiso   1.00
C226   C     0.14059   0.50180   0.35180   0.00000  Uiso   1.00
C227   C     0.20018   0.35495   0.26484   0.00000  Uiso   1.00
C228   C     0.16702   0.37565   0.24573   0.00000  Uiso   1.00
C229   C     0.13386   0.35340   0.22709   0.00000  Uiso   1.00
C230   C     0.13242   0.64422   0.23310   0.00000  Uiso   1.00
C231   C     0.16626   0.62401   0.25091   0.00000  Uiso   1.00
C232   C     0.31914   0.47601   0.21492   0.00000  Uiso   1.00
C233   C     0.03389   0.47636   0.21458   0.00000  Uiso   1.00
C234   C     0.14583   0.51320   0.49116   0.00000  Uiso   1.00
C235   C     0.01436   0.52444   0.28453   0.00000  Uiso   1.00
C236   C     0.29987   0.52473   0.28408   0.00000  Uiso   1.00
C237   C     0.16698   0.41994   0.24792   0.00000  Uiso   1.00
C238   C     0.19257   0.50522   0.14856   0.00000  Uiso   1.00
C239   C     0.26337   0.53957   0.00576   0.00000  Uiso   1.00
C240   C     0.20670   0.51912   0.09210   0.00000  Uiso   1.00
C241   C     0.08250   0.48359   0.43946   0.00000  Uiso   1.00
C242   C     0.07235   0.47674   0.49407   0.00000  Uiso   1.00
C243   C     0.10415   0.49051   0.01969   0.00000  Uiso   1.00
C244   C     0.29735   0.52718   0.08014   0.00000  Uiso   1.00
C245   C     0.15543   0.52141   0.43627   0.00000  Uiso   1.00
C246   C     0.29840   0.56576   0.11308   0.00000  Uiso   1.00
C247   C     0.10134   0.37247   0.19855   0.00000  Uiso   1.00
C248   C     0.13018   0.39086   0.14406   0.00000  Uiso   1.00
C249   C     0.12506   0.55234   0.10001   0.00000  Uiso   1.00
C250   C     0.13965   0.59456   0.11567   0.00000  Uiso   1.00
C251   C     0.18025   0.52519   0.01516   0.00000  Uiso   1.00
C252   C     0.22631   0.53791   0.48336   0.00000  Uiso   1.00
C253   C     0.23340   0.55048   0.43071   0.00000  Uiso   1.00
C254   C     0.19654   0.54527   0.40886   0.00000  Uiso   1.00
C255   C     0.16942   0.52713   0.07024   0.00000  Uiso   1.00
C256   C     0.25492   0.52740   0.05943   0.00000  Uiso   1.00
H257   H     0.10581   0.62658   0.22192   0.00000  Uiso   1.00
H258   H     0.22638   0.62998   0.28091   0.00000  Uiso   1.00
H259   H     0.30438   0.59392   0.08704   0.00000  Uiso   1.00
H260   H     0.26440   0.56946   0.14624   0.00000  Uiso   1.00
H261   H     0.32819   0.56328   0.13024   0.00000  Uiso   1.00
H262   H     0.29815   0.49825   0.10293   0.00000  Uiso   1.00
H263   H     0.33126   0.52732   0.04616   0.00000  Uiso   1.00
H264   H     0.22576   0.37159   0.27903   0.00000  Uiso   1.00
H265   H     0.15387   0.41651   0.14827   0.00000  Uiso   1.00
H266   H     0.15246   0.36642   0.11867   0.00000  Uiso   1.00
H267   H     0.10542   0.40320   0.12353   0.00000  Uiso   1.00
H268   H     0.06011   0.45802   0.18571   0.00000  Uiso   1.00
H269   H     0.07696   0.34860   0.19092   0.00000  Uiso   1.00
H270   H     0.07689   0.39545   0.22390   0.00000  Uiso   1.00
H271   H     0.30878   0.45685   0.18689   0.00000  Uiso   1.00
H272   H     0.27445   0.54505   0.31058   0.00000  Uiso   1.00
H273   H     0.10713   0.61308   0.13464   0.00000  Uiso   1.00
H274   H     0.16038   0.59080   0.14384   0.00000  Uiso   1.00
H275   H     0.16211   0.61171   0.07955   0.00000  Uiso   1.00
H276   H     0.10285   0.55925   0.07397   0.00000  Uiso   1.00
H277   H     0.10023   0.53592   0.13495   0.00000  Uiso   1.00
H278   H     0.02486   0.54400   0.31210   0.00000  Uiso   1.00
H279   H     0.26685   0.56481   0.40695   0.00000  Uiso   1.00
H280   H     0.29901   0.54896   0.48103   0.00000  Uiso   1.00
H281   H     0.05878   0.47041   0.41968   0.00000  Uiso   1.00
H282   H     0.09658   0.48226   0.06150   0.00000  Uiso   1.00
H283   H     0.04067   0.45923   0.01624   0.00000  Uiso   1.00
H284   H     0.20125   0.55867   0.36980   0.00000  Uiso   1.00
N285   N     0.04760   0.50001   0.25002   0.00000  Uiso   1.00
N286   N     0.28573   0.49998   0.25001   0.00000  Uiso   1.00
O287   O     0.12846   0.56108   0.25001   0.00000  Uiso   1.00
O288   O     0.20490   0.56107   0.25001   0.00000  Uiso   1.00
O289   O     0.10947   0.50000   0.32681   0.00000  Uiso   1.00
O290   O     0.18591   0.49999   0.32681   0.00000  Uiso   1.00
O291   O     0.12843   0.43893   0.25000   0.00000  Uiso   1.00
O292   O     0.20488   0.43892   0.25000   0.00000  Uiso   1.00
O293   O     0.14742   0.50001   0.17319   0.00000  Uiso   1.00
O294   O     0.22387   0.50000   0.17319   0.00000  Uiso   1.00
Zn295  Zn    0.11562   0.50001   0.25000   0.00000  Uiso   1.00
Zn296  Zn    0.21771   0.49999   0.25000   0.00000  Uiso   1.00
C297   C     0.49975   0.57998   0.25120   0.00000  Uiso   1.00
C298   C     0.45814   0.50430   0.41000   0.00000  Uiso   1.00
C299   C     0.53370   0.64575   0.26650   0.00000  Uiso   1.00
C300   C     0.47392   0.50180   0.35180   0.00000  Uiso   1.00
C301   C     0.53351   0.35495   0.26484   0.00000  Uiso   1.00
C302   C     0.50035   0.37565   0.24573   0.00000  Uiso   1.00
C303   C     0.46719   0.35340   0.22709   0.00000  Uiso   1.00
C304   C     0.46575   0.64422   0.23310   0.00000  Uiso   1.00
C305   C     0.49959   0.62401   0.25091   0.00000  Uiso   1.00
C306   C     0.65247   0.47601   0.21492   0.00000  Uiso   1.00
C307   C     0.36722   0.47636   0.21458   0.00000  Uiso   1.00
C308   C     0.47916   0.51320   0.49116   0.00000  Uiso   1.00
C309   C     0.34770   0.52444   0.28453   0.00000  Uiso   1.00
C310   C     0.63320   0.52473   0.28408   0.00000  Uiso   1.00
C311   C     0.50032   0.41994   0.24792   0.00000  Uiso   1.00
C312   C     0.52590   0.50522   0.14856   0.00000  Uiso   1.00
C313   C     0.59671   0.53957   0.00576   0.00000  Uiso   1.00
C314   C     0.54003   0.51912   0.09210   0.00000  Uiso   1.00
C315   C     0.41583   0.48359   0.43946   0.00000  Uiso   1.00
C316   C     0.40568   0.47674   0.49407   0.00000  Uiso   1.00
C317   C     0.43748   0.49051   0.01969   0.00000  Uiso   1.00
C318   C     0.63069   0.52718   0.08014   0.00000  Uiso   1.00
C319   C     0.48876   0.52141   0.43627   0.00000  Uiso   1.00
C320   C     0.63174   0.56576   0.11308   0.00000  Uiso   1.00
C321   C     0.43468   0.37247   0.19855   0.00000  Uiso   1.00
C322   C     0.46351   0.39086   0.14406   0.00000  Uiso   1.00
C323   C     0.45840   0.55234   0.10001   0.00000  Uiso   1.00
C324   C     0.47299   0.59456   0.11567   0.00000  Uiso   1.00
C325   C     0.51358   0.52519   0.01516   0.00000  Uiso   1.00
C326   C     0.55964   0.53791   0.48336   0.00000  Uiso   1.00
C327   C     0.56673   0.55048   0.43071   0.00000  Uiso   1.00
C328   C     0.52988   0.54527   0.40886   0.00000  Uiso   1.00
C329   C     0.50275   0.52713   0.07024   0.00000  Uiso   1.00
C330   C     0.58825   0.52740   0.05943   0.00000  Uiso   1.00
H331   H     0.43914   0.62658   0.22192   0.00000  Uiso   1.00
H332   H     0.55971   0.62998   0.28091   0.00000  Uiso   1.00
H333   H     0.63771   0.59392   0.08704   0.00000  Uiso   1.00
H334   H     0.59773   0.56946   0.14624   0.00000  Uiso   1.00
H335   H     0.66152   0.56328   0.13024   0.00000  Uiso   1.00
H336   H     0.63148   0.49825   0.10293   0.00000  Uiso   1.00
H337   H     0.66460   0.52732   0.04616   0.00000  Uiso   1.00
H338   H     0.55909   0.37159   0.27903   0.00000  Uiso   1.00
H339   H     0.48721   0.41651   0.14827   0.00000  Uiso   1.00
H340   H     0.48579   0.36642   0.11867   0.00000  Uiso   1.00
H341   H     0.43876   0.40320   0.12353   0.00000  Uiso   1.00
H342   H     0.39344   0.45802   0.18571   0.00000  Uiso   1.00
H343   H     0.41030   0.34860   0.19092   0.00000  Uiso   1.00
H344   H     0.41022   0.39545   0.22390   0.00000  Uiso   1.00
H345   H     0.64212   0.45685   0.18689   0.00000  Uiso   1.00
H346   H     0.60778   0.54505   0.31058   0.00000  Uiso   1.00
H347   H     0.44046   0.61308   0.13464   0.00000  Uiso   1.00
H348   H     0.49372   0.59080   0.14384   0.00000  Uiso   1.00
H349   H     0.49544   0.61171   0.07955   0.00000  Uiso   1.00
H350   H     0.43618   0.55925   0.07397   0.00000  Uiso   1.00
H351   H     0.43356   0.53592   0.13495   0.00000  Uiso   1.00
H352   H     0.35819   0.54400   0.31210   0.00000  Uiso   1.00
H353   H     0.60018   0.56481   0.40695   0.00000  Uiso   1.00
H354   H     0.63234   0.54896   0.48103   0.00000  Uiso   1.00
H355   H     0.39211   0.47041   0.41968   0.00000  Uiso   1.00
H356   H     0.42991   0.48226   0.06150   0.00000  Uiso   1.00
H357   H     0.37400   0.45923   0.01624   0.00000  Uiso   1.00
H358   H     0.53459   0.55867   0.36980   0.00000  Uiso   1.00
N359   N     0.38093   0.50001   0.25002   0.00000  Uiso   1.00
N360   N     0.61906   0.49998   0.25001   0.00000  Uiso   1.00
O361   O     0.46179   0.56108   0.25001   0.00000  Uiso   1.00
O362   O     0.53823   0.56107   0.25001   0.00000  Uiso   1.00
O363   O     0.44280   0.50000   0.32681   0.00000  Uiso   1.00
O364   O     0.51924   0.49999   0.32681   0.00000  Uiso   1.00
O365   O     0.46177   0.43893   0.25000   0.00000  Uiso   1.00
O366   O     0.53821   0.43892   0.25000   0.00000  Uiso   1.00
O367   O     0.48076   0.50001   0.17319   0.00000  Uiso   1.00
O368   O     0.55720   0.50000   0.17319   0.00000  Uiso   1.00
Zn369  Zn    0.44896   0.50001   0.25000   0.00000  Uiso   1.00
Zn370  Zn    0.55104   0.49999   0.25000   0.00000  Uiso   1.00
C371   C     0.83308   0.57998   0.25120   0.00000  Uiso   1.00
C372   C     0.79147   0.50430   0.41000   0.00000  Uiso   1.00
C373   C     0.86704   0.64575   0.26650   0.00000  Uiso   1.00
C374   C     0.80726   0.50180   0.35180   0.00000  Uiso   1.00
C375   C     0.86685   0.35495   0.26484   0.00000  Uiso   1.00
C376   C     0.83368   0.37565   0.24573   0.00000  Uiso   1.00
C377   C     0.80052   0.35340   0.22709   0.00000  Uiso   1.00
C378   C     0.79909   0.64422   0.23310   0.00000  Uiso   1.00
C379   C     0.83293   0.62401   0.25091   0.00000  Uiso   1.00
C380   C     0.98581   0.47601   0.21492   0.00000  Uiso   1.00
C381   C     0.70055   0.47636   0.21458   0.00000  Uiso   1.00
C382   C     0.81250   0.51320   0.49116   0.00000  Uiso   1.00
C383   C     0.68103   0.52444   0.28453   0.00000  Uiso   1.00
C384   C     0.96654   0.52473   0.28408   0.00000  Uiso   1.00
C385   C     0.83365   0.41994   0.24792   0.00000  Uiso   1.00
C386   C     0.85924   0.50522   0.14856   0.00000  Uiso   1.00
C387   C     0.93004   0.53957   0.00576   0.00000  Uiso   1.00
C388   C     0.87337   0.51912   0.09210   0.00000  Uiso   1.00
C389   C     0.74916   0.48359   0.43946   0.00000  Uiso   1.00
C390   C     0.73902   0.47674   0.49407   0.00000  Uiso   1.00
C391   C     0.77081   0.49051   0.01969   0.00000  Uiso   1.00
C392   C     0.96402   0.52718   0.08014   0.00000  Uiso   1.00
C393   C     0.82209   0.52141   0.43627   0.00000  Uiso   1.00
C394   C     0.96507   0.56576   0.11308   0.00000  Uiso   1.00
C395   C     0.76801   0.37247   0.19855   0.00000  Uiso   1.00
C396   C     0.79685   0.39086   0.14406   0.00000  Uiso   1.00
C397   C     0.79173   0.55234   0.10001   0.00000  Uiso   1.00
C398   C     0.80632   0.59456   0.11567   0.00000  Uiso   1.00
C399   C     0.84692   0.52519   0.01516   0.00000  Uiso   1.00
C400   C     0.89298   0.53791   0.48336   0.00000  Uiso   1.00
C401   C     0.90006   0.55048   0.43071   0.00000  Uiso   1.00
C402   C     0.86321   0.54527   0.40886   0.00000  Uiso   1.00
C403   C     0.83608   0.52713   0.07024   0.00000  Uiso   1.00
C404   C     0.92158   0.52740   0.05943   0.00000  Uiso   1.00
H405   H     0.77247   0.62658   0.22192   0.00000  Uiso   1.00
H406   H     0.89304   0.62998   0.28091   0.00000  Uiso   1.00
H407   H     0.97105   0.59392   0.08704   0.00000  Uiso   1.00
H408   H     0.93106   0.56946   0.14624   0.00000  Uiso   1.00
H409   H     0.99485   0.56328   0.13024   0.00000  Uiso   1.00
H410   H     0.96482   0.49825   0.10293   0.00000  Uiso   1.00
H411   H     0.99793   0.52732   0.04616   0.00000  Uiso   1.00
H412   H     0.89243   0.37159   0.27903   0.00000  Uiso   1.00
H413   H     0.82054   0.41651   0.14827   0.00000  Uiso   1.00
H414   H     0.81913   0.36642   0.11867   0.00000  Uiso   1.00
H415   H     0.77209   0.40320   0.12353   0.00000  Uiso   1.00
H416   H     0.72678   0.45802   0.18571   0.00000  Uiso   1.00
H417   H     0.74363   0.34860   0.19092   0.00000  Uiso   1.00
H418   H     0.74356   0.39545   0.22390   0.00000  Uiso   1.00
H419   H     0.97545   0.45685   0.18689   0.00000  Uiso   1.00
H420   H     0.94112   0.54505   0.31058   0.00000  Uiso   1.00
H421   H     0.77379   0.61308   0.13464   0.00000  Uiso   1.00
H422   H     0.82705   0.59080   0.14384   0.00000  Uiso   1.00
H423   H     0.82877   0.61171   0.07955   0.00000  Uiso   1.00
H424   H     0.76951   0.55925   0.07397   0.00000  Uiso   1.00
H425   H     0.76689   0.53592   0.13495   0.00000  Uiso   1.00
H426   H     0.69152   0.54400   0.31210   0.00000  Uiso   1.00
H427   H     0.93351   0.56481   0.40695   0.00000  Uiso   1.00
H428   H     0.96567   0.54896   0.48103   0.00000  Uiso   1.00
H429   H     0.72544   0.47041   0.41968   0.00000  Uiso   1.00
H430   H     0.76324   0.48226   0.06150   0.00000  Uiso   1.00
H431   H     0.70734   0.45923   0.01624   0.00000  Uiso   1.00
H432   H     0.86792   0.55867   0.36980   0.00000  Uiso   1.00
N433   N     0.71426   0.50001   0.25002   0.00000  Uiso   1.00
N434   N     0.95239   0.49998   0.25001   0.00000  Uiso   1.00
O435   O     0.79512   0.56108   0.25001   0.00000  Uiso   1.00
O436   O     0.87157   0.56107   0.25001   0.00000  Uiso   1.00
O437   O     0.77613   0.50000   0.32681   0.00000  Uiso   1.00
O438   O     0.85258   0.49999   0.32681   0.00000  Uiso   1.00
O439   O     0.79510   0.43893   0.25000   0.00000  Uiso   1.00
O440   O     0.87154   0.43892   0.25000   0.00000  Uiso   1.00
O441   O     0.81409   0.50001   0.17319   0.00000  Uiso   1.00
O442   O     0.89053   0.50000   0.17319   0.00000  Uiso   1.00
Zn443  Zn    0.78229   0.50001   0.25000   0.00000  Uiso   1.00
Zn444  Zn    0.88438   0.49999   0.25000   0.00000  Uiso   1.00
C445   C     0.16642   0.91332   0.25120   0.00000  Uiso   1.00
C446   C     0.12480   0.83764   0.41000   0.00000  Uiso   1.00
C447   C     0.20037   0.97909   0.26650   0.00000  Uiso   1.00
C448   C     0.14059   0.83514   0.35180   0.00000  Uiso   1.00
C449   C     0.20018   0.68828   0.26484   0.00000  Uiso   1.00
C450   C     0.16702   0.70898   0.24573   0.00000  Uiso   1.00
C451   C     0.13386   0.68674   0.22709   0.00000  Uiso   1.00
C452   C     0.13242   0.97755   0.23310   0.00000  Uiso   1.00
C453   C     0.16626   0.95734   0.25091   0.00000  Uiso   1.00
C454   C     0.31914   0.80934   0.21492   0.00000  Uiso   1.00
C455   C     0.03389   0.80969   0.21458   0.00000  Uiso   1.00
C456   C     0.14583   0.84654   0.49116   0.00000  Uiso   1.00
C457   C     0.01436   0.85777   0.28453   0.00000  Uiso   1.00
C458   C     0.29987   0.85807   0.28408   0.00000  Uiso   1.00
C459   C     0.16698   0.75327   0.24792   0.00000  Uiso   1.00
C460   C     0.19257   0.83856   0.14856   0.00000  Uiso   1.00
C461   C     0.26337   0.87290   0.00576   0.00000  Uiso   1.00
C462   C     0.20670   0.85245   0.09210   0.00000  Uiso   1.00
C463   C     0.08250   0.81693   0.43946   0.00000  Uiso   1.00
C464   C     0.07235   0.81007   0.49407   0.00000  Uiso   1.00
C465   C     0.10415   0.82384   0.01969   0.00000  Uiso   1.00
C466   C     0.29735   0.86051   0.08014   0.00000  Uiso   1.00
C467   C     0.15543   0.85474   0.43627   0.00000  Uiso   1.00
C468   C     0.29840   0.89909   0.11308   0.00000  Uiso   1.00
C469   C     0.10134   0.70580   0.19855   0.00000  Uiso   1.00
C470   C     0.13018   0.72419   0.14406   0.00000  Uiso   1.00
C471   C     0.12506   0.88567   0.10001   0.00000  Uiso   1.00
C472   C     0.13965   0.92789   0.11567   0.00000  Uiso   1.00
C473   C     0.18025   0.85853   0.01516   0.00000  Uiso   1.00
C474   C     0.22631   0.87125   0.48336   0.00000  Uiso   1.00
C475   C     0.23340   0.88381   0.43071   0.00000  Uiso   1.00
C476   C     0.19654   0.87860   0.40886   0.00000  Uiso   1.00
C477   C     0.16942   0.86046   0.07024   0.00000  Uiso   1.00
C478   C     0.25492   0.86073   0.05943   0.00000  Uiso   1.00
H479   H     0.10581   0.95991   0.22192   0.00000  Uiso   1.00
H480   H     0.22638   0.96331   0.28091   0.00000  Uiso   1.00
H481   H     0.30438   0.92725   0.08704   0.00000  Uiso   1.00
H482   H     0.26440   0.90280   0.14624   0.00000  Uiso   1.00
H483   H     0.32819   0.89661   0.13024   0.00000  Uiso   1.00
H484   H     0.29815   0.83158   0.10293   0.00000  Uiso   1.00
H485   H     0.33126   0.86066   0.04616   0.00000  Uiso   1.00
H486   H     0.22576   0.70492   0.27903   0.00000  Uiso   1.00
H487   H     0.15387   0.74984   0.14827   0.00000  Uiso   1.00
H488   H     0.15246   0.69976   0.11867   0.00000  Uiso   1.00
H489   H     0.10542   0.73653   0.12353   0.00000  Uiso   1.00
H490   H     0.06011   0.79135   0.18571   0.00000  Uiso   1.00
H491   H     0.07696   0.68194   0.19092   0.00000  Uiso   1.00
H492   H     0.07689   0.72879   0.22390   0.00000  Uiso   1.00
H493   H     0.30878   0.79019   0.18689   0.00000  Uiso   1.00
H494   H     0.27445   0.87838   0.31058   0.00000  Uiso   1.00
H495   H     0.10713   0.94641   0.13464   0.00000  Uiso   1.00
H496   H     0.16038   0.92413   0.14384   0.00000  Uiso   1.00
H497   H     0.16211   0.94505   0.07955   0.00000  Uiso   1.00
H498   H     0.10285   0.89259   0.07397   0.00000  Uiso   1.00
H499   H     0.10023   0.86926   0.13495   0.00000  Uiso   1.00
H500   H     0.02486   0.87734   0.31210   0.00000  Uiso   1.00
H501   H     0.26685   0.89815   0.40695   0.00000  Uiso   1.00
H502   H     0.29901   0.88229   0.48103   0.00000  Uiso   1.00
H503   H     0.05878   0.80374   0.41968   0.00000  Uiso   1.00
H504   H     0.09658   0.81559   0.06150   0.00000  Uiso   1.00
H505   H     0.04067   0.79256   0.01624   0.00000  Uiso   1.00
H506   H     0.20125   0.89200   0.36980   0.00000  Uiso   1.00
N507   N     0.04760   0.83334   0.25002   0.00000  Uiso   1.00
N508   N     0.28573   0.83331   0.25001   0.00000  Uiso   1.00
O509   O     0.12846   0.89442   0.25001   0.00000  Uiso   1.00
O510   O     0.20490   0.89441   0.25001   0.00000  Uiso   1.00
O511   O     0.10947   0.83333   0.32681   0.00000  Uiso   1.00
O512   O     0.18591   0.83332   0.32681   0.00000  Uiso   1.00
O513   O     0.12843   0.77226   0.25000   0.00000  Uiso   1.00
O514   O     0.20488   0.77225   0.25000   0.00000  Uiso   1.00
O515   O     0.14742   0.83335   0.17319   0.00000  Uiso   1.00
O516   O     0.22387   0.83334   0.17319   0.00000  Uiso   1.00
Zn517  Zn    0.11562   0.83334   0.25000   0.00000  Uiso   1.00
Zn518  Zn    0.21771   0.83333   0.25000   0.00000  Uiso   1.00
C519   C     0.49975   0.91332   0.25120   0.00000  Uiso   1.00
C520   C     0.45814   0.83764   0.41000   0.00000  Uiso   1.00
C521   C     0.53370   0.97909   0.26650   0.00000  Uiso   1.00
C522   C     0.47392   0.83514   0.35180   0.00000  Uiso   1.00
C523   C     0.53351   0.68828   0.26484   0.00000  Uiso   1.00
C524   C     0.50035   0.70898   0.24573   0.00000  Uiso   1.00
C525   C     0.46719   0.68674   0.22709   0.00000  Uiso   1.00
C526   C     0.46575   0.97755   0.23310   0.00000  Uiso   1.00
C527   C     0.49959   0.95734   0.25091   0.00000  Uiso   1.00
C528   C     0.65247   0.80934   0.21492   0.00000  Uiso   1.00
C529   C     0.36722   0.80969   0.21458   0.00000  Uiso   1.00
C530   C     0.47916   0.84654   0.49116   0.00000  Uiso   1.00
C531   C     0.34770   0.85777   0.28453   0.00000  Uiso   1.00
C532   C     0.63320   0.85807   0.28408   0.00000  Uiso   1.00
C533   C     0.50032   0.75327   0.24792   0.00000  Uiso   1.00
C534   C     0.52590   0.83856   0.14856   0.00000  Uiso   1.00
C535   C     0.59671   0.87290   0.00576   0.00000  Uiso   1.00
C536   C     0.54003   0.85245   0.09210   0.00000  Uiso   1.00
C537   C     0.41583   0.81693   0.43946   0.00000  Uiso   1.00
C538   C     0.40568   0.81007   0.49407   0.00000  Uiso   1.00
C539   C     0.43748   0.82384   0.01969   0.00000  Uiso   1.00
C540   C     0.63069   0.86051   0.08014   0.00000  Uiso   1.00
C541   C     0.48876   0.85474   0.43627   0.00000  Uiso   1.00
C542   C     0.63174   0.89909   0.11308   0.00000  Uiso   1.00
C543   C     0.43468   0.70580   0.19855   0.00000  Uiso   1.00
C544   C     0.46351   0.72419   0.14406   0.00000  Uiso   1.00
C545   C     0.45840   0.88567   0.10001   0.00000  Uiso   1.00
C546   C     0.47299   0.92789   0.11567   0.00000  Uiso   1.00
C547   C     0.51358   0.85853   0.01516   0.00000  Uiso   1.00
C548   C     0.55964   0.87125   0.48336   0.00000  Uiso   1.00
C549   C     0.56673   0.88381   0.43071   0.00000  Uiso   1.00
C550   C     0.52988   0.87860   0.40886   0.00000  Uiso   1.00
C551   C     0.50275   0.86046   0.07024   0.00000  Uiso   1.00
C552   C     0.58825   0.86073   0.05943   0.00000  Uiso   1.00
H553   H     0.43914   0.95991   0.22192   0.00000  Uiso   1.00
H554   H     0.55971   0.96331   0.28091   0.00000  Uiso   1.00
H555   H     0.63771   0.92725   0.08704   0.00000  Uiso   1.00
H556   H     0.59773   0.90280   0.14624   0.00000  Uiso   1.00
H557   H     0.66152   0.89661   0.13024   0.00000  Uiso   1.00
H558   H     0.63148   0.83158   0.10293   0.00000  Uiso   1.00
H559   H     0.66460   0.86066   0.04616   0.00000  Uiso   1.00
H560   H     0.55909   0.70492   0.27903   0.00000  Uiso   1.00
H561   H     0.48721   0.74984   0.14827   0.00000  Uiso   1.00
H562   H     0.48579   0.69976   0.11867   0.00000  Uiso   1.00
H563   H     0.43876   0.73653   0.12353   0.00000  Uiso   1.00
H564   H     0.39344   0.79135   0.18571   0.00000  Uiso   1.00
H565   H     0.41030   0.68194   0.19092   0.00000  Uiso   1.00
H566   H     0.41022   0.72879   0.22390   0.00000  Uiso   1.00
H567   H     0.64212   0.79019   0.18689   0.00000  Uiso   1.00
H568   H     0.60778   0.87838   0.31058   0.00000  Uiso   1.00
H569   H     0.44046   0.94641   0.13464   0.00000  Uiso   1.00
H570   H     0.49372   0.92413   0.14384   0.00000  Uiso   1.00
H571   H     0.49544   0.94505   0.07955   0.00000  Uiso   1.00
H572   H     0.43618   0.89259   0.07397   0.00000  Uiso   1.00
H573   H     0.43356   0.86926   0.13495   0.00000  Uiso   1.00
H574   H     0.35819   0.87734   0.31210   0.00000  Uiso   1.00
H575   H     0.60018   0.89815   0.40695   0.00000  Uiso   1.00
H576   H     0.63234   0.88229   0.48103   0.00000  Uiso   1.00
H577   H     0.39211   0.80374   0.41968   0.00000  Uiso   1.00
H578   H     0.42991   0.81559   0.06150   0.00000  Uiso   1.00
H579   H     0.37400   0.79256   0.01624   0.00000  Uiso   1.00
H580   H     0.53459   0.89200   0.36980   0.00000  Uiso   1.00
N581   N     0.38093   0.83334   0.25002   0.00000  Uiso   1.00
N582   N     0.61906   0.83331   0.25001   0.00000  Uiso   1.00
O583   O     0.46179   0.89442   0.25001   0.00000  Uiso   1.00
O584   O     0.53823   0.89441   0.25001   0.00000  Uiso   1.00
O585   O     0.44280   0.83333   0.32681   0.00000  Uiso   1.00
O586   O     0.51924   0.83332   0.32681   0.00000  Uiso   1.00
O587   O     0.46177   0.77226   0.25000   0.00000  Uiso   1.00
O588   O     0.53821   0.77225   0.25000   0.00000  Uiso   1.00
O589   O     0.48076   0.83335   0.17319   0.00000  Uiso   1.00
O590   O     0.55720   0.83334   0.17319   0.00000  Uiso   1.00
Zn591  Zn    0.44896   0.83334   0.25000   0.00000  Uiso   1.00
Zn592  Zn    0.55104   0.83333   0.25000   0.00000  Uiso   1.00
C593   C     0.83308   0.91332   0.25120   0.00000  Uiso   1.00
C594   C     0.79147   0.83764   0.41000   0.00000  Uiso   1.00
C595   C     0.86704   0.97909   0.26650   0.00000  Uiso   1.00
C596   C     0.80726   0.83514   0.35180   0.00000  Uiso   1.00
C597   C     0.86685   0.68828   0.26484   0.00000  Uiso   1.00
C598   C     0.83368   0.70898   0.24573   0.00000  Uiso   1.00
C599   C     0.80052   0.68674   0.22709   0.00000  Uiso   1.00
C600   C     0.79909   0.97755   0.23310   0.00000  Uiso   1.00
C601   C     0.83293   0.95734   0.25091   0.00000  Uiso   1.00
C602   C     0.98581   0.80934   0.21492   0.00000  Uiso   1.00
C603   C     0.70055   0.80969   0.21458   0.00000  Uiso   1.00
C604   C     0.81250   0.84654   0.49116   0.00000  Uiso   1.00
C605   C     0.68103   0.85777   0.28453   0.00000  Uiso   1.00
C606   C     0.96654   0.85807   0.28408   0.00000  Uiso   1.00
C607   C     0.83365   0.75327   0.24792   0.00000  Uiso   1.00
C608   C     0.85924   0.83856   0.14856   0.00000  Uiso   1.00
C609   C     0.93004   0.87290   0.00576   0.00000  Uiso   1.00
C610   C     0.87337   0.85245   0.09210   0.00000  Uiso   1.00
C611   C     0.74916   0.81693   0.43946   0.00000  Uiso   1.00
C612   C     0.73902   0.81007   0.49407   0.00000  Uiso   1.00
C613   C     0.77081   0.82384   0.01969   0.00000  Uiso   1.00
C614   C     0.96402   0.86051   0.08014   0.00000  Uiso   1.00
C615   C     0.82209   0.85474   0.43627   0.00000  Uiso   1.00
C616   C     0.96507   0.89909   0.11308   0.00000  Uiso   1.00
C617   C     0.76801   0.70580   0.19855   0.00000  Uiso   1.00
C618   C     0.79685   0.72419   0.14406   0.00000  Uiso   1.00
C619   C     0.79173   0.88567   0.10001   0.00000  Uiso   1.00
C620   C     0.80632   0.92789   0.11567   0.00000  Uiso   1.00
C621   C     0.84692   0.85853   0.01516   0.00000  Uiso   1.00
C622   C     0.89298   0.87125   0.48336   0.00000  Uiso   1.00
C623   C     0.90006   0.88381   0.43071   0.00000  Uiso   1.00
C624   C     0.86321   0.87860   0.40886   0.00000  Uiso   1.00
C625   C     0.83608   0.86046   0.07024   0.00000  Uiso   1.00
C626   C     0.92158   0.86073   0.05943   0.00000  Uiso   1.00
H627   H     0.77247   0.95991   0.22192   0.00000  Uiso   1.00
H628   H     0.89304   0.96331   0.28091   0.00000  Uiso   1.00
H629   H     0.97105   0.92725   0.08704   0.00000  Uiso   1.00
H630   H     0.93106   0.90280   0.14624   0.00000  Uiso   1.00
H631   H     0.99485   0.89661   0.13024   0.00000  Uiso   1.00
H632   H     0.96482   0.83158   0.10293   0.00000  Uiso   1.00
H633   H     0.99793   0.86066   0.04616   0.00000  Uiso   1.00
H634   H     0.89243   0.70492   0.27903   0.00000  Uiso   1.00
H635   H     0.82054   0.74984   0.14827   0.00000  Uiso   1.00
H636   H     0.81913   0.69976   0.11867   0.00000  Uiso   1.00
H637   H     0.77209   0.73653   0.12353   0.00000  Uiso   1.00
H638   H     0.72678   0.79135   0.18571   0.00000  Uiso   1.00
H639   H     0.74363   0.68194   0.19092   0.00000  Uiso   1.00
H640   H     0.74356   0.72879   0.22390   0.00000  Uiso   1.00
H641   H     0.97545   0.79019   0.18689   0.00000  Uiso   1.00
H642   H     0.94112   0.87838   0.31058   0.00000  Uiso   1.00
H643   H     0.77379   0.94641   0.13464   0.00000  Uiso   1.00
H644   H     0.82705   0.92413   0.14384   0.00000  Uiso   1.00
H645   H     0.82877   0.94505   0.07955   0.00000  Uiso   1.00
H646   H     0.76951   0.89259   0.07397   0.00000  Uiso   1.00
H647   H     0.76689   0.86926   0.13495   0.00000  Uiso   1.00
H648   H     0.69152   0.87734   0.31210   0.00000  Uiso   1.00
H649   H     0.93351   0.89815   0.40695   0.00000  Uiso   1.00
H650   H     0.96567   0.88229   0.48103   0.00000  Uiso   1.00
H651   H     0.72544   0.80374   0.41968   0.00000  Uiso   1.00
H652   H     0.76324   0.81559   0.06150   0.00000  Uiso   1.00
H653   H     0.70734   0.79256   0.01624   0.00000  Uiso   1.00
H654   H     0.86792   0.89200   0.36980   0.00000  Uiso   1.00
N655   N     0.71426   0.83334   0.25002   0.00000  Uiso   1.00
N656   N     0.95239   0.83331   0.25001   0.00000  Uiso   1.00
O657   O     0.79512   0.89442   0.25001   0.00000  Uiso   1.00
O658   O     0.87157   0.89441   0.25001   0.00000  Uiso   1.00
O659   O     0.77613   0.83333   0.32681   0.00000  Uiso   1.00
O660   O     0.85258   0.83332   0.32681   0.00000  Uiso   1.00
O661   O     0.79510   0.77226   0.25000   0.00000  Uiso   1.00
O662   O     0.87154   0.77225   0.25000   0.00000  Uiso   1.00
O663   O     0.81409   0.83335   0.17319   0.00000  Uiso   1.00
O664   O     0.89053   0.83334   0.17319   0.00000  Uiso   1.00
Zn665  Zn    0.78229   0.83334   0.25000   0.00000  Uiso   1.00
Zn666  Zn    0.88438   0.83333   0.25000   0.00000  Uiso   1.00
C667   C     0.16642   0.24665   0.75120   0.00000  Uiso   1.00
C668   C     0.12480   0.17097   0.91000   0.00000  Uiso   1.00
C669   C     0.20037   0.31242   0.76650   0.00000  Uiso   1.00
C670   C     0.14059   0.16847   0.85180   0.00000  Uiso   1.00
C671   C     0.20018   0.02161   0.76484   0.00000  Uiso   1.00
C672   C     0.16702   0.04231   0.74573   0.00000  Uiso   1.00
C673   C     0.13386   0.02007   0.72709   0.00000  Uiso   1.00
C674   C     0.13242   0.31088   0.73310   0.00000  Uiso   1.00
C675   C     0.16626   0.29067   0.75091   0.00000  Uiso   1.00
C676   C     0.31914   0.14267   0.71492   0.00000  Uiso   1.00
C677   C     0.03389   0.14302   0.71458   0.00000  Uiso   1.00
C678   C     0.14583   0.17987   0.99116   0.00000  Uiso   1.00
C679   C     0.01436   0.19110   0.78453   0.00000  Uiso   1.00
C680   C     0.29987   0.19140   0.78408   0.00000  Uiso   1.00
C681   C     0.16698   0.08660   0.74792   0.00000  Uiso   1.00
C682   C     0.19257   0.17189   0.64856   0.00000  Uiso   1.00
C683   C     0.26337   0.20624   0.50576   0.00000  Uiso   1.00
C684   C     0.20670   0.18578   0.59210   0.00000  Uiso   1.00
C685   C     0.08250   0.15026   0.93946   0.00000  Uiso   1.00
C686   C     0.07235   0.14340   0.99407   0.00000  Uiso   1.00
C687   C     0.10415   0.15717   0.51969   0.00000  Uiso   1.00
C688   C     0.29735   0.19385   0.58014   0.00000  Uiso   1.00
C689   C     0.15543   0.18808   0.93627   0.00000  Uiso   1.00
C690   C     0.29840   0.23243   0.61308   0.00000  Uiso   1.00
C691   C     0.10134   0.03914   0.69855   0.00000  Uiso   1.00
C692   C     0.13018   0.05753   0.64406   0.00000  Uiso   1.00
C693   C     0.12506   0.21900   0.60001   0.00000  Uiso   1.00
C694   C     0.13965   0.26123   0.61567   0.00000  Uiso   1.00
C695   C     0.18025   0.19186   0.51516   0.00000  Uiso   1.00
C696   C     0.22631   0.20458   0.98336   0.00000  Uiso   1.00
C697   C     0.23340   0.21714   0.93071   0.00000  Uiso   1.00
C698   C     0.19654   0.21194   0.90886   0.00000  Uiso   1.00
C699   C     0.16942   0.19380   0.57024   0.00000  Uiso   1.00
C700   C     0.25492   0.19407   0.55943   0.00000  Uiso   1.00
H701   H     0.10581   0.29324   0.72192   0.00000  Uiso   1.00
H702   H     0.22638   0.29665   0.78091   0.00000  Uiso   1.00
H703   H     0.30438   0.26058   0.58704   0.00000  Uiso   1.00
H704   H     0.26440   0.23613   0.64624   0.00000  Uiso   1.00
H705   H     0.32819   0.22995   0.63024   0.00000  Uiso   1.00
H706   H     0.29815   0.16492   0.60293   0.00000  Uiso   1.00
H707   H     0.33126   0.19399   0.54616   0.00000  Uiso   1.00
H708   H     0.22576   0.03826   0.77903   0.00000  Uiso   1.00
H709   H     0.15387   0.08318   0.64827   0.00000  Uiso   1.00
H710   H     0.15246   0.03309   0.61867   0.00000  Uiso   1.00
H711   H     0.10542   0.06986   0.62353   0.00000  Uiso   1.00
H712   H     0.06011   0.12468   0.68571   0.00000  Uiso   1.00
H713   H     0.07696   0.01527   0.69092   0.00000  Uiso   1.00
H714   H     0.07689   0.06212   0.72390   0.00000  Uiso   1.00
H715   H     0.30878   0.12352   0.68689   0.00000  Uiso   1.00
H716   H     0.27445   0.21172   0.81058   0.00000  Uiso   1.00
H717   H     0.10713   0.27975   0.63464   0.00000  Uiso   1.00
H718   H     0.16038   0.25747   0.64384   0.00000  Uiso   1.00
H719   H     0.16211   0.27838   0.57955   0.00000  Uiso   1.00
H720   H     0.10285   0.22592   0.57397   0.00000  Uiso   1.00
H721   H     0.10023   0.20259   0.63495   0.00000  Uiso   1.00
H722   H     0.02486   0.21067   0.81210   0.00000  Uiso   1.00
H723   H     0.26685   0.23148   0.90695   0.00000  Uiso   1.00
H724   H     0.29901   0.21562   0.98103   0.00000  Uiso   1.00
H725   H     0.05878   0.13708   0.91968   0.00000  Uiso   1.00
H726   H     0.09658   0.14892   0.56150   0.00000  Uiso   1.00
H727   H     0.04067   0.12590   0.51624   0.00000  Uiso   1.00
H728   H     0.20125   0.22533   0.86980   0.00000  Uiso   1.00
N729   N     0.04760   0.16668   0.75002   0.00000  Uiso   1.00
N730   N     0.28573   0.16665   0.75001   0.00000  Uiso   1.00
O731   O     0.12846   0.22775   0.75001   0.00000  Uiso   1.00
O732   O     0.20490   0.22774   0.75001   0.00000  Uiso   1.00
O733   O     0.10947   0.16666   0.82681   0.00000  Uiso   1.00
O734   O     0.18591   0.16665   0.82681   0.00000  Uiso   1.00
O735   O     0.12843   0.10559   0.75000   0.00000  Uiso   1.00
O736   O     0.20488   0.10558   0.75000   0.00000  Uiso   1.00
O737   O     0.14742   0.16668   0.67319   0.00000  Uiso   1.00
O738   O     0.22387   0.16667   0.67319   0.00000  Uiso   1.00
Zn739  Zn    0.11562   0.16667   0.75000   0.00000  Uiso   1.00
Zn740  Zn    0.21771   0.16666   0.75000   0.00000  Uiso   1.00
C741   C     0.49975   0.24665   0.75120   0.00000  Uiso   1.00
C742   C     0.45814   0.17097   0.91000   0.00000  Uiso   1.00
C743   C     0.53370   0.31242   0.76650   0.00000  Uiso   1.00
C744   C     0.47392   0.16847   0.85180   0.00000  Uiso   1.00
C745   C     0.53351   0.02161   0.76484   0.00000  Uiso   1.00
C746   C     0.50035   0.04231   0.74573   0.00000  Uiso   1.00
C747   C     0.46719   0.02007   0.72709   0.00000  Uiso   1.00
C748   C     0.46575   0.31088   0.73310   0.00000  Uiso   1.00
C749   C     0.49959   0.29067   0.75091   0.00000  Uiso   1.00
C750   C     0.65247   0.14267   0.71492   0.00000  Uiso   1.00
C751   C     0.36722   0.14302   0.71458   0.00000  Uiso   1.00
C752   C     0.47916   0.17987   0.99116   0.00000  Uiso   1.00
C753   C     0.34770   0.19110   0.78453   0.00000  Uiso   1.00
C754   C     0.63320   0.19140   0.78408   0.00000  Uiso   1.00
C755   C     0.50032   0.08660   0.74792   0.00000  Uiso   1.00
C756   C     0.52590   0.17189   0.64856   0.00000  Uiso   1.00
C757   C     0.59671   0.20624   0.50576   0.00000  Uiso   1.00
C758   C     0.54003   0.18578   0.59210   0.00000  Uiso   1.00
C759   C     0.41583   0.15026   0.93946   0.00000  Uiso   1.00
C760   C     0.40568   0.14340   0.99407   0.00000  Uiso   1.00
C761   C     0.43748   0.15717   0.51969   0.00000  Uiso   1.00
C762   C     0.63069   0.19385   0.58014   0.00000  Uiso   1.00
C763   C     0.48876   0.18808   0.93627   0.00000  Uiso   1.00
C764   C     0.63174   0.23243   0.61308   0.00000  Uiso   1.00
C765   C     0.43468   0.03914   0.69855   0.00000  Uiso   1.00
C766   C     0.46351   0.05753   0.64406   0.00000  Uiso   1.00
C767   C     0.45840   0.21900   0.60001   0.00000  Uiso   1.00
C768   C     0.47299   0.26123   0.61567   0.00000  Uiso   1.00
C769   C     0.51358   0.19186   0.51516   0.00000  Uiso   1.00
C770   C     0.55964   0.20458   0.98336   0.00000  Uiso   1.00
C771   C     0.56673   0.21714   0.93071   0.00000  Uiso   1.00
C772   C     0.52988   0.21194   0.90886   0.00000  Uiso   1.00
C773   C     0.50275   0.19380   0.57024   0.00000  Uiso   1.00
C774   C     0.58825   0.19407   0.55943   0.00000  Uiso   1.00
H775   H     0.43914   0.29324   0.72192   0.00000  Uiso   1.00
H776   H     0.55971   0.29665   0.78091   0.00000  Uiso   1.00
H777   H     0.63771   0.26058   0.58704   0.00000  Uiso   1.00
H778   H     0.59773   0.23613   0.64624   0.00000  Uiso   1.00
H779   H     0.66152   0.22995   0.63024   0.00000  Uiso   1.00
H780   H     0.63148   0.16492   0.60293   0.00000  Uiso   1.00
H781   H     0.66460   0.19399   0.54616   0.00000  Uiso   1.00
H782   H     0.55909   0.03826   0.77903   0.00000  Uiso   1.00
H783   H     0.48721   0.08318   0.64827   0.00000  Uiso   1.00
H784   H     0.48579   0.03309   0.61867   0.00000  Uiso   1.00
H785   H     0.43876   0.06986   0.62353   0.00000  Uiso   1.00
H786   H     0.39344   0.12468   0.68571   0.00000  Uiso   1.00
H787   H     0.41030   0.01527   0.69092   0.00000  Uiso   1.00
H788   H     0.41022   0.06212   0.72390   0.00000  Uiso   1.00
H789   H     0.64212   0.12352   0.68689   0.00000  Uiso   1.00
H790   H     0.60778   0.21172   0.81058   0.00000  Uiso   1.00
H791   H     0.44046   0.27975   0.63464   0.00000  Uiso   1.00
H792   H     0.49372   0.25747   0.64384   0.00000  Uiso   1.00
H793   H     0.49544   0.27838   0.57955   0.00000  Uiso   1.00
H794   H     0.43618   0.22592   0.57397   0.00000  Uiso   1.00
H795   H     0.43356   0.20259   0.63495   0.00000  Uiso   1.00
H796   H     0.35819   0.21067   0.81210   0.00000  Uiso   1.00
H797   H     0.60018   0.23148   0.90695   0.00000  Uiso   1.00
H798   H     0.63234   0.21562   0.98103   0.00000  Uiso   1.00
H799   H     0.39211   0.13708   0.91968   0.00000  Uiso   1.00
H800   H     0.42991   0.14892   0.56150   0.00000  Uiso   1.00
H801   H     0.37400   0.12590   0.51624   0.00000  Uiso   1.00
H802   H     0.53459   0.22533   0.86980   0.00000  Uiso   1.00
N803   N     0.38093   0.16668   0.75002   0.00000  Uiso   1.00
N804   N     0.61906   0.16665   0.75001   0.00000  Uiso   1.00
O805   O     0.46179   0.22775   0.75001   0.00000  Uiso   1.00
O806   O     0.53823   0.22774   0.75001   0.00000  Uiso   1.00
O807   O     0.44280   0.16666   0.82681   0.00000  Uiso   1.00
O808   O     0.51924   0.16665   0.82681   0.00000  Uiso   1.00
O809   O     0.46177   0.10559   0.75000   0.00000  Uiso   1.00
O810   O     0.53821   0.10558   0.75000   0.00000  Uiso   1.00
O811   O     0.48076   0.16668   0.67319   0.00000  Uiso   1.00
O812   O     0.55720   0.16667   0.67319   0.00000  Uiso   1.00
Zn813  Zn    0.44896   0.16667   0.75000   0.00000  Uiso   1.00
Zn814  Zn    0.55104   0.16666   0.75000   0.00000  Uiso   1.00
C815   C     0.83308   0.24665   0.75120   0.00000  Uiso   1.00
C816   C     0.79147   0.17097   0.91000   0.00000  Uiso   1.00
C817   C     0.86704   0.31242   0.76650   0.00000  Uiso   1.00
C818   C     0.80726   0.16847   0.85180   0.00000  Uiso   1.00
C819   C     0.86685   0.02161   0.76484   0.00000  Uiso   1.00
C820   C     0.83368   0.04231   0.74573   0.00000  Uiso   1.00
C821   C     0.80052   0.02007   0.72709   0.00000  Uiso   1.00
C822   C     0.79909   0.31088   0.73310   0.00000  Uiso   1.00
C823   C     0.83293   0.29067   0.75091   0.00000  Uiso   1.00
C824   C     0.98581   0.14267   0.71492   0.00000  Uiso   1.00
C825   C     0.70055   0.14302   0.71458   0.00000  Uiso   1.00
C826   C     0.81250   0.17987   0.99116   0.00000  Uiso   1.00
C827   C     0.68103   0.19110   0.78453   0.00000  Uiso   1.00
C828   C     0.96654   0.19140   0.78408   0.00000  Uiso   1.00
C829   C     0.83365   0.08660   0.74792   0.00000  Uiso   1.00
C830   C     0.85924   0.17189   0.64856   0.00000  Uiso   1.00
C831   C     0.93004   0.20624   0.50576   0.00000  Uiso   1.00
C832   C     0.87337   0.18578   0.59210   0.00000  Uiso   1.00
C833   C     0.74916   0.15026   0.93946   0.00000  Uiso   1.00
C834   C     0.73902   0.14340   0.99407   0.00000  Uiso   1.00
C835   C     0.77081   0.15717   0.51969   0.00000  Uiso   1.00
C836   C     0.96402   0.19385   0.58014   0.00000  Uiso   1.00
C837   C     0.82209   0.18808   0.93627   0.00000  Uiso   1.00
C838   C     0.96507   0.23243   0.61308   0.00000  Uiso   1.00
C839   C     0.76801   0.03914   0.69855   0.00000  Uiso   1.00
C840   C     0.79685   0.05753   0.64406   0.00000  Uiso   1.00
C841   C     0.79173   0.21900   0.60001   0.00000  Uiso   1.00
C842   C     0.80632   0.26123   0.61567   0.00000  Uiso   1.00
C843   C     0.84692   0.19186   0.51516   0.00000  Uiso   1.00
C844   C     0.89298   0.20458   0.98336   0.00000  Uiso   1.00
C845   C     0.90006   0.21714   0.93071   0.00000  Uiso   1.00
C846   C     0.86321   0.21194   0.90886   0.00000  Uiso   1.00
C847   C     0.83608   0.19380   0.57024   0.00000  Uiso   1.00
C848   C     0.92158   0.19407   0.55943   0.00000  Uiso   1.00
H849   H     0.77247   0.29324   0.72192   0.00000  Uiso   1.00
H850   H     0.89304   0.29665   0.78091   0.00000  Uiso   1.00
H851   H     0.97105   0.26058   0.58704   0.00000  Uiso   1.00
H852   H     0.93106   0.23613   0.64624   0.00000  Uiso   1.00
H853   H     0.99485   0.22995   0.63024   0.00000  Uiso   1.00
H854   H     0.96482   0.16492   0.60293   0.00000  Uiso   1.00
H855   H     0.99793   0.19399   0.54616   0.00000  Uiso   1.00
H856   H     0.89243   0.03826   0.77903   0.00000  Uiso   1.00
H857   H     0.82054   0.08318   0.64827   0.00000  Uiso   1.00
H858   H     0.81913   0.03309   0.61867   0.00000  Uiso   1.00
H859   H     0.77209   0.06986   0.62353   0.00000  Uiso   1.00
H860   H     0.72678   0.12468   0.68571   0.00000  Uiso   1.00
H861   H     0.74363   0.01527   0.69092   0.00000  Uiso   1.00
H862   H     0.74356   0.06212   0.72390   0.00000  Uiso   1.00
H863   H     0.97545   0.12352   0.68689   0.00000  Uiso   1.00
H864   H     0.94112   0.21172   0.81058   0.00000  Uiso   1.00
H865   H     0.77379   0.27975   0.63464   0.00000  Uiso   1.00
H866   H     0.82705   0.25747   0.64384   0.00000  Uiso   1.00
H867   H     0.82877   0.27838   0.57955   0.00000  Uiso   1.00
H868   H     0.76951   0.22592   0.57397   0.00000  Uiso   1.00
H869   H     0.76689   0.20259   0.63495   0.00000  Uiso   1.00
H870   H     0.69152   0.21067   0.81210   0.00000  Uiso   1.00
H871   H     0.93351   0.23148   0.90695   0.00000  Uiso   1.00
H872   H     0.96567   0.21562   0.98103   0.00000  Uiso   1.00
H873   H     0.72544   0.13708   0.91968   0.00000  Uiso   1.00
H874   H     0.76324   0.14892   0.56150   0.00000  Uiso   1.00
H875   H     0.70734   0.12590   0.51624   0.00000  Uiso   1.00
H876   H     0.86792   0.22533   0.86980   0.00000  Uiso   1.00
N877   N     0.71426   0.16668   0.75002   0.00000  Uiso   1.00
N878   N     0.95239   0.16665   0.75001   0.00000  Uiso   1.00
O879   O     0.79512   0.22775   0.75001   0.00000  Uiso   1.00
O880   O     0.87157   0.22774   0.75001   0.00000  Uiso   1.00
O881   O     0.77613   0.16666   0.82681   0.00000  Uiso   1.00
O882   O     0.85258   0.16665   0.82681   0.00000  Uiso   1.00
O883   O     0.79510   0.10559   0.75000   0.00000  Uiso   1.00
O884   O     0.87154   0.10558   0.75000   0.00000  Uiso   1.00
O885   O     0.81409   0.16668   0.67319   0.00000  Uiso   1.00
O886   O     0.89053   0.16667   0.67319   0.00000  Uiso   1.00
Zn887  Zn    0.78229   0.16667   0.75000   0.00000  Uiso   1.00
Zn888  Zn    0.88438   0.16666   0.75000   0.00000  Uiso   1.00
C889   C     0.16642   0.57998   0.75120   0.00000  Uiso   1.00
C890   C     0.12480   0.50430   0.91000   0.00000  Uiso   1.00
C891   C     0.20037   0.64575   0.76650   0.00000  Uiso   1.00
C892   C     0.14059   0.50180   0.85180   0.00000  Uiso   1.00
C893   C     0.20018   0.35495   0.76484   0.00000  Uiso   1.00
C894   C     0.16702   0.37565   0.74573   0.00000  Uiso   1.00
C895   C     0.13386   0.35340   0.72709   0.00000  Uiso   1.00
C896   C     0.13242   0.64422   0.73310   0.00000  Uiso   1.00
C897   C     0.16626   0.62401   0.75091   0.00000  Uiso   1.00
C898   C     0.31914   0.47601   0.71492   0.00000  Uiso   1.00
C899   C     0.03389   0.47636   0.71458   0.00000  Uiso   1.00
C900   C     0.14583   0.51320   0.99116   0.00000  Uiso   1.00
C901   C     0.01436   0.52444   0.78453   0.00000  Uiso   1.00
C902   C     0.29987   0.52473   0.78408   0.00000  Uiso   1.00
C903   C     0.16698   0.41994   0.74792   0.00000  Uiso   1.00
C904   C     0.19257   0.50522   0.64856   0.00000  Uiso   1.00
C905   C     0.26337   0.53957   0.50576   0.00000  Uiso   1.00
C906   C     0.20670   0.51912   0.59210   0.00000  Uiso   1.00
C907   C     0.08250   0.48359   0.93946   0.00000  Uiso   1.00
C908   C     0.07235   0.47674   0.99407   0.00000  Uiso   1.00
C909   C     0.10415   0.49051   0.51969   0.00000  Uiso   1.00
C910   C     0.29735   0.52718   0.58014   0.00000  Uiso   1.00
C911   C     0.15543   0.52141   0.93627   0.00000  Uiso   1.00
C912   C     0.29840   0.56576   0.61308   0.00000  Uiso   1.00
C913   C     0.10134   0.37247   0.69855   0.00000  Uiso   1.00
C914   C     0.13018   0.39086   0.64406   0.00000  Uiso   1.00
C915   C     0.12506   0.55234   0.60001   0.00000  Uiso   1.00
C916   C     0.13965   0.59456   0.61567   0.00000  Uiso   1.00
C917   C     0.18025   0.52519   0.51516   0.00000  Uiso   1.00
C918   C     0.22631   0.53791   0.98336   0.00000  Uiso   1.00
C919   C     0.23340   0.55048   0.93071   0.00000  Uiso   1.00
C920   C     0.19654   0.54527   0.90886   0.00000  Uiso   1.00
C921   C     0.16942   0.52713   0.57024   0.00000  Uiso   1.00
C922   C     0.25492   0.52740   0.55943   0.00000  Uiso   1.00
H923   H     0.10581   0.62658   0.72192   0.00000  Uiso   1.00
H924   H     0.22638   0.62998   0.78091   0.00000  Uiso   1.00
H925   H     0.30438   0.59392   0.58704   0.00000  Uiso   1.00
H926   H     0.26440   0.56946   0.64624   0.00000  Uiso   1.00
H927   H     0.32819   0.56328   0.63024   0.00000  Uiso   1.00
H928   H     0.29815   0.49825   0.60293   0.00000  Uiso   1.00
H929   H     0.33126   0.52732   0.54616   0.00000  Uiso   1.00
H930   H     0.22576   0.37159   0.77903   0.00000  Uiso   1.00
H931   H     0.15387   0.41651   0.64827   0.00000  Uiso   1.00
H932   H     0.15246   0.36642   0.61867   0.00000  Uiso   1.00
H933   H     0.10542   0.40320   0.62353   0.00000  Uiso   1.00
H934   H     0.06011   0.45802   0.68571   0.00000  Uiso   1.00
H935   H     0.07696   0.34860   0.69092   0.00000  Uiso   1.00
H936   H     0.07689   0.39545   0.72390   0.00000  Uiso   1.00
H937   H     0.30878   0.45685   0.68689   0.00000  Uiso   1.00
H938   H     0.27445   0.54505   0.81058   0.00000  Uiso   1.00
H939   H     0.10713   0.61308   0.63464   0.00000  Uiso   1.00
H940   H     0.16038   0.59080   0.64384   0.00000  Uiso   1.00
H941   H     0.16211   0.61171   0.57955   0.00000  Uiso   1.00
H942   H     0.10285   0.55925   0.57397   0.00000  Uiso   1.00
H943   H     0.10023   0.53592   0.63495   0.00000  Uiso   1.00
H944   H     0.02486   0.54400   0.81210   0.00000  Uiso   1.00
H945   H     0.26685   0.56481   0.90695   0.00000  Uiso   1.00
H946   H     0.29901   0.54896   0.98103   0.00000  Uiso   1.00
H947   H     0.05878   0.47041   0.91968   0.00000  Uiso   1.00
H948   H     0.09658   0.48226   0.56150   0.00000  Uiso   1.00
H949   H     0.04067   0.45923   0.51624   0.00000  Uiso   1.00
H950   H     0.20125   0.55867   0.86980   0.00000  Uiso   1.00
N951   N     0.04760   0.50001   0.75002   0.00000  Uiso   1.00
N952   N     0.28573   0.49998   0.75001   0.00000  Uiso   1.00
O953   O     0.12846   0.56108   0.75001   0.00000  Uiso   1.00
O954   O     0.20490   0.56107   0.75001   0.00000  Uiso   1.00
O955   O     0.10947   0.50000   0.82681   0.00000  Uiso   1.00
O956   O     0.18591   0.49999   0.82681   0.00000  Uiso   1.00
O957   O     0.12843   0.43893   0.75000   0.00000  Uiso   1.00
O958   O     0.20488   0.43892   0.75000   0.00000  Uiso   1.00
O959   O     0.14742   0.50001   0.67319   0.00000  Uiso   1.00
O960   O     0.22387   0.50000   0.67319   0.00000  Uiso   1.00
Zn961  Zn    0.11562   0.50001   0.75000   0.00000  Uiso   1.00
Zn962  Zn    0.21771   0.49999   0.75000   0.00000  Uiso   1.00
C963   C     0.49975   0.57998   0.75120   0.00000  Uiso   1.00
C964   C     0.45814   0.50430   0.91000   0.00000  Uiso   1.00
C965   C     0.53370   0.64575   0.76650   0.00000  Uiso   1.00
C966   C     0.47392   0.50180   0.85180   0.00000  Uiso   1.00
C967   C     0.53351   0.35495   0.76484   0.00000  Uiso   1.00
C968   C     0.50035   0.37565   0.74573   0.00000  Uiso   1.00
C969   C     0.46719   0.35340   0.72709   0.00000  Uiso   1.00
C970   C     0.46575   0.64422   0.73310   0.00000  Uiso   1.00
C971   C     0.49959   0.62401   0.75091   0.00000  Uiso   1.00
C972   C     0.65247   0.47601   0.71492   0.00000  Uiso   1.00
C973   C     0.36722   0.47636   0.71458   0.00000  Uiso   1.00
C974   C     0.47916   0.51320   0.99116   0.00000  Uiso   1.00
C975   C     0.34770   0.52444   0.78453   0.00000  Uiso   1.00
C976   C     0.63320   0.52473   0.78408   0.00000  Uiso   1.00
C977   C     0.50032   0.41994   0.74792   0.00000  Uiso   1.00
C978   C     0.52590   0.50522   0.64856   0.00000  Uiso   1.00
C979   C     0.59671   0.53957   0.50576   0.00000  Uiso   1.00
C980   C     0.54003   0.51912   0.59210   0.00000  Uiso   1.00
C981   C     0.41583   0.48359   0.93946   0.00000  Uiso   1.00
C982   C     0.40568   0.47674   0.99407   0.00000  Uiso   1.00
C983   C     0.43748   0.49051   0.51969   0.00000  Uiso   1.00
C984   C     0.63069   0.52718   0.58014   0.00000  Uiso   1.00
C985   C     0.48876   0.52141   0.93627   0.00000  Uiso   1.00
C986   C     0.63174   0.56576   0.61308   0.00000  Uiso   1.00
C987   C     0.43468   0.37247   0.69855   0.00000  Uiso   1.00
C988   C     0.46351   0.39086   0.64406   0.00000  Uiso   1.00
C989   C     0.45840   0.55234   0.60001   0.00000  Uiso   1.00
C990   C     0.47299   0.59456   0.61567   0.00000  Uiso   1.00
C991   C     0.51358   0.52519   0.51516   0.00000  Uiso   1.00
C992   C     0.55964   0.53791   0.98336   0.00000  Uiso   1.00
C993   C     0.56673   0.55048   0.93071   0.00000  Uiso   1.00
C994   C     0.52988   0.54527   0.90886   0.00000  Uiso   1.00
C995   C     0.50275   0.52713   0.57024   0.00000  Uiso   1.00
C996   C     0.58825   0.52740   0.55943   0.00000  Uiso   1.00
H997   H     0.43914   0.62658   0.72192   0.00000  Uiso   1.00
H998   H     0.55971   0.62998   0.78091   0.00000  Uiso   1.00
H999   H     0.63771   0.59392   0.58704   0.00000  Uiso   1.00
H1000  H     0.59773   0.56946   0.64624   0.00000  Uiso   1.00
H1001  H     0.66152   0.56328   0.63024   0.00000  Uiso   1.00
H1002  H     0.63148   0.49825   0.60293   0.00000  Uiso   1.00
H1003  H     0.66460   0.52732   0.54616   0.00000  Uiso   1.00
H1004  H     0.55909   0.37159   0.77903   0.00000  Uiso   1.00
H1005  H     0.48721   0.41651   0.64827   0.00000  Uiso   1.00
H1006  H     0.48579   0.36642   0.61867   0.00000  Uiso   1.00
H1007  H     0.43876   0.40320   0.62353   0.00000  Uiso   1.00
H1008  H     0.39344   0.45802   0.68571   0.00000  Uiso   1.00
H1009  H     0.41030   0.34860   0.69092   0.00000  Uiso   1.00
H1010  H     0.41022   0.39545   0.72390   0.00000  Uiso   1.00
H1011  H     0.64212   0.45685   0.68689   0.00000  Uiso   1.00
H1012  H     0.60778   0.54505   0.81058   0.00000  Uiso   1.00
H1013  H     0.44046   0.61308   0.63464   0.00000  Uiso   1.00
H1014  H     0.49372   0.59080   0.64384   0.00000  Uiso   1.00
H1015  H     0.49544   0.61171   0.57955   0.00000  Uiso   1.00
H1016  H     0.43618   0.55925   0.57397   0.00000  Uiso   1.00
H1017  H     0.43356   0.53592   0.63495   0.00000  Uiso   1.00
H1018  H     0.35819   0.54400   0.81210   0.00000  Uiso   1.00
H1019  H     0.60018   0.56481   0.90695   0.00000  Uiso   1.00
H1020  H     0.63234   0.54896   0.98103   0.00000  Uiso   1.00
H1021  H     0.39211   0.47041   0.91968   0.00000  Uiso   1.00
H1022  H     0.42991   0.48226   0.56150   0.00000  Uiso   1.00
H1023  H     0.37400   0.45923   0.51624   0.00000  Uiso   1.00
H1024  H     0.53459   0.55867   0.86980   0.00000  Uiso   1.00
N1025  N     0.38093   0.50001   0.75002   0.00000  Uiso   1.00
N1026  N     0.61906   0.49998   0.75001   0.00000  Uiso   1.00
O1027  O     0.46179   0.56108   0.75001   0.00000  Uiso   1.00
O1028  O     0.53823   0.56107   0.75001   0.00000  Uiso   1.00
O1029  O     0.44280   0.50000   0.82681   0.00000  Uiso   1.00
O1030  O     0.51924   0.49999   0.82681   0.00000  Uiso   1.00
O1031  O     0.46177   0.43893   0.75000   0.00000  Uiso   1.00
O1032  O     0.53821   0.43892   0.75000   0.00000  Uiso   1.00
O1033  O     0.48076   0.50001   0.67319   0.00000  Uiso   1.00
O1034  O     0.55720   0.50000   0.67319   0.00000  Uiso   1.00
Zn1035 Zn    0.44896   0.50001   0.75000   0.00000  Uiso   1.00
Zn1036 Zn    0.55104   0.49999   0.75000   0.00000  Uiso   1.00
C1037  C     0.83308   0.57998   0.75120   0.00000  Uiso   1.00
C1038  C     0.79147   0.50430   0.91000   0.00000  Uiso   1.00
C1039  C     0.86704   0.64575   0.76650   0.00000  Uiso   1.00
C1040  C     0.80726   0.50180   0.85180   0.00000  Uiso   1.00
C1041  C     0.86685   0.35495   0.76484   0.00000  Uiso   1.00
C1042  C     0.83368   0.37565   0.74573   0.00000  Uiso   1.00
C1043  C     0.80052   0.35340   0.72709   0.00000  Uiso   1.00
C1044  C     0.79909   0.64422   0.73310   0.00000  Uiso   1.00
C1045  C     0.83293   0.62401   0.75091   0.00000  Uiso   1.00
C1046  C     0.98581   0.47601   0.71492   0.00000  Uiso   1.00
C1047  C     0.70055   0.47636   0.71458   0.00000  Uiso   1.00
C1048  C     0.81250   0.51320   0.99116   0.00000  Uiso   1.00
C1049  C     0.68103   0.52444   0.78453   0.00000  Uiso   1.00
C1050  C     0.96654   0.52473   0.78408   0.00000  Uiso   1.00
C1051  C     0.83365   0.41994   0.74792   0.00000  Uiso   1.00
C1052  C     0.85924   0.50522   0.64856   0.00000  Uiso   1.00
C1053  C     0.93004   0.53957   0.50576   0.00000  Uiso   1.00
C1054  C     0.87337   0.51912   0.59210   0.00000  Uiso   1.00
C1055  C     0.74916   0.48359   0.93946   0.00000  Uiso   1.00
C1056  C     0.73902   0.47674   0.99407   0.00000  Uiso   1.00
C1057  C     0.77081   0.49051   0.51969   0.00000  Uiso   1.00
C1058  C     0.96402   0.52718   0.58014   0.00000  Uiso   1.00
C1059  C     0.82209   0.52141   0.93627   0.00000  Uiso   1.00
C1060  C     0.96507   0.56576   0.61308   0.00000  Uiso   1.00
C1061  C     0.76801   0.37247   0.69855   0.00000  Uiso   1.00
C1062  C     0.79685   0.39086   0.64406   0.00000  Uiso   1.00
C1063  C     0.79173   0.55234   0.60001   0.00000  Uiso   1.00
C1064  C     0.80632   0.59456   0.61567   0.00000  Uiso   1.00
C1065  C     0.84692   0.52519   0.51516   0.00000  Uiso   1.00
C1066  C     0.89298   0.53791   0.98336   0.00000  Uiso   1.00
C1067  C     0.90006   0.55048   0.93071   0.00000  Uiso   1.00
C1068  C     0.86321   0.54527   0.90886   0.00000  Uiso   1.00
C1069  C     0.83608   0.52713   0.57024   0.00000  Uiso   1.00
C1070  C     0.92158   0.52740   0.55943   0.00000  Uiso   1.00
H1071  H     0.77247   0.62658   0.72192   0.00000  Uiso   1.00
H1072  H     0.89304   0.62998   0.78091   0.00000  Uiso   1.00
H1073  H     0.97105   0.59392   0.58704   0.00000  Uiso   1.00
H1074  H     0.93106   0.56946   0.64624   0.00000  Uiso   1.00
H1075  H     0.99485   0.56328   0.63024   0.00000  Uiso   1.00
H1076  H     0.96482   0.49825   0.60293   0.00000  Uiso   1.00
H1077  H     0.99793   0.52732   0.54616   0.00000  Uiso   1.00
H1078  H     0.89243   0.37159   0.77903   0.00000  Uiso   1.00
H1079  H     0.82054   0.41651   0.64827   0.00000  Uiso   1.00
H1080  H     0.81913   0.36642   0.61867   0.00000  Uiso   1.00
H1081  H     0.77209   0.40320   0.62353   0.00000  Uiso   1.00
H1082  H     0.72678   0.45802   0.68571   0.00000  Uiso   1.00
H1083  H     0.74363   0.34860   0.69092   0.00000  Uiso   1.00
H1084  H     0.74356   0.39545   0.72390   0.00000  Uiso   1.00
H1085  H     0.97545   0.45685   0.68689   0.00000  Uiso   1.00
H1086  H     0.94112   0.54505   0.81058   0.00000  Uiso   1.00
H1087  H     0.77379   0.61308   0.63464   0.00000  Uiso   1.00
H1088  H     0.82705   0.59080   0.64384   0.00000  Uiso   1.00
H1089  H     0.82877   0.61171   0.57955   0.00000  Uiso   1.00
H1090  H     0.76951   0.55925   0.57397   0.00000  Uiso   1.00
H1091  H     0.76689   0.53592   0.63495   0.00000  Uiso   1.00
H1092  H     0.69152   0.54400   0.81210   0.00000  Uiso   1.00
H1093  H     0.93351   0.56481   0.90695   0.00000  Uiso   1.00
H1094  H     0.96567   0.54896   0.98103   0.00000  Uiso   1.00
H1095  H     0.72544   0.47041   0.91968   0.00000  Uiso   1.00
H1096  H     0.76324   0.48226   0.56150   0.00000  Uiso   1.00
H1097  H     0.70734   0.45923   0.51624   0.00000  Uiso   1.00
H1098  H     0.86792   0.55867   0.86980   0.00000  Uiso   1.00
N1099  N     0.71426   0.50001   0.75002   0.00000  Uiso   1.00
N1100  N     0.95239   0.49998   0.75001   0.00000  Uiso   1.00
O1101  O     0.79512   0.56108   0.75001   0.00000  Uiso   1.00
O1102  O     0.87157   0.56107   0.75001   0.00000  Uiso   1.00
O1103  O     0.77613   0.50000   0.82681   0.00000  Uiso   1.00
O1104  O     0.85258   0.49999   0.82681   0.00000  Uiso   1.00
O1105  O     0.79510   0.43893   0.75000   0.00000  Uiso   1.00
O1106  O     0.87154   0.43892   0.75000   0.00000  Uiso   1.00
O1107  O     0.81409   0.50001   0.67319   0.00000  Uiso   1.00
O1108  O     0.89053   0.50000   0.67319   0.00000  Uiso   1.00
Zn1109 Zn    0.78229   0.50001   0.75000   0.00000  Uiso   1.00
Zn1110 Zn    0.88438   0.49999   0.75000   0.00000  Uiso   1.00
C1111  C     0.16642   0.91332   0.75120   0.00000  Uiso   1.00
C1112  C     0.12480   0.83764   0.91000   0.00000  Uiso   1.00
C1113  C     0.20037   0.97909   0.76650   0.00000  Uiso   1.00
C1114  C     0.14059   0.83514   0.85180   0.00000  Uiso   1.00
C1115  C     0.20018   0.68828   0.76484   0.00000  Uiso   1.00
C1116  C     0.16702   0.70898   0.74573   0.00000  Uiso   1.00
C1117  C     0.13386   0.68674   0.72709   0.00000  Uiso   1.00
C1118  C     0.13242   0.97755   0.73310   0.00000  Uiso   1.00
C1119  C     0.16626   0.95734   0.75091   0.00000  Uiso   1.00
C1120  C     0.31914   0.80934   0.71492   0.00000  Uiso   1.00
C1121  C     0.03389   0.80969   0.71458   0.00000  Uiso   1.00
C1122  C     0.14583   0.84654   0.99116   0.00000  Uiso   1.00
C1123  C     0.01436   0.85777   0.78453   0.00000  Uiso   1.00
C1124  C     0.29987   0.85807   0.78408   0.00000  Uiso   1.00
C1125  C     0.16698   0.75327   0.74792   0.00000  Uiso   1.00
C1126  C     0.19257   0.83856   0.64856   0.00000  Uiso   1.00
C1127  C     0.26337   0.87290   0.50576   0.00000  Uiso   1.00
C1128  C     0.20670   0.85245   0.59210   0.00000  Uiso   1.00
C1129  C     0.08250   0.81693   0.93946   0.00000  Uiso   1.00
C1130  C     0.07235   0.81007   0.99407   0.00000  Uiso   1.00
C1131  C     0.10415   0.82384   0.51969   0.00000  Uiso   1.00
C1132  C     0.29735   0.86051   0.58014   0.00000  Uiso   1.00
C1133  C     0.15543   0.85474   0.93627   0.00000  Uiso   1.00
C1134  C     0.29840   0.89909   0.61308   0.00000  Uiso   1.00
C1135  C     0.10134   0.70580   0.69855   0.00000  Uiso   1.00
C1136  C     0.13018   0.72419   0.64406   0.00000  Uiso   1.00
C1137  C     0.12506   0.88567   0.60001   0.00000  Uiso   1.00
C1138  C     0.13965   0.92789   0.61567   0.00000  Uiso   1.00
C1139  C     0.18025   0.85853   0.51516   0.00000  Uiso   1.00
C1140  C     0.22631   0.87125   0.98336   0.00000  Uiso   1.00
C1141  C     0.23340   0.88381   0.93071   0.00000  Uiso   1.00
C1142  C     0.19654   0.87860   0.90886   0.00000  Uiso   1.00
C1143  C     0.16942   0.86046   0.57024   0.00000  Uiso   1.00
C1144  C     0.25492   0.86073   0.55943   0.00000  Uiso   1.00
H1145  H     0.10581   0.95991   0.72192   0.00000  Uiso   1.00
H1146  H     0.22638   0.96331   0.78091   0.00000  Uiso   1.00
H1147  H     0.30438   0.92725   0.58704   0.00000  Uiso   1.00
H1148  H     0.26440   0.90280   0.64624   0.00000  Uiso   1.00
H1149  H     0.32819   0.89661   0.63024   0.00000  Uiso   1.00
H1150  H     0.29815   0.83158   0.60293   0.00000  Uiso   1.00
H1151  H     0.33126   0.86066   0.54616   0.00000  Uiso   1.00
H1152  H     0.22576   0.70492   0.77903   0.00000  Uiso   1.00
H1153  H     0.15387   0.74984   0.64827   0.00000  Uiso   1.00
H1154  H     0.15246   0.69976   0.61867   0.00000  Uiso   1.00
H1155  H     0.10542   0.73653   0.62353   0.00000  Uiso   1.00
H1156  H     0.06011   0.79135   0.68571   0.00000  Uiso   1.00
H1157  H     0.07696   0.68194   0.69092   0.00000  Uiso   1.00
H1158  H     0.07689   0.72879   0.72390   0.00000  Uiso   1.00
H1159  H     0.30878   0.79019   0.68689   0.00000  Uiso   1.00
H1160  H     0.27445   0.87838   0.81058   0.00000  Uiso   1.00
H1161  H     0.10713   0.94641   0.63464   0.00000  Uiso   1.00
H1162  H     0.16038   0.92413   0.64384   0.00000  Uiso   1.00
H1163  H     0.16211   0.94505   0.57955   0.00000  Uiso   1.00
H1164  H     0.10285   0.89259   0.57397   0.00000  Uiso   1.00
H1165  H     0.10023   0.86926   0.63495   0.00000  Uiso   1.00
H1166  H     0.02486   0.87734   0.81210   0.00000  Uiso   1.00
H1167  H     0.26685   0.89815   0.90695   0.00000  Uiso   1.00
H1168  H     0.29901   0.88229   0.98103   0.00000  Uiso   1.00
H1169  H     0.05878   0.80374   0.91968   0.00000  Uiso   1.00
H1170  H     0.09658   0.81559   0.56150   0.00000  Uiso   1.00
H1171  H     0.04067   0.79256   0.51624   0.00000  Uiso   1.00
H1172  H     0.20125   0.89200   0.86980   0.00000  Uiso   1.00
N1173  N     0.04760   0.83334   0.75002   0.00000  Uiso   1.00
N1174  N     0.28573   0.83331   0.75001   0.00000  Uiso   1.00
O1175  O     0.12846   0.89442   0.75001   0.00000  Uiso   1.00
O1176  O     0.20490   0.89441   0.75001   0.00000  Uiso   1.00
O1177  O     0.10947   0.83333   0.82681   0.00000  Uiso   1.00
O1178  O     0.18591   0.83332   0.82681   0.00000  Uiso   1.00
O1179  O     0.12843   0.77226   0.75000   0.00000  Uiso   1.00
O1180  O     0.20488   0.77225   0.75000   0.00000  Uiso   1.00
O1181  O     0.14742   0.83335   0.67319   0.00000  Uiso   1.00
O1182  O     0.22387   0.83334   0.67319   0.00000  Uiso   1.00
Zn1183 Zn    0.11562   0.83334   0.75000   0.00000  Uiso   1.00
Zn1184 Zn    0.21771   0.83333   0.75000   0.00000  Uiso   1.00
C1185  C     0.49975   0.91332   0.75120   0.00000  Uiso   1.00
C1186  C     0.45814   0.83764   0.91000   0.00000  Uiso   1.00
C1187  C     0.53370   0.97909   0.76650   0.00000  Uiso   1.00
C1188  C     0.47392   0.83514   0.85180   0.00000  Uiso   1.00
C1189  C     0.53351   0.68828   0.76484   0.00000  Uiso   1.00
C1190  C     0.50035   0.70898   0.74573   0.00000  Uiso   1.00
C1191  C     0.46719   0.68674   0.72709   0.00000  Uiso   1.00
C1192  C     0.46575   0.97755   0.73310   0.00000  Uiso   1.00
C1193  C     0.49959   0.95734   0.75091   0.00000  Uiso   1.00
C1194  C     0.65247   0.80934   0.71492   0.00000  Uiso   1.00
C1195  C     0.36722   0.80969   0.71458   0.00000  Uiso   1.00
C1196  C     0.47916   0.84654   0.99116   0.00000  Uiso   1.00
C1197  C     0.34770   0.85777   0.78453   0.00000  Uiso   1.00
C1198  C     0.63320   0.85807   0.78408   0.00000  Uiso   1.00
C1199  C     0.50032   0.75327   0.74792   0.00000  Uiso   1.00
C1200  C     0.52590   0.83856   0.64856   0.00000  Uiso   1.00
C1201  C     0.59671   0.87290   0.50576   0.00000  Uiso   1.00
C1202  C     0.54003   0.85245   0.59210   0.00000  Uiso   1.00
C1203  C     0.41583   0.81693   0.93946   0.00000  Uiso   1.00
C1204  C     0.40568   0.81007   0.99407   0.00000  Uiso   1.00
C1205  C     0.43748   0.82384   0.51969   0.00000  Uiso   1.00
C1206  C     0.63069   0.86051   0.58014   0.00000  Uiso   1.00
C1207  C     0.48876   0.85474   0.93627   0.00000  Uiso   1.00
C1208  C     0.63174   0.89909   0.61308   0.00000  Uiso   1.00
C1209  C     0.43468   0.70580   0.69855   0.00000  Uiso   1.00
C1210  C     0.46351   0.72419   0.64406   0.00000  Uiso   1.00
C1211  C     0.45840   0.88567   0.60001   0.00000  Uiso   1.00
C1212  C     0.47299   0.92789   0.61567   0.00000  Uiso   1.00
C1213  C     0.51358   0.85853   0.51516   0.00000  Uiso   1.00
C1214  C     0.55964   0.87125   0.98336   0.00000  Uiso   1.00
C1215  C     0.56673   0.88381   0.93071   0.00000  Uiso   1.00
C1216  C     0.52988   0.87860   0.90886   0.00000  Uiso   1.00
C1217  C     0.50275   0.86046   0.57024   0.00000  Uiso   1.00
C1218  C     0.58825   0.86073   0.55943   0.00000  Uiso   1.00
H1219  H     0.43914   0.95991   0.72192   0.00000  Uiso   1.00
H1220  H     0.55971   0.96331   0.78091   0.00000  Uiso   1.00
H1221  H     0.63771   0.92725   0.58704   0.00000  Uiso   1.00
H1222  H     0.59773   0.90280   0.64624   0.00000  Uiso   1.00
H1223  H     0.66152   0.89661   0.63024   0.00000  Uiso   1.00
H1224  H     0.63148   0.83158   0.60293   0.00000  Uiso   1.00
H1225  H     0.66460   0.86066   0.54616   0.00000  Uiso   1.00
H1226  H     0.55909   0.70492   0.77903   0.00000  Uiso   1.00
H1227  H     0.48721   0.74984   0.64827   0.00000  Uiso   1.00
H1228  H     0.48579   0.69976   0.61867   0.00000  Uiso   1.00
H1229  H     0.43876   0.73653   0.62353   0.00000  Uiso   1.00
H1230  H     0.39344   0.79135   0.68571   0.00000  Uiso   1.00
H1231  H     0.41030   0.68194   0.69092   0.00000  Uiso   1.00
H1232  H     0.41022   0.72879   0.72390   0.00000  Uiso   1.00
H1233  H     0.64212   0.79019   0.68689   0.00000  Uiso   1.00
H1234  H     0.60778   0.87838   0.81058   0.00000  Uiso   1.00
H1235  H     0.44046   0.94641   0.63464   0.00000  Uiso   1.00
H1236  H     0.49372   0.92413   0.64384   0.00000  Uiso   1.00
H1237  H     0.49544   0.94505   0.57955   0.00000  Uiso   1.00
H1238  H     0.43618   0.89259   0.57397   0.00000  Uiso   1.00
H1239  H     0.43356   0.86926   0.63495   0.00000  Uiso   1.00
H1240  H     0.35819   0.87734   0.81210   0.00000  Uiso   1.00
H1241  H     0.60018   0.89815   0.90695   0.00000  Uiso   1.00
H1242  H     0.63234   0.88229   0.98103   0.00000  Uiso   1.00
H1243  H     0.39211   0.80374   0.91968   0.00000  Uiso   1.00
H1244  H     0.42991   0.81559   0.56150   0.00000  Uiso   1.00
H1245  H     0.37400   0.79256   0.51624   0.00000  Uiso   1.00
H1246  H     0.53459   0.89200   0.86980   0.00000  Uiso   1.00
N1247  N     0.38093   0.83334   0.75002   0.00000  Uiso   1.00
N1248  N     0.61906   0.83331   0.75001   0.00000  Uiso   1.00
O1249  O     0.46179   0.89442   0.75001   0.00000  Uiso   1.00
O1250  O     0.53823   0.89441   0.75001   0.00000  Uiso   1.00
O1251  O     0.44280   0.83333   0.82681   0.00000  Uiso   1.00
O1252  O     0.51924   0.83332   0.82681   0.00000  Uiso   1.00
O1253  O     0.46177   0.77226   0.75000   0.00000  Uiso   1.00
O1254  O     0.53821   0.77225   0.75000   0.00000  Uiso   1.00
O1255  O     0.48076   0.83335   0.67319   0.00000  Uiso   1.00
O1256  O     0.55720   0.83334   0.67319   0.00000  Uiso   1.00
Zn1257 Zn    0.44896   0.83334   0.75000   0.00000  Uiso   1.00
Zn1258 Zn    0.55104   0.83333   0.75000   0.00000  Uiso   1.00
C1259  C     0.83308   0.91332   0.75120   0.00000  Uiso   1.00
C1260  C     0.79147   0.83764   0.91000   0.00000  Uiso   1.00
C1261  C     0.86704   0.97909   0.76650   0.00000  Uiso   1.00
C1262  C     0.80726   0.83514   0.85180   0.00000  Uiso   1.00
C1263  C     0.86685   0.68828   0.76484   0.00000  Uiso   1.00
C1264  C     0.83368   0.70898   0.74573   0.00000  Uiso   1.00
C1265  C     0.80052   0.68674   0.72709   0.00000  Uiso   1.00
C1266  C     0.79909   0.97755   0.73310   0.00000  Uiso   1.00
C1267  C     0.83293   0.95734   0.75091   0.00000  Uiso   1.00
C1268  C     0.98581   0.80934   0.71492   0.00000  Uiso   1.00
C1269  C     0.70055   0.80969   0.71458   0.00000  Uiso   1.00
C1270  C     0.81250   0.84654   0.99116   0.00000  Uiso   1.00
C1271  C     0.68103   0.85777   0.78453   0.00000  Uiso   1.00
C1272  C     0.96654   0.85807   0.78408   0.00000  Uiso   1.00
C1273  C     0.83365   0.75327   0.74792   0.00000  Uiso   1.00
C1274  C     0.85924   0.83856   0.64856   0.00000  Uiso   1.00
C1275  C     0.93004   0.87290   0.50576   0.00000  Uiso   1.00
C1276  C     0.87337   0.85245   0.59210   0.00000  Uiso   1.00
C1277  C     0.74916   0.81693   0.93946   0.00000  Uiso   1.00
C1278  C     0.73902   0.81007   0.99407   0.00000  Uiso   1.00
C1279  C     0.77081   0.82384   0.51969   0.00000  Uiso   1.00
C1280  C     0.96402   0.86051   0.58014   0.00000  Uiso   1.00
C1281  C     0.82209   0.85474   0.93627   0.00000  Uiso   1.00
C1282  C     0.96507   0.89909   0.61308   0.00000  Uiso   1.00
C1283  C     0.76801   0.70580   0.69855   0.00000  Uiso   1.00
C1284  C     0.79685   0.72419   0.64406   0.00000  Uiso   1.00
C1285  C     0.79173   0.88567   0.60001   0.00000  Uiso   1.00
C1286  C     0.80632   0.92789   0.61567   0.00000  Uiso   1.00
C1287  C     0.84692   0.85853   0.51516   0.00000  Uiso   1.00
C1288  C     0.89298   0.87125   0.98336   0.00000  Uiso   1.00
C1289  C     0.90006   0.88381   0.93071   0.00000  Uiso   1.00
C1290  C     0.86321   0.87860   0.90886   0.00000  Uiso   1.00
C1291  C     0.83608   0.86046   0.57024   0.00000  Uiso   1.00
C1292  C     0.92158   0.86073   0.55943   0.00000  Uiso   1.00
H1293  H     0.77247   0.95991   0.72192   0.00000  Uiso   1.00
H1294  H     0.89304   0.96331   0.78091   0.00000  Uiso   1.00
H1295  H     0.97105   0.92725   0.58704   0.00000  Uiso   1.00
H1296  H     0.93106   0.90280   0.64624   0.00000  Uiso   1.00
H1297  H     0.99485   0.89661   0.63024   0.00000  Uiso   1.00
H1298  H     0.96482   0.83158   0.60293   0.00000  Uiso   1.00
H1299  H     0.99793   0.86066   0.54616   0.00000  Uiso   1.00
H1300  H     0.89243   0.70492   0.77903   0.00000  Uiso   1.00
H1301  H     0.82054   0.74984   0.64827   0.00000  Uiso   1.00
H1302  H     0.81913   0.69976   0.61867   0.00000  Uiso   1.00
H1303  H     0.77209   0.73653   0.62353   0.00000  Uiso   1.00
H1304  H     0.72678   0.79135   0.68571   0.00000  Uiso   1.00
H1305  H     0.74363   0.68194   0.69092   0.00000  Uiso   1.00
H1306  H     0.74356   0.72879   0.72390   0.00000  Uiso   1.00
H1307  H     0.97545   0.79019   0.68689   0.00000  Uiso   1.00
H1308  H     0.94112   0.87838   0.81058   0.00000  Uiso   1.00
H1309  H     0.77379   0.94641   0.63464   0.00000  Uiso   1.00
H1310  H     0.82705   0.92413   0.64384   0.00000  Uiso   1.00
H1311  H     0.82877   0.94505   0.57955   0.00000  Uiso   1.00
H1312  H     0.76951   0.89259   0.57397   0.00000  Uiso   1.00
H1313  H     0.76689   0.86926   0.63495   0.00000  Uiso   1.00
H1314  H     0.69152   0.87734   0.81210   0.00000  Uiso   1.00
H1315  H     0.93351   0.89815   0.90695   0.00000  Uiso   1.00
H1316  H     0.96567   0.88229   0.98103   0.00000  Uiso   1.00
H1317  H     0.72544   0.80374   0.91968   0.00000  Uiso   1.00
H1318  H     0.76324   0.81559   0.56150   0.00000  Uiso   1.00
H1319  H     0.70734   0.79256   0.51624   0.00000  Uiso   1.00
H1320  H     0.86792   0.89200   0.86980   0.00000  Uiso   1.00
N1321  N     0.71426   0.83334   0.75002   0.00000  Uiso   1.00
N1322  N     0.95239   0.83331   0.75001   0.00000  Uiso   1.00
O1323  O     0.79512   0.89442   0.75001   0.00000  Uiso   1.00
O1324  O     0.87157   0.89441   0.75001   0.00000  Uiso   1.00
O1325  O     0.77613   0.83333   0.82681   0.00000  Uiso   1.00
O1326  O     0.85258   0.83332   0.82681   0.00000  Uiso   1.00
O1327  O     0.79510   0.77226   0.75000   0.00000  Uiso   1.00
O1328  O     0.87154   0.77225   0.75000   0.00000  Uiso   1.00
O1329  O     0.81409   0.83335   0.67319   0.00000  Uiso   1.00
O1330  O     0.89053   0.83334   0.67319   0.00000  Uiso   1.00
Zn1331 Zn    0.78229   0.83334   0.75000   0.00000  Uiso   1.00
Zn1332 Zn    0.88438   0.83333   0.75000   0.00000  Uiso   1.00
loop_
_geom_bond_atom_site_label_1
_geom_bond_atom_site_label_2
_geom_bond_distance
_geom_bond_site_symmetry_2
_ccdc_geom_bond_type
C1     O66     1.282   .     A
C1     O65     1.280   .     A
C1     C9      1.418   .     S
C2     C4      1.458   .     S
C2     C23     1.413   .     A
C2     C19     1.403   .     A
C3     C9      1.390   .     A
C3     H36     1.084   .     S
C3     C227    1.370   .     S
C4     O67     1.290   .     A
C4     O68     1.289   .     A
C5     H42     1.084   .     S
C5     C6      1.402   .     A
C5     C447    1.370   1_545 S
C6     C15     1.428   .     S
C6     C7      1.419   .     A
C7     C25     1.522   .     S
C7     C452    1.376   1_545 S
C8     C9      1.392   .     A
C8     H35     1.082   .     S
C8     C229    1.376   .     S
C10    H49     1.082   .     S
C10    N64     1.365   .     A
C10    C85     1.414   .     S
C11    N63     1.366   .     A
C11    H46     1.079   .     S
C11    C158    1.414   1_455 S
C12    C23     1.405   .     A
C12    C687    1.415   .     S
C12    C695    1.409   .     S
C13    H56     1.082   .     S
C13    N63     1.364   .     A
C13    C162    1.413   1_455 S
C14    N64     1.366   .     A
C14    H50     1.076   .     S
C14    C87     1.413   .     S
C15    O69     1.279   .     A
C15    O70     1.287   .     A
C16    O72     1.296   .     A
C16    O71     1.290   .     A
C16    C18     1.476   .     S
C17    C34     1.407   .     A
C17    C696    1.398   1_554 S
C17    H724    1.085   1_554 S
C18    C34     1.430   .     A
C18    C33     1.417   .     A
C19    H59     1.083   .     S
C19    C20     1.389   .     A
C20    C687    1.391   .     S
C20    H727    1.083   .     S
C21    H60     1.083   .     S
C21    C686    1.391   1_554 S
C21    C678    1.415   1_554 S
C22    H40     1.108   .     S
C22    C24     1.529   .     S
C22    C34     1.515   .     S
C22    H41     1.109   .     S
C23    C32     1.415   .     A
C24    H38     1.108   .     S
C24    H37     1.111   .     S
C24    H39     1.111   .     S
C25    H47     1.112   .     S
C25    H48     1.106   .     S
C25    C26     1.529   .     S
C26    H43     1.108   .     S
C26    H44     1.111   .     S
C26    H45     1.110   .     S
C27    H54     1.111   .     S
C27    C33     1.534   .     S
C27    H55     1.105   .     S
C27    C28     1.524   .     S
C28    H52     1.108   .     S
C28    H53     1.111   .     S
C28    H51     1.109   .     S
C29    C33     1.386   .     A
C29    C678    1.409   1_554 S
C29    C696    1.406   1_554 S
C30    C31     1.392   .     A
C30    C683    1.398   .     S
C30    C695    1.406   .     S
C31    C32     1.392   .     A
C31    H57     1.084   .     S
C32    H62     1.080   .     S
H58    C683    1.085   .     S
H61    C686    1.083   1_554 S
N63    Zn73    2.004   .     S
N64    Zn74    2.004   .     S
O65    Zn73    2.002   .     S
O66    Zn74    2.005   .     S
O67    Zn73    1.974   .     S
O68    Zn74    1.942   .     S
O69    Zn73    2.005   .     S
O70    Zn74    2.002   .     S
O71    Zn73    1.942   .     S
O72    Zn74    1.974   .     S
C75    O140    1.282   .     A
C75    O139    1.280   .     A
C75    C83     1.418   .     S
C76    C78     1.458   .     S
C76    C97     1.413   .     A
C76    C93     1.403   .     A
C77    C83     1.390   .     A
C77    H110    1.084   .     S
C77    C301    1.370   .     S
C78    O141    1.290   .     A
C78    O142    1.289   .     A
C79    H116    1.084   .     S
C79    C80     1.402   .     A
C79    C521    1.370   1_545 S
C80    C89     1.428   .     S
C80    C81     1.419   .     A
C81    C99     1.522   .     S
C81    C526    1.376   1_545 S
C82    C83     1.392   .     A
C82    H109    1.082   .     S
C82    C303    1.376   .     S
C84    H123    1.082   .     S
C84    N138    1.365   .     A
C84    C159    1.414   .     S
C85    N137    1.366   .     A
C85    H120    1.079   .     S
C86    C97     1.405   .     A
C86    C761    1.415   .     S
C86    C769    1.409   .     S
C87    H130    1.082   .     S
C87    N137    1.364   .     A
C88    N138    1.366   .     A
C88    H124    1.076   .     S
C88    C161    1.413   .     S
C89    O143    1.279   .     A
C89    O144    1.287   .     A
C90    O146    1.296   .     A
C90    O145    1.290   .     A
C90    C92     1.476   .     S
C91    C108    1.407   .     A
C91    C770    1.398   1_554 S
C91    H798    1.085   1_554 S
C92    C108    1.430   .     A
C92    C107    1.417   .     A
C93    H133    1.083   .     S
C93    C94     1.389   .     A
C94    C761    1.391   .     S
C94    H801    1.083   .     S
C95    H134    1.083   .     S
C95    C760    1.391   1_554 S
C95    C752    1.415   1_554 S
C96    H114    1.108   .     S
C96    C98     1.529   .     S
C96    C108    1.515   .     S
C96    H115    1.109   .     S
C97    C106    1.415   .     A
C98    H112    1.108   .     S
C98    H111    1.111   .     S
C98    H113    1.111   .     S
C99    H121    1.112   .     S
C99    H122    1.106   .     S
C99    C100    1.529   .     S
C100   H117    1.108   .     S
C100   H118    1.111   .     S
C100   H119    1.110   .     S
C101   H128    1.111   .     S
C101   C107    1.534   .     S
C101   H129    1.105   .     S
C101   C102    1.524   .     S
C102   H126    1.108   .     S
C102   H127    1.111   .     S
C102   H125    1.109   .     S
C103   C107    1.386   .     A
C103   C752    1.409   1_554 S
C103   C770    1.406   1_554 S
C104   C105    1.392   .     A
C104   C757    1.398   .     S
C104   C769    1.406   .     S
C105   C106    1.392   .     A
C105   H131    1.084   .     S
C106   H136    1.080   .     S
H132   C757    1.085   .     S
H135   C760    1.083   1_554 S
N137   Zn147   2.004   .     S
N138   Zn148   2.004   .     S
O139   Zn147   2.002   .     S
O140   Zn148   2.005   .     S
O141   Zn147   1.974   .     S
O142   Zn148   1.942   .     S
O143   Zn147   2.005   .     S
O144   Zn148   2.002   .     S
O145   Zn147   1.942   .     S
O146   Zn148   1.974   .     S
C149   O214    1.282   .     A
C149   O213    1.280   .     A
C149   C157    1.418   .     S
C150   C152    1.458   .     S
C150   C171    1.413   .     A
C150   C167    1.403   .     A
C151   C157    1.390   .     A
C151   H184    1.084   .     S
C151   C375    1.370   .     S
C152   O215    1.290   .     A
C152   O216    1.289   .     A
C153   H190    1.084   .     S
C153   C154    1.402   .     A
C153   C595    1.370   1_545 S
C154   C163    1.428   .     S
C154   C155    1.419   .     A
C155   C173    1.522   .     S
C155   C600    1.376   1_545 S
C156   C157    1.392   .     A
C156   H183    1.082   .     S
C156   C377    1.376   .     S
C158   H197    1.082   .     S
C158   N212    1.365   .     A
C158   C11     1.414   1_655 S
C159   N211    1.366   .     A
C159   H194    1.079   .     S
C160   C171    1.405   .     A
C160   C835    1.415   .     S
C160   C843    1.409   .     S
C161   H204    1.082   .     S
C161   N211    1.364   .     A
C162   N212    1.366   .     A
C162   H198    1.076   .     S
C162   C13     1.413   1_655 S
C163   O217    1.279   .     A
C163   O218    1.287   .     A
C164   O220    1.296   .     A
C164   O219    1.290   .     A
C164   C166    1.476   .     S
C165   C182    1.407   .     A
C165   C844    1.398   1_554 S
C165   H872    1.085   1_554 S
C166   C182    1.430   .     A
C166   C181    1.417   .     A
C167   H207    1.083   .     S
C167   C168    1.389   .     A
C168   C835    1.391   .     S
C168   H875    1.083   .     S
C169   H208    1.083   .     S
C169   C834    1.391   1_554 S
C169   C826    1.415   1_554 S
C170   H188    1.108   .     S
C170   C172    1.529   .     S
C170   C182    1.515   .     S
C170   H189    1.109   .     S
C171   C180    1.415   .     A
C172   H186    1.108   .     S
C172   H185    1.111   .     S
C172   H187    1.111   .     S
C173   H195    1.112   .     S
C173   H196    1.106   .     S
C173   C174    1.529   .     S
C174   H191    1.108   .     S
C174   H192    1.111   .     S
C174   H193    1.110   .     S
C175   H202    1.111   .     S
C175   C181    1.534   .     S
C175   H203    1.105   .     S
C175   C176    1.524   .     S
C176   H200    1.108   .     S
C176   H201    1.111   .     S
C176   H199    1.109   .     S
C177   C181    1.386   .     A
C177   C826    1.409   1_554 S
C177   C844    1.406   1_554 S
C178   C179    1.392   .     A
C178   C831    1.398   .     S
C178   C843    1.406   .     S
C179   C180    1.392   .     A
C179   H205    1.084   .     S
C180   H210    1.080   .     S
H206   C831    1.085   .     S
H209   C834    1.083   1_554 S
N211   Zn221   2.004   .     S
N212   Zn222   2.004   .     S
O213   Zn221   2.002   .     S
O214   Zn222   2.005   .     S
O215   Zn221   1.974   .     S
O216   Zn222   1.942   .     S
O217   Zn221   2.005   .     S
O218   Zn222   2.002   .     S
O219   Zn221   1.942   .     S
O220   Zn222   1.974   .     S
C223   O288    1.282   .     A
C223   O287    1.280   .     A
C223   C231    1.418   .     S
C224   C226    1.458   .     S
C224   C245    1.413   .     A
C224   C241    1.403   .     A
C225   C231    1.390   .     A
C225   H258    1.084   .     S
C225   C449    1.370   .     S
C226   O289    1.290   .     A
C226   O290    1.289   .     A
C227   H264    1.084   .     S
C227   C228    1.402   .     A
C228   C237    1.428   .     S
C228   C229    1.419   .     A
C229   C247    1.522   .     S
C230   C231    1.392   .     A
C230   H257    1.082   .     S
C230   C451    1.376   .     S
C232   H271    1.082   .     S
C232   N286    1.365   .     A
C232   C307    1.414   .     S
C233   N285    1.366   .     A
C233   H268    1.079   .     S
C233   C380    1.414   1_455 S
C234   C245    1.405   .     A
C234   C909    1.415   .     S
C234   C917    1.409   .     S
C235   H278    1.082   .     S
C235   N285    1.364   .     A
C235   C384    1.413   1_455 S
C236   N286    1.366   .     A
C236   H272    1.076   .     S
C236   C309    1.413   .     S
C237   O291    1.279   .     A
C237   O292    1.287   .     A
C238   O294    1.296   .     A
C238   O293    1.290   .     A
C238   C240    1.476   .     S
C239   C256    1.407   .     A
C239   C918    1.398   1_554 S
C239   H946    1.085   1_554 S
C240   C256    1.430   .     A
C240   C255    1.417   .     A
C241   H281    1.083   .     S
C241   C242    1.389   .     A
C242   C909    1.391   .     S
C242   H949    1.083   .     S
C243   H282    1.083   .     S
C243   C908    1.391   1_554 S
C243   C900    1.415   1_554 S
C244   H262    1.108   .     S
C244   C246    1.529   .     S
C244   C256    1.515   .     S
C244   H263    1.109   .     S
C245   C254    1.415   .     A
C246   H260    1.108   .     S
C246   H259    1.111   .     S
C246   H261    1.111   .     S
C247   H269    1.112   .     S
C247   H270    1.106   .     S
C247   C248    1.529   .     S
C248   H265    1.108   .     S
C248   H266    1.111   .     S
C248   H267    1.110   .     S
C249   H276    1.111   .     S
C249   C255    1.534   .     S
C249   H277    1.105   .     S
C249   C250    1.524   .     S
C250   H274    1.108   .     S
C250   H275    1.111   .     S
C250   H273    1.109   .     S
C251   C255    1.386   .     A
C251   C900    1.409   1_554 S
C251   C918    1.406   1_554 S
C252   C253    1.392   .     A
C252   C905    1.398   .     S
C252   C917    1.406   .     S
C253   C254    1.392   .     A
C253   H279    1.084   .     S
C254   H284    1.080   .     S
H280   C905    1.085   .     S
H283   C908    1.083   1_554 S
N285   Zn295   2.004   .     S
N286   Zn296   2.004   .     S
O287   Zn295   2.002   .     S
O288   Zn296   2.005   .     S
O289   Zn295   1.974   .     S
O290   Zn296   1.942   .     S
O291   Zn295   2.005   .     S
O292   Zn296   2.002   .     S
O293   Zn295   1.942   .     S
O294   Zn296   1.974   .     S
C297   O362    1.282   .     A
C297   O361    1.280   .     A
C297   C305    1.418   .     S
C298   C300    1.458   .     S
C298   C319    1.413   .     A
C298   C315    1.403   .     A
C299   C305    1.390   .     A
C299   H332    1.084   .     S
C299   C523    1.370   .     S
C300   O363    1.290   .     A
C300   O364    1.289   .     A
C301   H338    1.084   .     S
C301   C302    1.402   .     A
C302   C311    1.428   .     S
C302   C303    1.419   .     A
C303   C321    1.522   .     S
C304   C305    1.392   .     A
C304   H331    1.082   .     S
C304   C525    1.376   .     S
C306   H345    1.082   .     S
C306   N360    1.365   .     A
C306   C381    1.414   .     S
C307   N359    1.366   .     A
C307   H342    1.079   .     S
C308   C319    1.405   .     A
C308   C983    1.415   .     S
C308   C991    1.409   .     S
C309   H352    1.082   .     S
C309   N359    1.364   .     A
C310   N360    1.366   .     A
C310   H346    1.076   .     S
C310   C383    1.413   .     S
C311   O365    1.279   .     A
C311   O366    1.287   .     A
C312   O368    1.296   .     A
C312   O367    1.290   .     A
C312   C314    1.476   .     S
C313   C330    1.407   .     A
C313   C992    1.398   1_554 S
C313   H1020   1.085   1_554 S
C314   C330    1.430   .     A
C314   C329    1.417   .     A
C315   H355    1.083   .     S
C315   C316    1.389   .     A
C316   C983    1.391   .     S
C316   H1023   1.083   .     S
C317   H356    1.083   .     S
C317   C982    1.391   1_554 S
C317   C974    1.415   1_554 S
C318   H336    1.108   .     S
C318   C320    1.529   .     S
C318   C330    1.515   .     S
C318   H337    1.109   .     S
C319   C328    1.415   .     A
C320   H334    1.108   .     S
C320   H333    1.111   .     S
C320   H335    1.111   .     S
C321   H343    1.112   .     S
C321   H344    1.106   .     S
C321   C322    1.529   .     S
C322   H339    1.108   .     S
C322   H340    1.111   .     S
C322   H341    1.110   .     S
C323   H350    1.111   .     S
C323   C329    1.534   .     S
C323   H351    1.105   .     S
C323   C324    1.524   .     S
C324   H348    1.108   .     S
C324   H349    1.111   .     S
C324   H347    1.109   .     S
C325   C329    1.386   .     A
C325   C974    1.409   1_554 S
C325   C992    1.406   1_554 S
C326   C327    1.392   .     A
C326   C979    1.398   .     S
C326   C991    1.406   .     S
C327   C328    1.392   .     A
C327   H353    1.084   .     S
C328   H358    1.080   .     S
H354   C979    1.085   .     S
H357   C982    1.083   1_554 S
N359   Zn369   2.004   .     S
N360   Zn370   2.004   .     S
O361   Zn369   2.002   .     S
O362   Zn370   2.005   .     S
O363   Zn369   1.974   .     S
O364   Zn370   1.942   .     S
O365   Zn369   2.005   .     S
O366   Zn370   2.002   .     S
O367   Zn369   1.942   .     S
O368   Zn370   1.974   .     S
C371   O436    1.282   .     A
C371   O435    1.280   .     A
C371   C379    1.418   .     S
C372   C374    1.458   .     S
C372   C393    1.413   .     A
C372   C389    1.403   .     A
C373   C379    1.390   .     A
C373   H406    1.084   .     S
C373   C597    1.370   .     S
C374   O437    1.290   .     A
C374   O438    1.289   .     A
C375   H412    1.084   .     S
C375   C376    1.402   .     A
C376   C385    1.428   .     S
C376   C377    1.419   .     A
C377   C395    1.522   .     S
C378   C379    1.392   .     A
C378   H405    1.082   .     S
C378   C599    1.376   .     S
C380   H419    1.082   .     S
C380   N434    1.365   .     A
C380   C233    1.414   1_655 S
C381   N433    1.366   .     A
C381   H416    1.079   .     S
C382   C393    1.405   .     A
C382   C1057   1.415   .     S
C382   C1065   1.409   .     S
C383   H426    1.082   .     S
C383   N433    1.364   .     A
C384   N434    1.366   .     A
C384   H420    1.076   .     S
C384   C235    1.413   1_655 S
C385   O439    1.279   .     A
C385   O440    1.287   .     A
C386   O442    1.296   .     A
C386   O441    1.290   .     A
C386   C388    1.476   .     S
C387   C404    1.407   .     A
C387   C1066   1.398   1_554 S
C387   H1094   1.085   1_554 S
C388   C404    1.430   .     A
C388   C403    1.417   .     A
C389   H429    1.083   .     S
C389   C390    1.389   .     A
C390   C1057   1.391   .     S
C390   H1097   1.083   .     S
C391   H430    1.083   .     S
C391   C1056   1.391   1_554 S
C391   C1048   1.415   1_554 S
C392   H410    1.108   .     S
C392   C394    1.529   .     S
C392   C404    1.515   .     S
C392   H411    1.109   .     S
C393   C402    1.415   .     A
C394   H408    1.108   .     S
C394   H407    1.111   .     S
C394   H409    1.111   .     S
C395   H417    1.112   .     S
C395   H418    1.106   .     S
C395   C396    1.529   .     S
C396   H413    1.108   .     S
C396   H414    1.111   .     S
C396   H415    1.110   .     S
C397   H424    1.111   .     S
C397   C403    1.534   .     S
C397   H425    1.105   .     S
C397   C398    1.524   .     S
C398   H422    1.108   .     S
C398   H423    1.111   .     S
C398   H421    1.109   .     S
C399   C403    1.386   .     A
C399   C1048   1.409   1_554 S
C399   C1066   1.406   1_554 S
C400   C401    1.392   .     A
C400   C1053   1.398   .     S
C400   C1065   1.406   .     S
C401   C402    1.392   .     A
C401   H427    1.084   .     S
C402   H432    1.080   .     S
H428   C1053   1.085   .     S
H431   C1056   1.083   1_554 S
N433   Zn443   2.004   .     S
N434   Zn444   2.004   .     S
O435   Zn443   2.002   .     S
O436   Zn444   2.005   .     S
O437   Zn443   1.974   .     S
O438   Zn444   1.942   .     S
O439   Zn443   2.005   .     S
O440   Zn444   2.002   .     S
O441   Zn443   1.942   .     S
O442   Zn444   1.974   .     S
C445   O510    1.282   .     A
C445   O509    1.280   .     A
C445   C453    1.418   .     S
C446   C448    1.458   .     S
C446   C467    1.413   .     A
C446   C463    1.403   .     A
C447   C453    1.390   .     A
C447   H480    1.084   .     S
C447   C5      1.370   1_565 S
C448   O511    1.290   .     A
C448   O512    1.289   .     A
C449   H486    1.084   .     S
C449   C450    1.402   .     A
C450   C459    1.428   .     S
C450   C451    1.419   .     A
C451   C469    1.522   .     S
C452   C453    1.392   .     A
C452   H479    1.082   .     S
C452   C7      1.376   1_565 S
C454   H493    1.082   .     S
C454   N508    1.365   .     A
C454   C529    1.414   .     S
C455   N507    1.366   .     A
C455   H490    1.079   .     S
C455   C602    1.414   1_455 S
C456   C467    1.405   .     A
C456   C1131   1.415   .     S
C456   C1139   1.409   .     S
C457   H500    1.082   .     S
C457   N507    1.364   .     A
C457   C606    1.413   1_455 S
C458   N508    1.366   .     A
C458   H494    1.076   .     S
C458   C531    1.413   .     S
C459   O513    1.279   .     A
C459   O514    1.287   .     A
C460   O516    1.296   .     A
C460   O515    1.290   .     A
C460   C462    1.476   .     S
C461   C478    1.407   .     A
C461   C1140   1.398   1_554 S
C461   H1168   1.085   1_554 S
C462   C478    1.430   .     A
C462   C477    1.417   .     A
C463   H503    1.083   .     S
C463   C464    1.389   .     A
C464   C1131   1.391   .     S
C464   H1171   1.083   .     S
C465   H504    1.083   .     S
C465   C1130   1.391   1_554 S
C465   C1122   1.415   1_554 S
C466   H484    1.108   .     S
C466   C468    1.529   .     S
C466   C478    1.515   .     S
C466   H485    1.109   .     S
C467   C476    1.415   .     A
C468   H482    1.108   .     S
C468   H481    1.111   .     S
C468   H483    1.111   .     S
C469   H491    1.112   .     S
C469   H492    1.106   .     S
C469   C470    1.529   .     S
C470   H487    1.108   .     S
C470   H488    1.111   .     S
C470   H489    1.110   .     S
C471   H498    1.111   .     S
C471   C477    1.534   .     S
C471   H499    1.105   .     S
C471   C472    1.524   .     S
C472   H496    1.108   .     S
C472   H497    1.111   .     S
C472   H495    1.109   .     S
C473   C477    1.386   .     A
C473   C1122   1.409   1_554 S
C473   C1140   1.406   1_554 S
C474   C475    1.392   .     A
C474   C1127   1.398   .     S
C474   C1139   1.406   .     S
C475   C476    1.392   .     A
C475   H501    1.084   .     S
C476   H506    1.080   .     S
H502   C1127   1.085   .     S
H505   C1130   1.083   1_554 S
N507   Zn517   2.004   .     S
N508   Zn518   2.004   .     S
O509   Zn517   2.002   .     S
O510   Zn518   2.005   .     S
O511   Zn517   1.974   .     S
O512   Zn518   1.942   .     S
O513   Zn517   2.005   .     S
O514   Zn518   2.002   .     S
O515   Zn517   1.942   .     S
O516   Zn518   1.974   .     S
C519   O584    1.282   .     A
C519   O583    1.280   .     A
C519   C527    1.418   .     S
C520   C522    1.458   .     S
C520   C541    1.413   .     A
C520   C537    1.403   .     A
C521   C527    1.390   .     A
C521   H554    1.084   .     S
C521   C79     1.370   1_565 S
C522   O585    1.290   .     A
C522   O586    1.289   .     A
C523   H560    1.084   .     S
C523   C524    1.402   .     A
C524   C533    1.428   .     S
C524   C525    1.419   .     A
C525   C543    1.522   .     S
C526   C527    1.392   .     A
C526   H553    1.082   .     S
C526   C81     1.376   1_565 S
C528   H567    1.082   .     S
C528   N582    1.365   .     A
C528   C603    1.414   .     S
C529   N581    1.366   .     A
C529   H564    1.079   .     S
C530   C541    1.405   .     A
C530   C1205   1.415   .     S
C530   C1213   1.409   .     S
C531   H574    1.082   .     S
C531   N581    1.364   .     A
C532   N582    1.366   .     A
C532   H568    1.076   .     S
C532   C605    1.413   .     S
C533   O587    1.279   .     A
C533   O588    1.287   .     A
C534   O590    1.296   .     A
C534   O589    1.290   .     A
C534   C536    1.476   .     S
C535   C552    1.407   .     A
C535   C1214   1.398   1_554 S
C535   H1242   1.085   1_554 S
C536   C552    1.430   .     A
C536   C551    1.417   .     A
C537   H577    1.083   .     S
C537   C538    1.389   .     A
C538   C1205   1.391   .     S
C538   H1245   1.083   .     S
C539   H578    1.083   .     S
C539   C1204   1.391   1_554 S
C539   C1196   1.415   1_554 S
C540   H558    1.108   .     S
C540   C542    1.529   .     S
C540   C552    1.515   .     S
C540   H559    1.109   .     S
C541   C550    1.415   .     A
C542   H556    1.108   .     S
C542   H555    1.111   .     S
C542   H557    1.111   .     S
C543   H565    1.112   .     S
C543   H566    1.106   .     S
C543   C544    1.529   .     S
C544   H561    1.108   .     S
C544   H562    1.111   .     S
C544   H563    1.110   .     S
C545   H572    1.111   .     S
C545   C551    1.534   .     S
C545   H573    1.105   .     S
C545   C546    1.524   .     S
C546   H570    1.108   .     S
C546   H571    1.111   .     S
C546   H569    1.109   .     S
C547   C551    1.386   .     A
C547   C1196   1.409   1_554 S
C547   C1214   1.406   1_554 S
C548   C549    1.392   .     A
C548   C1201   1.398   .     S
C548   C1213   1.406   .     S
C549   C550    1.392   .     A
C549   H575    1.084   .     S
C550   H580    1.080   .     S
H576   C1201   1.085   .     S
H579   C1204   1.083   1_554 S
N581   Zn591   2.004   .     S
N582   Zn592   2.004   .     S
O583   Zn591   2.002   .     S
O584   Zn592   2.005   .     S
O585   Zn591   1.974   .     S
O586   Zn592   1.942   .     S
O587   Zn591   2.005   .     S
O588   Zn592   2.002   .     S
O589   Zn591   1.942   .     S
O590   Zn592   1.974   .     S
C593   O658    1.282   .     A
C593   O657    1.280   .     A
C593   C601    1.418   .     S
C594   C596    1.458   .     S
C594   C615    1.413   .     A
C594   C611    1.403   .     A
C595   C601    1.390   .     A
C595   H628    1.084   .     S
C595   C153    1.370   1_565 S
C596   O659    1.290   .     A
C596   O660    1.289   .     A
C597   H634    1.084   .     S
C597   C598    1.402   .     A
C598   C607    1.428   .     S
C598   C599    1.419   .     A
C599   C617    1.522   .     S
C600   C601    1.392   .     A
C600   H627    1.082   .     S
C600   C155    1.376   1_565 S
C602   H641    1.082   .     S
C602   N656    1.365   .     A
C602   C455    1.414   1_655 S
C603   N655    1.366   .     A
C603   H638    1.079   .     S
C604   C615    1.405   .     A
C604   C1279   1.415   .     S
C604   C1287   1.409   .     S
C605   H648    1.082   .     S
C605   N655    1.364   .     A
C606   N656    1.366   .     A
C606   H642    1.076   .     S
C606   C457    1.413   1_655 S
C607   O661    1.279   .     A
C607   O662    1.287   .     A
C608   O664    1.296   .     A
C608   O663    1.290   .     A
C608   C610    1.476   .     S
C609   C626    1.407   .     A
C609   C1288   1.398   1_554 S
C609   H1316   1.085   1_554 S
C610   C626    1.430   .     A
C610   C625    1.417   .     A
C611   H651    1.083   .     S
C611   C612    1.389   .     A
C612   C1279   1.391   .     S
C612   H1319   1.083   .     S
C613   H652    1.083   .     S
C613   C1278   1.391   1_554 S
C613   C1270   1.415   1_554 S
C614   H632    1.108   .     S
C614   C616    1.529   .     S
C614   C626    1.515   .     S
C614   H633    1.109   .     S
C615   C624    1.415   .     A
C616   H630    1.108   .     S
C616   H629    1.111   .     S
C616   H631    1.111   .     S
C617   H639    1.112   .     S
C617   H640    1.106   .     S
C617   C618    1.529   .     S
C618   H635    1.108   .     S
C618   H636    1.111   .     S
C618   H637    1.110   .     S
C619   H646    1.111   .     S
C619   C625    1.534   .     S
C619   H647    1.105   .     S
C619   C620    1.524   .     S
C620   H644    1.108   .     S
C620   H645    1.111   .     S
C620   H643    1.109   .     S
C621   C625    1.386   .     A
C621   C1270   1.409   1_554 S
C621   C1288   1.406   1_554 S
C622   C623    1.392   .     A
C622   C1275   1.398   .     S
C622   C1287   1.406   .     S
C623   C624    1.392   .     A
C623   H649    1.084   .     S
C624   H654    1.080   .     S
H650   C1275   1.085   .     S
H653   C1278   1.083   1_554 S
N655   Zn665   2.004   .     S
N656   Zn666   2.004   .     S
O657   Zn665   2.002   .     S
O658   Zn666   2.005   .     S
O659   Zn665   1.974   .     S
O660   Zn666   1.942   .     S
O661   Zn665   2.005   .     S
O662   Zn666   2.002   .     S
O663   Zn665   1.942   .     S
O664   Zn666   1.974   .     S
C667   O732    1.282   .     A
C667   O731    1.280   .     A
C667   C675    1.418   .     S
C668   C670    1.458   .     S
C668   C689    1.413   .     A
C668   C685    1.403   .     A
C669   C675    1.390   .     A
C669   H702    1.084   .     S
C669   C893    1.370   .     S
C670   O733    1.290   .     A
C670   O734    1.289   .     A
C671   H708    1.084   .     S
C671   C672    1.402   .     A
C671   C1113   1.370   1_545 S
C672   C681    1.428   .     S
C672   C673    1.419   .     A
C673   C691    1.522   .     S
C673   C1118   1.376   1_545 S
C674   C675    1.392   .     A
C674   H701    1.082   .     S
C674   C895    1.376   .     S
C676   H715    1.082   .     S
C676   N730    1.365   .     A
C676   C751    1.414   .     S
C677   N729    1.366   .     A
C677   H712    1.079   .     S
C677   C824    1.414   1_455 S
C678   C689    1.405   .     A
C678   C21     1.415   1_556 S
C678   C29     1.409   1_556 S
C679   H722    1.082   .     S
C679   N729    1.364   .     A
C679   C828    1.413   1_455 S
C680   N730    1.366   .     A
C680   H716    1.076   .     S
C680   C753    1.413   .     S
C681   O735    1.279   .     A
C681   O736    1.287   .     A
C682   O738    1.296   .     A
C682   O737    1.290   .     A
C682   C684    1.476   .     S
C683   C700    1.407   .     A
C684   C700    1.430   .     A
C684   C699    1.417   .     A
C685   H725    1.083   .     S
C685   C686    1.389   .     A
C686   C21     1.391   1_556 S
C686   H61     1.083   1_556 S
C687   H726    1.083   .     S
C688   H706    1.108   .     S
C688   C690    1.529   .     S
C688   C700    1.515   .     S
C688   H707    1.109   .     S
C689   C698    1.415   .     A
C690   H704    1.108   .     S
C690   H703    1.111   .     S
C690   H705    1.111   .     S
C691   H713    1.112   .     S
C691   H714    1.106   .     S
C691   C692    1.529   .     S
C692   H709    1.108   .     S
C692   H710    1.111   .     S
C692   H711    1.110   .     S
C693   H720    1.111   .     S
C693   C699    1.534   .     S
C693   H721    1.105   .     S
C693   C694    1.524   .     S
C694   H718    1.108   .     S
C694   H719    1.111   .     S
C694   H717    1.109   .     S
C695   C699    1.386   .     A
C696   C697    1.392   .     A
C696   C17     1.398   1_556 S
C696   C29     1.406   1_556 S
C697   C698    1.392   .     A
C697   H723    1.084   .     S
C698   H728    1.080   .     S
H724   C17     1.085   1_556 S
N729   Zn739   2.004   .     S
N730   Zn740   2.004   .     S
O731   Zn739   2.002   .     S
O732   Zn740   2.005   .     S
O733   Zn739   1.974   .     S
O734   Zn740   1.942   .     S
O735   Zn739   2.005   .     S
O736   Zn740   2.002   .     S
O737   Zn739   1.942   .     S
O738   Zn740   1.974   .     S
C741   O806    1.282   .     A
C741   O805    1.280   .     A
C741   C749    1.418   .     S
C742   C744    1.458   .     S
C742   C763    1.413   .     A
C742   C759    1.403   .     A
C743   C749    1.390   .     A
C743   H776    1.084   .     S
C743   C967    1.370   .     S
C744   O807    1.290   .     A
C744   O808    1.289   .     A
C745   H782    1.084   .     S
C745   C746    1.402   .     A
C745   C1187   1.370   1_545 S
C746   C755    1.428   .     S
C746   C747    1.419   .     A
C747   C765    1.522   .     S
C747   C1192   1.376   1_545 S
C748   C749    1.392   .     A
C748   H775    1.082   .     S
C748   C969    1.376   .     S
C750   H789    1.082   .     S
C750   N804    1.365   .     A
C750   C825    1.414   .     S
C751   N803    1.366   .     A
C751   H786    1.079   .     S
C752   C763    1.405   .     A
C752   C95     1.415   1_556 S
C752   C103    1.409   1_556 S
C753   H796    1.082   .     S
C753   N803    1.364   .     A
C754   N804    1.366   .     A
C754   H790    1.076   .     S
C754   C827    1.413   .     S
C755   O809    1.279   .     A
C755   O810    1.287   .     A
C756   O812    1.296   .     A
C756   O811    1.290   .     A
C756   C758    1.476   .     S
C757   C774    1.407   .     A
C758   C774    1.430   .     A
C758   C773    1.417   .     A
C759   H799    1.083   .     S
C759   C760    1.389   .     A
C760   C95     1.391   1_556 S
C760   H135    1.083   1_556 S
C761   H800    1.083   .     S
C762   H780    1.108   .     S
C762   C764    1.529   .     S
C762   C774    1.515   .     S
C762   H781    1.109   .     S
C763   C772    1.415   .     A
C764   H778    1.108   .     S
C764   H777    1.111   .     S
C764   H779    1.111   .     S
C765   H787    1.112   .     S
C765   H788    1.106   .     S
C765   C766    1.529   .     S
C766   H783    1.108   .     S
C766   H784    1.111   .     S
C766   H785    1.110   .     S
C767   H794    1.111   .     S
C767   C773    1.534   .     S
C767   H795    1.105   .     S
C767   C768    1.524   .     S
C768   H792    1.108   .     S
C768   H793    1.111   .     S
C768   H791    1.109   .     S
C769   C773    1.386   .     A
C770   C771    1.392   .     A
C770   C91     1.398   1_556 S
C770   C103    1.406   1_556 S
C771   C772    1.392   .     A
C771   H797    1.084   .     S
C772   H802    1.080   .     S
H798   C91     1.085   1_556 S
N803   Zn813   2.004   .     S
N804   Zn814   2.004   .     S
O805   Zn813   2.002   .     S
O806   Zn814   2.005   .     S
O807   Zn813   1.974   .     S
O808   Zn814   1.942   .     S
O809   Zn813   2.005   .     S
O810   Zn814   2.002   .     S
O811   Zn813   1.942   .     S
O812   Zn814   1.974   .     S
C815   O880    1.282   .     A
C815   O879    1.280   .     A
C815   C823    1.418   .     S
C816   C818    1.458   .     S
C816   C837    1.413   .     A
C816   C833    1.403   .     A
C817   C823    1.390   .     A
C817   H850    1.084   .     S
C817   C1041   1.370   .     S
C818   O881    1.290   .     A
C818   O882    1.289   .     A
C819   H856    1.084   .     S
C819   C820    1.402   .     A
C819   C1261   1.370   1_545 S
C820   C829    1.428   .     S
C820   C821    1.419   .     A
C821   C839    1.522   .     S
C821   C1266   1.376   1_545 S
C822   C823    1.392   .     A
C822   H849    1.082   .     S
C822   C1043   1.376   .     S
C824   H863    1.082   .     S
C824   N878    1.365   .     A
C824   C677    1.414   1_655 S
C825   N877    1.366   .     A
C825   H860    1.079   .     S
C826   C837    1.405   .     A
C826   C169    1.415   1_556 S
C826   C177    1.409   1_556 S
C827   H870    1.082   .     S
C827   N877    1.364   .     A
C828   N878    1.366   .     A
C828   H864    1.076   .     S
C828   C679    1.413   1_655 S
C829   O883    1.279   .     A
C829   O884    1.287   .     A
C830   O886    1.296   .     A
C830   O885    1.290   .     A
C830   C832    1.476   .     S
C831   C848    1.407   .     A
C832   C848    1.430   .     A
C832   C847    1.417   .     A
C833   H873    1.083   .     S
C833   C834    1.389   .     A
C834   C169    1.391   1_556 S
C834   H209    1.083   1_556 S
C835   H874    1.083   .     S
C836   H854    1.108   .     S
C836   C838    1.529   .     S
C836   C848    1.515   .     S
C836   H855    1.109   .     S
C837   C846    1.415   .     A
C838   H852    1.108   .     S
C838   H851    1.111   .     S
C838   H853    1.111   .     S
C839   H861    1.112   .     S
C839   H862    1.106   .     S
C839   C840    1.529   .     S
C840   H857    1.108   .     S
C840   H858    1.111   .     S
C840   H859    1.110   .     S
C841   H868    1.111   .     S
C841   C847    1.534   .     S
C841   H869    1.105   .     S
C841   C842    1.524   .     S
C842   H866    1.108   .     S
C842   H867    1.111   .     S
C842   H865    1.109   .     S
C843   C847    1.386   .     A
C844   C845    1.392   .     A
C844   C165    1.398   1_556 S
C844   C177    1.406   1_556 S
C845   C846    1.392   .     A
C845   H871    1.084   .     S
C846   H876    1.080   .     S
H872   C165    1.085   1_556 S
N877   Zn887   2.004   .     S
N878   Zn888   2.004   .     S
O879   Zn887   2.002   .     S
O880   Zn888   2.005   .     S
O881   Zn887   1.974   .     S
O882   Zn888   1.942   .     S
O883   Zn887   2.005   .     S
O884   Zn888   2.002   .     S
O885   Zn887   1.942   .     S
O886   Zn888   1.974   .     S
C889   O954    1.282   .     A
C889   O953    1.280   .     A
C889   C897    1.418   .     S
C890   C892    1.458   .     S
C890   C911    1.413   .     A
C890   C907    1.403   .     A
C891   C897    1.390   .     A
C891   H924    1.084   .     S
C891   C1115   1.370   .     S
C892   O955    1.290   .     A
C892   O956    1.289   .     A
C893   H930    1.084   .     S
C893   C894    1.402   .     A
C894   C903    1.428   .     S
C894   C895    1.419   .     A
C895   C913    1.522   .     S
C896   C897    1.392   .     A
C896   H923    1.082   .     S
C896   C1117   1.376   .     S
C898   H937    1.082   .     S
C898   N952    1.365   .     A
C898   C973    1.414   .     S
C899   N951    1.366   .     A
C899   H934    1.079   .     S
C899   C1046   1.414   1_455 S
C900   C911    1.405   .     A
C900   C243    1.415   1_556 S
C900   C251    1.409   1_556 S
C901   H944    1.082   .     S
C901   N951    1.364   .     A
C901   C1050   1.413   1_455 S
C902   N952    1.366   .     A
C902   H938    1.076   .     S
C902   C975    1.413   .     S
C903   O957    1.279   .     A
C903   O958    1.287   .     A
C904   O960    1.296   .     A
C904   O959    1.290   .     A
C904   C906    1.476   .     S
C905   C922    1.407   .     A
C906   C922    1.430   .     A
C906   C921    1.417   .     A
C907   H947    1.083   .     S
C907   C908    1.389   .     A
C908   C243    1.391   1_556 S
C908   H283    1.083   1_556 S
C909   H948    1.083   .     S
C910   H928    1.108   .     S
C910   C912    1.529   .     S
C910   C922    1.515   .     S
C910   H929    1.109   .     S
C911   C920    1.415   .     A
C912   H926    1.108   .     S
C912   H925    1.111   .     S
C912   H927    1.111   .     S
C913   H935    1.112   .     S
C913   H936    1.106   .     S
C913   C914    1.529   .     S
C914   H931    1.108   .     S
C914   H932    1.111   .     S
C914   H933    1.110   .     S
C915   H942    1.111   .     S
C915   C921    1.534   .     S
C915   H943    1.105   .     S
C915   C916    1.524   .     S
C916   H940    1.108   .     S
C916   H941    1.111   .     S
C916   H939    1.109   .     S
C917   C921    1.386   .     A
C918   C919    1.392   .     A
C918   C239    1.398   1_556 S
C918   C251    1.406   1_556 S
C919   C920    1.392   .     A
C919   H945    1.084   .     S
C920   H950    1.080   .     S
H946   C239    1.085   1_556 S
N951   Zn961   2.004   .     S
N952   Zn962   2.004   .     S
O953   Zn961   2.002   .     S
O954   Zn962   2.005   .     S
O955   Zn961   1.974   .     S
O956   Zn962   1.942   .     S
O957   Zn961   2.005   .     S
O958   Zn962   2.002   .     S
O959   Zn961   1.942   .     S
O960   Zn962   1.974   .     S
C963   O1028   1.282   .     A
C963   O1027   1.280   .     A
C963   C971    1.418   .     S
C964   C966    1.458   .     S
C964   C985    1.413   .     A
C964   C981    1.403   .     A
C965   C971    1.390   .     A
C965   H998    1.084   .     S
C965   C1189   1.370   .     S
C966   O1029   1.290   .     A
C966   O1030   1.289   .     A
C967   H1004   1.084   .     S
C967   C968    1.402   .     A
C968   C977    1.428   .     S
C968   C969    1.419   .     A
C969   C987    1.522   .     S
C970   C971    1.392   .     A
C970   H997    1.082   .     S
C970   C1191   1.376   .     S
C972   H1011   1.082   .     S
C972   N1026   1.365   .     A
C972   C1047   1.414   .     S
C973   N1025   1.366   .     A
C973   H1008   1.079   .     S
C974   C985    1.405   .     A
C974   C317    1.415   1_556 S
C974   C325    1.409   1_556 S
C975   H1018   1.082   .     S
C975   N1025   1.364   .     A
C976   N1026   1.366   .     A
C976   H1012   1.076   .     S
C976   C1049   1.413   .     S
C977   O1031   1.279   .     A
C977   O1032   1.287   .     A
C978   O1034   1.296   .     A
C978   O1033   1.290   .     A
C978   C980    1.476   .     S
C979   C996    1.407   .     A
C980   C996    1.430   .     A
C980   C995    1.417   .     A
C981   H1021   1.083   .     S
C981   C982    1.389   .     A
C982   C317    1.391   1_556 S
C982   H357    1.083   1_556 S
C983   H1022   1.083   .     S
C984   H1002   1.108   .     S
C984   C986    1.529   .     S
C984   C996    1.515   .     S
C984   H1003   1.109   .     S
C985   C994    1.415   .     A
C986   H1000   1.108   .     S
C986   H999    1.111   .     S
C986   H1001   1.111   .     S
C987   H1009   1.112   .     S
C987   H1010   1.106   .     S
C987   C988    1.529   .     S
C988   H1005   1.108   .     S
C988   H1006   1.111   .     S
C988   H1007   1.110   .     S
C989   H1016   1.111   .     S
C989   C995    1.534   .     S
C989   H1017   1.105   .     S
C989   C990    1.524   .     S
C990   H1014   1.108   .     S
C990   H1015   1.111   .     S
C990   H1013   1.109   .     S
C991   C995    1.386   .     A
C992   C993    1.392   .     A
C992   C313    1.398   1_556 S
C992   C325    1.406   1_556 S
C993   C994    1.392   .     A
C993   H1019   1.084   .     S
C994   H1024   1.080   .     S
H1020  C313    1.085   1_556 S
N1025  Zn1035  2.004   .     S
N1026  Zn1036  2.004   .     S
O1027  Zn1035  2.002   .     S
O1028  Zn1036  2.005   .     S
O1029  Zn1035  1.974   .     S
O1030  Zn1036  1.942   .     S
O1031  Zn1035  2.005   .     S
O1032  Zn1036  2.002   .     S
O1033  Zn1035  1.942   .     S
O1034  Zn1036  1.974   .     S
C1037  O1102   1.282   .     A
C1037  O1101   1.280   .     A
C1037  C1045   1.418   .     S
C1038  C1040   1.458   .     S
C1038  C1059   1.413   .     A
C1038  C1055   1.403   .     A
C1039  C1045   1.390   .     A
C1039  H1072   1.084   .     S
C1039  C1263   1.370   .     S
C1040  O1103   1.290   .     A
C1040  O1104   1.289   .     A
C1041  H1078   1.084   .     S
C1041  C1042   1.402   .     A
C1042  C1051   1.428   .     S
C1042  C1043   1.419   .     A
C1043  C1061   1.522   .     S
C1044  C1045   1.392   .     A
C1044  H1071   1.082   .     S
C1044  C1265   1.376   .     S
C1046  H1085   1.082   .     S
C1046  N1100   1.365   .     A
C1046  C899    1.414   1_655 S
C1047  N1099   1.366   .     A
C1047  H1082   1.079   .     S
C1048  C1059   1.405   .     A
C1048  C391    1.415   1_556 S
C1048  C399    1.409   1_556 S
C1049  H1092   1.082   .     S
C1049  N1099   1.364   .     A
C1050  N1100   1.366   .     A
C1050  H1086   1.076   .     S
C1050  C901    1.413   1_655 S
C1051  O1105   1.279   .     A
C1051  O1106   1.287   .     A
C1052  O1108   1.296   .     A
C1052  O1107   1.290   .     A
C1052  C1054   1.476   .     S
C1053  C1070   1.407   .     A
C1054  C1070   1.430   .     A
C1054  C1069   1.417   .     A
C1055  H1095   1.083   .     S
C1055  C1056   1.389   .     A
C1056  C391    1.391   1_556 S
C1056  H431    1.083   1_556 S
C1057  H1096   1.083   .     S
C1058  H1076   1.108   .     S
C1058  C1060   1.529   .     S
C1058  C1070   1.515   .     S
C1058  H1077   1.109   .     S
C1059  C1068   1.415   .     A
C1060  H1074   1.108   .     S
C1060  H1073   1.111   .     S
C1060  H1075   1.111   .     S
C1061  H1083   1.112   .     S
C1061  H1084   1.106   .     S
C1061  C1062   1.529   .     S
C1062  H1079   1.108   .     S
C1062  H1080   1.111   .     S
C1062  H1081   1.110   .     S
C1063  H1090   1.111   .     S
C1063  C1069   1.534   .     S
C1063  H1091   1.105   .     S
C1063  C1064   1.524   .     S
C1064  H1088   1.108   .     S
C1064  H1089   1.111   .     S
C1064  H1087   1.109   .     S
C1065  C1069   1.386   .     A
C1066  C1067   1.392   .     A
C1066  C387    1.398   1_556 S
C1066  C399    1.406   1_556 S
C1067  C1068   1.392   .     A
C1067  H1093   1.084   .     S
C1068  H1098   1.080   .     S
H1094  C387    1.085   1_556 S
N1099  Zn1109  2.004   .     S
N1100  Zn1110  2.004   .     S
O1101  Zn1109  2.002   .     S
O1102  Zn1110  2.005   .     S
O1103  Zn1109  1.974   .     S
O1104  Zn1110  1.942   .     S
O1105  Zn1109  2.005   .     S
O1106  Zn1110  2.002   .     S
O1107  Zn1109  1.942   .     S
O1108  Zn1110  1.974   .     S
C1111  O1176   1.282   .     A
C1111  O1175   1.280   .     A
C1111  C1119   1.418   .     S
C1112  C1114   1.458   .     S
C1112  C1133   1.413   .     A
C1112  C1129   1.403   .     A
C1113  C1119   1.390   .     A
C1113  H1146   1.084   .     S
C1113  C671    1.370   1_565 S
C1114  O1177   1.290   .     A
C1114  O1178   1.289   .     A
C1115  H1152   1.084   .     S
C1115  C1116   1.402   .     A
C1116  C1125   1.428   .     S
C1116  C1117   1.419   .     A
C1117  C1135   1.522   .     S
C1118  C1119   1.392   .     A
C1118  H1145   1.082   .     S
C1118  C673    1.376   1_565 S
C1120  H1159   1.082   .     S
C1120  N1174   1.365   .     A
C1120  C1195   1.414   .     S
C1121  N1173   1.366   .     A
C1121  H1156   1.079   .     S
C1121  C1268   1.414   1_455 S
C1122  C1133   1.405   .     A
C1122  C465    1.415   1_556 S
C1122  C473    1.409   1_556 S
C1123  H1166   1.082   .     S
C1123  N1173   1.364   .     A
C1123  C1272   1.413   1_455 S
C1124  N1174   1.366   .     A
C1124  H1160   1.076   .     S
C1124  C1197   1.413   .     S
C1125  O1179   1.279   .     A
C1125  O1180   1.287   .     A
C1126  O1182   1.296   .     A
C1126  O1181   1.290   .     A
C1126  C1128   1.476   .     S
C1127  C1144   1.407   .     A
C1128  C1144   1.430   .     A
C1128  C1143   1.417   .     A
C1129  H1169   1.083   .     S
C1129  C1130   1.389   .     A
C1130  C465    1.391   1_556 S
C1130  H505    1.083   1_556 S
C1131  H1170   1.083   .     S
C1132  H1150   1.108   .     S
C1132  C1134   1.529   .     S
C1132  C1144   1.515   .     S
C1132  H1151   1.109   .     S
C1133  C1142   1.415   .     A
C1134  H1148   1.108   .     S
C1134  H1147   1.111   .     S
C1134  H1149   1.111   .     S
C1135  H1157   1.112   .     S
C1135  H1158   1.106   .     S
C1135  C1136   1.529   .     S
C1136  H1153   1.108   .     S
C1136  H1154   1.111   .     S
C1136  H1155   1.110   .     S
C1137  H1164   1.111   .     S
C1137  C1143   1.534   .     S
C1137  H1165   1.105   .     S
C1137  C1138   1.524   .     S
C1138  H1162   1.108   .     S
C1138  H1163   1.111   .     S
C1138  H1161   1.109   .     S
C1139  C1143   1.386   .     A
C1140  C1141   1.392   .     A
C1140  C461    1.398   1_556 S
C1140  C473    1.406   1_556 S
C1141  C1142   1.392   .     A
C1141  H1167   1.084   .     S
C1142  H1172   1.080   .     S
H1168  C461    1.085   1_556 S
N1173  Zn1183  2.004   .     S
N1174  Zn1184  2.004   .     S
O1175  Zn1183  2.002   .     S
O1176  Zn1184  2.005   .     S
O1177  Zn1183  1.974   .     S
O1178  Zn1184  1.942   .     S
O1179  Zn1183  2.005   .     S
O1180  Zn1184  2.002   .     S
O1181  Zn1183  1.942   .     S
O1182  Zn1184  1.974   .     S
C1185  O1250   1.282   .     A
C1185  O1249   1.280   .     A
C1185  C1193   1.418   .     S
C1186  C1188   1.458   .     S
C1186  C1207   1.413   .     A
C1186  C1203   1.403   .     A
C1187  C1193   1.390   .     A
C1187  H1220   1.084   .     S
C1187  C745    1.370   1_565 S
C1188  O1251   1.290   .     A
C1188  O1252   1.289   .     A
C1189  H1226   1.084   .     S
C1189  C1190   1.402   .     A
C1190  C1199   1.428   .     S
C1190  C1191   1.419   .     A
C1191  C1209   1.522   .     S
C1192  C1193   1.392   .     A
C1192  H1219   1.082   .     S
C1192  C747    1.376   1_565 S
C1194  H1233   1.082   .     S
C1194  N1248   1.365   .     A
C1194  C1269   1.414   .     S
C1195  N1247   1.366   .     A
C1195  H1230   1.079   .     S
C1196  C1207   1.405   .     A
C1196  C539    1.415   1_556 S
C1196  C547    1.409   1_556 S
C1197  H1240   1.082   .     S
C1197  N1247   1.364   .     A
C1198  N1248   1.366   .     A
C1198  H1234   1.076   .     S
C1198  C1271   1.413   .     S
C1199  O1253   1.279   .     A
C1199  O1254   1.287   .     A
C1200  O1256   1.296   .     A
C1200  O1255   1.290   .     A
C1200  C1202   1.476   .     S
C1201  C1218   1.407   .     A
C1202  C1218   1.430   .     A
C1202  C1217   1.417   .     A
C1203  H1243   1.083   .     S
C1203  C1204   1.389   .     A
C1204  C539    1.391   1_556 S
C1204  H579    1.083   1_556 S
C1205  H1244   1.083   .     S
C1206  H1224   1.108   .     S
C1206  C1208   1.529   .     S
C1206  C1218   1.515   .     S
C1206  H1225   1.109   .     S
C1207  C1216   1.415   .     A
C1208  H1222   1.108   .     S
C1208  H1221   1.111   .     S
C1208  H1223   1.111   .     S
C1209  H1231   1.112   .     S
C1209  H1232   1.106   .     S
C1209  C1210   1.529   .     S
C1210  H1227   1.108   .     S
C1210  H1228   1.111   .     S
C1210  H1229   1.110   .     S
C1211  H1238   1.111   .     S
C1211  C1217   1.534   .     S
C1211  H1239   1.105   .     S
C1211  C1212   1.524   .     S
C1212  H1236   1.108   .     S
C1212  H1237   1.111   .     S
C1212  H1235   1.109   .     S
C1213  C1217   1.386   .     A
C1214  C1215   1.392   .     A
C1214  C535    1.398   1_556 S
C1214  C547    1.406   1_556 S
C1215  C1216   1.392   .     A
C1215  H1241   1.084   .     S
C1216  H1246   1.080   .     S
H1242  C535    1.085   1_556 S
N1247  Zn1257  2.004   .     S
N1248  Zn1258  2.004   .     S
O1249  Zn1257  2.002   .     S
O1250  Zn1258  2.005   .     S
O1251  Zn1257  1.974   .     S
O1252  Zn1258  1.942   .     S
O1253  Zn1257  2.005   .     S
O1254  Zn1258  2.002   .     S
O1255  Zn1257  1.942   .     S
O1256  Zn1258  1.974   .     S
C1259  O1324   1.282   .     A
C1259  O1323   1.280   .     A
C1259  C1267   1.418   .     S
C1260  C1262   1.458   .     S
C1260  C1281   1.413   .     A
C1260  C1277   1.403   .     A
C1261  C1267   1.390   .     A
C1261  H1294   1.084   .     S
C1261  C819    1.370   1_565 S
C1262  O1325   1.290   .     A
C1262  O1326   1.289   .     A
C1263  H1300   1.084   .     S
C1263  C1264   1.402   .     A
C1264  C1273   1.428   .     S
C1264  C1265   1.419   .     A
C1265  C1283   1.522   .     S
C1266  C1267   1.392   .     A
C1266  H1293   1.082   .     S
C1266  C821    1.376   1_565 S
C1268  H1307   1.082   .     S
C1268  N1322   1.365   .     A
C1268  C1121   1.414   1_655 S
C1269  N1321   1.366   .     A
C1269  H1304   1.079   .     S
C1270  C1281   1.405   .     A
C1270  C613    1.415   1_556 S
C1270  C621    1.409   1_556 S
C1271  H1314   1.082   .     S
C1271  N1321   1.364   .     A
C1272  N1322   1.366   .     A
C1272  H1308   1.076   .     S
C1272  C1123   1.413   1_655 S
C1273  O1327   1.279   .     A
C1273  O1328   1.287   .     A
C1274  O1330   1.296   .     A
C1274  O1329   1.290   .     A
C1274  C1276   1.476   .     S
C1275  C1292   1.407   .     A
C1276  C1292   1.430   .     A
C1276  C1291   1.417   .     A
C1277  H1317   1.083   .     S
C1277  C1278   1.389   .     A
C1278  C613    1.391   1_556 S
C1278  H653    1.083   1_556 S
C1279  H1318   1.083   .     S
C1280  H1298   1.108   .     S
C1280  C1282   1.529   .     S
C1280  C1292   1.515   .     S
C1280  H1299   1.109   .     S
C1281  C1290   1.415   .     A
C1282  H1296   1.108   .     S
C1282  H1295   1.111   .     S
C1282  H1297   1.111   .     S
C1283  H1305   1.112   .     S
C1283  H1306   1.106   .     S
C1283  C1284   1.529   .     S
C1284  H1301   1.108   .     S
C1284  H1302   1.111   .     S
C1284  H1303   1.110   .     S
C1285  H1312   1.111   .     S
C1285  C1291   1.534   .     S
C1285  H1313   1.105   .     S
C1285  C1286   1.524   .     S
C1286  H1310   1.108   .     S
C1286  H1311   1.111   .     S
C1286  H1309   1.109   .     S
C1287  C1291   1.386   .     A
C1288  C1289   1.392   .     A
C1288  C609    1.398   1_556 S
C1288  C621    1.406   1_556 S
C1289  C1290   1.392   .     A
C1289  H1315   1.084   .     S
C1290  H1320   1.080   .     S
H1316  C609    1.085   1_556 S
N1321  Zn1331  2.004   .     S
N1322  Zn1332  2.004   .     S
O1323  Zn1331  2.002   .     S
O1324  Zn1332  2.005   .     S
O1325  Zn1331  1.974   .     S
O1326  Zn1332  1.942   .     S
O1327  Zn1331  2.005   .     S
O1328  Zn1332  2.002   .     S
O1329  Zn1331  1.942   .     S
O1330  Zn1332  1.974   .     S
