data_str_m3_o10_o17_pcu_sym.86
_audit_creation_date              2020-01-03
_audit_creation_method            'Materials Studio'
_symmetry_space_group_name_H-M    'P1'
_symmetry_Int_Tables_number       1
_symmetry_cell_setting            triclinic
loop_
_symmetry_equiv_pos_as_xyz
  x,y,z
_cell_length_a                    23.9669
_cell_length_b                    25.9222
_cell_length_c                    29.9469
_cell_angle_alpha                 94.2247
_cell_angle_beta                  86.7931
_cell_angle_gamma                 92.7539
loop_
_atom_site_label
_atom_site_type_symbol
_atom_site_fract_x
_atom_site_fract_y
_atom_site_fract_z
_atom_site_U_iso_or_equiv
_atom_site_adp_type
_atom_site_occupancy
C1     C     0.18133   0.26445   0.24891   0.00000  Uiso   1.00
C2     C     0.19252   0.21315   0.40934   0.00000  Uiso   1.00
C3     C     0.16513   0.16282   0.11573   0.00000  Uiso   1.00
C4     C     0.16821   0.17051   0.38427   0.00000  Uiso   1.00
C5     C     0.19473   0.20242   0.09492   0.00000  Uiso   1.00
C6     C     0.13860   0.13091   0.40508   0.00000  Uiso   1.00
C7     C     0.19394   0.20514   0.04924   0.00000  Uiso   1.00
C8     C     0.13940   0.12819   0.45076   0.00000  Uiso   1.00
C9     C     0.16675   0.16514   0.02325   0.00000  Uiso   1.00
C10    C     0.16659   0.16818   0.47675   0.00000  Uiso   1.00
C11    C     0.14085   0.12170   0.04361   0.00000  Uiso   1.00
C12    C     0.15201   0.06888   0.25108   0.00000  Uiso   1.00
C13    C     0.19250   0.21163   0.45639   0.00000  Uiso   1.00
C14    C     0.21928   0.24795   0.02952   0.00000  Uiso   1.00
C15    C     0.11407   0.08538   0.47048   0.00000  Uiso   1.00
C16    C     0.12145   0.07184   0.11362   0.00000  Uiso   1.00
C17    C     0.16779   0.03313   0.11088   0.00000  Uiso   1.00
C18    C     0.14958   0.31881   0.13590   0.00000  Uiso   1.00
C19    C     0.21188   0.26149   0.38638   0.00000  Uiso   1.00
C20    C     0.16554   0.30020   0.38913   0.00000  Uiso   1.00
C21    C     0.18371   0.01451   0.36410   0.00000  Uiso   1.00
C22    C     0.00550   0.12244   0.19864   0.00000  Uiso   1.00
C23    C     0.21769   0.25179   0.48378   0.00000  Uiso   1.00
C24    C     0.30310   0.07232   0.19164   0.00000  Uiso   1.00
C25    C     0.32445   0.03526   0.15366   0.00000  Uiso   1.00
C26    C     0.32783   0.21090   0.30135   0.00000  Uiso   1.00
C27    C     0.03023   0.26103   0.30834   0.00000  Uiso   1.00
C28    C     0.00885   0.29812   0.34628   0.00000  Uiso   1.00
C29    C     0.11567   0.08154   0.01622   0.00000  Uiso   1.00
C30    C     0.18894   0.31883   0.24883   0.00000  Uiso   1.00
C31    C     0.14439   0.01451   0.25117   0.00000  Uiso   1.00
C32    C     0.16752   0.16825   0.33619   0.00000  Uiso   1.00
C33    C     0.16581   0.16508   0.16381   0.00000  Uiso   1.00
C34    C     0.14083   0.12018   0.09066   0.00000  Uiso   1.00
H35    H     0.21851   0.23141   0.11464   0.00000  Uiso   1.00
H36    H     0.12689   0.28996   0.11352   0.00000  Uiso   1.00
H37    H     0.18690   0.30198   0.14816   0.00000  Uiso   1.00
H38    H     0.17933   0.02103   0.07533   0.00000  Uiso   1.00
H39    H     0.20537   0.05203   0.12604   0.00000  Uiso   1.00
H40    H     0.10959   0.08124   0.14930   0.00000  Uiso   1.00
H41    H     0.08348   0.05380   0.09905   0.00000  Uiso   1.00
H42    H     0.14638   0.03133   0.35186   0.00000  Uiso   1.00
H43    H     0.20641   0.04338   0.38647   0.00000  Uiso   1.00
H44    H     0.21147   0.00458   0.33432   0.00000  Uiso   1.00
H45    H     0.12794   0.28129   0.37400   0.00000  Uiso   1.00
H46    H     0.11482   0.10193   0.38536   0.00000  Uiso   1.00
H47    H     0.15402   0.31230   0.42469   0.00000  Uiso   1.00
H48    H     0.24986   0.27953   0.40094   0.00000  Uiso   1.00
H49    H     0.22372   0.25210   0.35070   0.00000  Uiso   1.00
H50    H     0.32658   0.05444   0.12165   0.00000  Uiso   1.00
H51    H     0.03212   0.02132   0.16132   0.00000  Uiso   1.00
H52    H     0.29490   0.00103   0.15023   0.00000  Uiso   1.00
H53    H     0.30132   0.05212   0.22308   0.00000  Uiso   1.00
H54    H     0.26107   0.08181   0.18288   0.00000  Uiso   1.00
H55    H     0.00499   0.14531   0.16873   0.00000  Uiso   1.00
H56    H     0.04765   0.11110   0.20286   0.00000  Uiso   1.00
H57    H     0.23975   0.27899   0.04967   0.00000  Uiso   1.00
H58    H     0.30116   0.31200   0.33861   0.00000  Uiso   1.00
H59    H     0.00676   0.27900   0.37832   0.00000  Uiso   1.00
H60    H     0.03836   0.33239   0.34966   0.00000  Uiso   1.00
H61    H     0.07226   0.25155   0.31712   0.00000  Uiso   1.00
H62    H     0.03202   0.28119   0.27688   0.00000  Uiso   1.00
H63    H     0.28568   0.22223   0.29714   0.00000  Uiso   1.00
H64    H     0.32836   0.18804   0.33127   0.00000  Uiso   1.00
H65    H     0.09360   0.05434   0.45033   0.00000  Uiso   1.00
H66    H     0.23679   0.28654   0.47091   0.00000  Uiso   1.00
H67    H     0.09657   0.04678   0.02908   0.00000  Uiso   1.00
H68    H     0.23144   0.00155   0.24807   0.00000  Uiso   1.00
H69    H     0.10190   0.33178   0.25192   0.00000  Uiso   1.00
H70    H     0.12180   0.32875   0.16568   0.00000  Uiso   1.00
N71    N     0.31678   0.15265   0.23783   0.00000  Uiso   1.00
N72    N     0.01656   0.18068   0.26217   0.00000  Uiso   1.00
O73    O     0.12975   0.24619   0.25298   0.00000  Uiso   1.00
O74    O     0.20358   0.08714   0.24701   0.00000  Uiso   1.00
O75    O     0.22613   0.23721   0.24518   0.00000  Uiso   1.00
O76    O     0.10720   0.09613   0.25482   0.00000  Uiso   1.00
O77    O     0.11847   0.17117   0.31998   0.00000  Uiso   1.00
O78    O     0.21486   0.16216   0.18002   0.00000  Uiso   1.00
O79    O     0.21485   0.16219   0.31217   0.00000  Uiso   1.00
O80    O     0.11848   0.17115   0.18782   0.00000  Uiso   1.00
Zn81   Zn    0.10231   0.17266   0.25521   0.00000  Uiso   1.00
Zn82   Zn    0.23102   0.16067   0.24479   0.00000  Uiso   1.00
C83    C     0.51466   0.26445   0.24891   0.00000  Uiso   1.00
C84    C     0.52585   0.21315   0.40934   0.00000  Uiso   1.00
C85    C     0.49846   0.16282   0.11573   0.00000  Uiso   1.00
C86    C     0.50154   0.17051   0.38427   0.00000  Uiso   1.00
C87    C     0.52807   0.20242   0.09492   0.00000  Uiso   1.00
C88    C     0.47194   0.13091   0.40508   0.00000  Uiso   1.00
C89    C     0.52728   0.20514   0.04924   0.00000  Uiso   1.00
C90    C     0.47273   0.12819   0.45076   0.00000  Uiso   1.00
C91    C     0.50009   0.16514   0.02325   0.00000  Uiso   1.00
C92    C     0.49993   0.16818   0.47675   0.00000  Uiso   1.00
C93    C     0.47418   0.12170   0.04361   0.00000  Uiso   1.00
C94    C     0.48534   0.06888   0.25108   0.00000  Uiso   1.00
C95    C     0.52583   0.21163   0.45639   0.00000  Uiso   1.00
C96    C     0.55261   0.24795   0.02952   0.00000  Uiso   1.00
C97    C     0.44740   0.08538   0.47048   0.00000  Uiso   1.00
C98    C     0.45478   0.07184   0.11362   0.00000  Uiso   1.00
C99    C     0.50112   0.03313   0.11088   0.00000  Uiso   1.00
C100   C     0.48292   0.31881   0.13590   0.00000  Uiso   1.00
C101   C     0.54522   0.26149   0.38638   0.00000  Uiso   1.00
C102   C     0.49887   0.30020   0.38913   0.00000  Uiso   1.00
C103   C     0.51704   0.01451   0.36410   0.00000  Uiso   1.00
C104   C     0.33884   0.12244   0.19864   0.00000  Uiso   1.00
C105   C     0.55102   0.25179   0.48378   0.00000  Uiso   1.00
C106   C     0.63643   0.07232   0.19164   0.00000  Uiso   1.00
C107   C     0.65778   0.03526   0.15366   0.00000  Uiso   1.00
C108   C     0.66117   0.21090   0.30135   0.00000  Uiso   1.00
C109   C     0.36357   0.26103   0.30834   0.00000  Uiso   1.00
C110   C     0.34219   0.29812   0.34628   0.00000  Uiso   1.00
C111   C     0.44900   0.08154   0.01622   0.00000  Uiso   1.00
C112   C     0.52227   0.31883   0.24883   0.00000  Uiso   1.00
C113   C     0.47773   0.01451   0.25117   0.00000  Uiso   1.00
C114   C     0.50086   0.16825   0.33619   0.00000  Uiso   1.00
C115   C     0.49914   0.16508   0.16381   0.00000  Uiso   1.00
C116   C     0.47416   0.12018   0.09066   0.00000  Uiso   1.00
H117   H     0.55184   0.23141   0.11464   0.00000  Uiso   1.00
H118   H     0.46022   0.28996   0.11352   0.00000  Uiso   1.00
H119   H     0.52023   0.30198   0.14816   0.00000  Uiso   1.00
H120   H     0.51267   0.02103   0.07533   0.00000  Uiso   1.00
H121   H     0.53870   0.05203   0.12604   0.00000  Uiso   1.00
H122   H     0.44293   0.08124   0.14930   0.00000  Uiso   1.00
H123   H     0.41681   0.05380   0.09905   0.00000  Uiso   1.00
H124   H     0.47971   0.03133   0.35186   0.00000  Uiso   1.00
H125   H     0.53974   0.04338   0.38647   0.00000  Uiso   1.00
H126   H     0.54481   0.00458   0.33432   0.00000  Uiso   1.00
H127   H     0.46127   0.28129   0.37400   0.00000  Uiso   1.00
H128   H     0.44815   0.10193   0.38536   0.00000  Uiso   1.00
H129   H     0.48735   0.31230   0.42469   0.00000  Uiso   1.00
H130   H     0.58319   0.27953   0.40094   0.00000  Uiso   1.00
H131   H     0.55705   0.25210   0.35070   0.00000  Uiso   1.00
H132   H     0.65992   0.05444   0.12165   0.00000  Uiso   1.00
H133   H     0.36545   0.02132   0.16132   0.00000  Uiso   1.00
H134   H     0.62824   0.00103   0.15023   0.00000  Uiso   1.00
H135   H     0.63465   0.05212   0.22308   0.00000  Uiso   1.00
H136   H     0.59440   0.08181   0.18288   0.00000  Uiso   1.00
H137   H     0.33832   0.14531   0.16873   0.00000  Uiso   1.00
H138   H     0.38098   0.11110   0.20286   0.00000  Uiso   1.00
H139   H     0.57308   0.27899   0.04967   0.00000  Uiso   1.00
H140   H     0.63449   0.31200   0.33861   0.00000  Uiso   1.00
H141   H     0.34009   0.27900   0.37832   0.00000  Uiso   1.00
H142   H     0.37170   0.33239   0.34966   0.00000  Uiso   1.00
H143   H     0.40559   0.25155   0.31712   0.00000  Uiso   1.00
H144   H     0.36536   0.28119   0.27688   0.00000  Uiso   1.00
H145   H     0.61902   0.22223   0.29714   0.00000  Uiso   1.00
H146   H     0.66169   0.18804   0.33127   0.00000  Uiso   1.00
H147   H     0.42693   0.05434   0.45033   0.00000  Uiso   1.00
H148   H     0.57012   0.28654   0.47091   0.00000  Uiso   1.00
H149   H     0.42990   0.04678   0.02908   0.00000  Uiso   1.00
H150   H     0.56477   0.00155   0.24807   0.00000  Uiso   1.00
H151   H     0.43523   0.33178   0.25192   0.00000  Uiso   1.00
H152   H     0.45514   0.32875   0.16568   0.00000  Uiso   1.00
N153   N     0.65011   0.15265   0.23783   0.00000  Uiso   1.00
N154   N     0.34989   0.18068   0.26217   0.00000  Uiso   1.00
O155   O     0.46308   0.24619   0.25298   0.00000  Uiso   1.00
O156   O     0.53692   0.08714   0.24701   0.00000  Uiso   1.00
O157   O     0.55946   0.23721   0.24518   0.00000  Uiso   1.00
O158   O     0.44054   0.09613   0.25482   0.00000  Uiso   1.00
O159   O     0.45181   0.17117   0.31998   0.00000  Uiso   1.00
O160   O     0.54819   0.16216   0.18002   0.00000  Uiso   1.00
O161   O     0.54819   0.16219   0.31217   0.00000  Uiso   1.00
O162   O     0.45181   0.17115   0.18782   0.00000  Uiso   1.00
Zn163  Zn    0.43565   0.17266   0.25521   0.00000  Uiso   1.00
Zn164  Zn    0.56435   0.16067   0.24479   0.00000  Uiso   1.00
C165   C     0.84799   0.26445   0.24891   0.00000  Uiso   1.00
C166   C     0.85918   0.21315   0.40934   0.00000  Uiso   1.00
C167   C     0.83179   0.16282   0.11573   0.00000  Uiso   1.00
C168   C     0.83487   0.17051   0.38427   0.00000  Uiso   1.00
C169   C     0.86140   0.20242   0.09492   0.00000  Uiso   1.00
C170   C     0.80527   0.13091   0.40508   0.00000  Uiso   1.00
C171   C     0.86061   0.20514   0.04924   0.00000  Uiso   1.00
C172   C     0.80607   0.12819   0.45076   0.00000  Uiso   1.00
C173   C     0.83342   0.16514   0.02325   0.00000  Uiso   1.00
C174   C     0.83326   0.16818   0.47675   0.00000  Uiso   1.00
C175   C     0.80751   0.12170   0.04361   0.00000  Uiso   1.00
C176   C     0.81867   0.06888   0.25108   0.00000  Uiso   1.00
C177   C     0.85917   0.21163   0.45639   0.00000  Uiso   1.00
C178   C     0.88594   0.24795   0.02952   0.00000  Uiso   1.00
C179   C     0.78074   0.08538   0.47048   0.00000  Uiso   1.00
C180   C     0.78811   0.07184   0.11362   0.00000  Uiso   1.00
C181   C     0.83445   0.03313   0.11088   0.00000  Uiso   1.00
C182   C     0.81625   0.31881   0.13590   0.00000  Uiso   1.00
C183   C     0.87855   0.26149   0.38638   0.00000  Uiso   1.00
C184   C     0.83220   0.30020   0.38913   0.00000  Uiso   1.00
C185   C     0.85037   0.01451   0.36410   0.00000  Uiso   1.00
C186   C     0.67217   0.12244   0.19864   0.00000  Uiso   1.00
C187   C     0.88435   0.25179   0.48378   0.00000  Uiso   1.00
C188   C     0.96976   0.07232   0.19164   0.00000  Uiso   1.00
C189   C     0.99112   0.03526   0.15366   0.00000  Uiso   1.00
C190   C     0.99450   0.21090   0.30135   0.00000  Uiso   1.00
C191   C     0.69690   0.26103   0.30834   0.00000  Uiso   1.00
C192   C     0.67552   0.29812   0.34628   0.00000  Uiso   1.00
C193   C     0.78233   0.08154   0.01622   0.00000  Uiso   1.00
C194   C     0.85561   0.31883   0.24883   0.00000  Uiso   1.00
C195   C     0.81106   0.01451   0.25117   0.00000  Uiso   1.00
C196   C     0.83419   0.16825   0.33619   0.00000  Uiso   1.00
C197   C     0.83248   0.16508   0.16381   0.00000  Uiso   1.00
C198   C     0.80749   0.12018   0.09066   0.00000  Uiso   1.00
H199   H     0.88517   0.23141   0.11464   0.00000  Uiso   1.00
H200   H     0.79355   0.28996   0.11352   0.00000  Uiso   1.00
H201   H     0.85356   0.30198   0.14816   0.00000  Uiso   1.00
H202   H     0.84600   0.02103   0.07533   0.00000  Uiso   1.00
H203   H     0.87203   0.05203   0.12604   0.00000  Uiso   1.00
H204   H     0.77626   0.08124   0.14930   0.00000  Uiso   1.00
H205   H     0.75014   0.05380   0.09905   0.00000  Uiso   1.00
H206   H     0.81305   0.03133   0.35186   0.00000  Uiso   1.00
H207   H     0.87308   0.04338   0.38647   0.00000  Uiso   1.00
H208   H     0.87814   0.00458   0.33432   0.00000  Uiso   1.00
H209   H     0.79461   0.28129   0.37400   0.00000  Uiso   1.00
H210   H     0.78149   0.10193   0.38536   0.00000  Uiso   1.00
H211   H     0.82068   0.31230   0.42469   0.00000  Uiso   1.00
H212   H     0.91653   0.27953   0.40094   0.00000  Uiso   1.00
H213   H     0.89039   0.25210   0.35070   0.00000  Uiso   1.00
H214   H     0.99325   0.05444   0.12165   0.00000  Uiso   1.00
H215   H     0.69878   0.02132   0.16132   0.00000  Uiso   1.00
H216   H     0.96157   0.00103   0.15023   0.00000  Uiso   1.00
H217   H     0.96798   0.05212   0.22308   0.00000  Uiso   1.00
H218   H     0.92773   0.08181   0.18288   0.00000  Uiso   1.00
H219   H     0.67166   0.14531   0.16873   0.00000  Uiso   1.00
H220   H     0.71431   0.11110   0.20286   0.00000  Uiso   1.00
H221   H     0.90641   0.27899   0.04967   0.00000  Uiso   1.00
H222   H     0.96783   0.31200   0.33861   0.00000  Uiso   1.00
H223   H     0.67343   0.27900   0.37832   0.00000  Uiso   1.00
H224   H     0.70503   0.33239   0.34966   0.00000  Uiso   1.00
H225   H     0.73893   0.25155   0.31712   0.00000  Uiso   1.00
H226   H     0.69869   0.28119   0.27688   0.00000  Uiso   1.00
H227   H     0.95235   0.22223   0.29714   0.00000  Uiso   1.00
H228   H     0.99503   0.18804   0.33127   0.00000  Uiso   1.00
H229   H     0.76026   0.05434   0.45033   0.00000  Uiso   1.00
H230   H     0.90345   0.28654   0.47091   0.00000  Uiso   1.00
H231   H     0.76324   0.04678   0.02908   0.00000  Uiso   1.00
H232   H     0.89810   0.00155   0.24807   0.00000  Uiso   1.00
H233   H     0.76856   0.33178   0.25192   0.00000  Uiso   1.00
H234   H     0.78847   0.32875   0.16568   0.00000  Uiso   1.00
N235   N     0.98344   0.15265   0.23783   0.00000  Uiso   1.00
N236   N     0.68322   0.18068   0.26217   0.00000  Uiso   1.00
O237   O     0.79642   0.24619   0.25298   0.00000  Uiso   1.00
O238   O     0.87025   0.08714   0.24701   0.00000  Uiso   1.00
O239   O     0.89280   0.23721   0.24518   0.00000  Uiso   1.00
O240   O     0.77387   0.09613   0.25482   0.00000  Uiso   1.00
O241   O     0.78514   0.17117   0.31998   0.00000  Uiso   1.00
O242   O     0.88153   0.16216   0.18002   0.00000  Uiso   1.00
O243   O     0.88152   0.16219   0.31217   0.00000  Uiso   1.00
O244   O     0.78515   0.17115   0.18782   0.00000  Uiso   1.00
Zn245  Zn    0.76898   0.17266   0.25521   0.00000  Uiso   1.00
Zn246  Zn    0.89769   0.16067   0.24479   0.00000  Uiso   1.00
C247   C     0.18133   0.59779   0.24891   0.00000  Uiso   1.00
C248   C     0.19252   0.54648   0.40934   0.00000  Uiso   1.00
C249   C     0.16513   0.49615   0.11573   0.00000  Uiso   1.00
C250   C     0.16821   0.50384   0.38427   0.00000  Uiso   1.00
C251   C     0.19473   0.53575   0.09492   0.00000  Uiso   1.00
C252   C     0.13860   0.46425   0.40508   0.00000  Uiso   1.00
C253   C     0.19394   0.53847   0.04924   0.00000  Uiso   1.00
C254   C     0.13940   0.46153   0.45076   0.00000  Uiso   1.00
C255   C     0.16675   0.49848   0.02325   0.00000  Uiso   1.00
C256   C     0.16659   0.50152   0.47675   0.00000  Uiso   1.00
C257   C     0.14085   0.45503   0.04361   0.00000  Uiso   1.00
C258   C     0.15201   0.40221   0.25108   0.00000  Uiso   1.00
C259   C     0.19250   0.54496   0.45639   0.00000  Uiso   1.00
C260   C     0.21928   0.58128   0.02952   0.00000  Uiso   1.00
C261   C     0.11407   0.41872   0.47048   0.00000  Uiso   1.00
C262   C     0.12145   0.40518   0.11362   0.00000  Uiso   1.00
C263   C     0.16779   0.36646   0.11088   0.00000  Uiso   1.00
C264   C     0.14958   0.65215   0.13590   0.00000  Uiso   1.00
C265   C     0.21188   0.59482   0.38638   0.00000  Uiso   1.00
C266   C     0.16554   0.63353   0.38913   0.00000  Uiso   1.00
C267   C     0.18371   0.34784   0.36410   0.00000  Uiso   1.00
C268   C     0.00550   0.45577   0.19864   0.00000  Uiso   1.00
C269   C     0.21769   0.58512   0.48378   0.00000  Uiso   1.00
C270   C     0.30310   0.40566   0.19164   0.00000  Uiso   1.00
C271   C     0.32445   0.36859   0.15366   0.00000  Uiso   1.00
C272   C     0.32783   0.54423   0.30135   0.00000  Uiso   1.00
C273   C     0.03023   0.59436   0.30834   0.00000  Uiso   1.00
C274   C     0.00885   0.63146   0.34628   0.00000  Uiso   1.00
C275   C     0.11567   0.41487   0.01622   0.00000  Uiso   1.00
C276   C     0.18894   0.65216   0.24883   0.00000  Uiso   1.00
C277   C     0.14439   0.34784   0.25117   0.00000  Uiso   1.00
C278   C     0.16752   0.50158   0.33619   0.00000  Uiso   1.00
C279   C     0.16581   0.49841   0.16381   0.00000  Uiso   1.00
C280   C     0.14083   0.45351   0.09066   0.00000  Uiso   1.00
H281   H     0.21851   0.56474   0.11464   0.00000  Uiso   1.00
H282   H     0.12689   0.62329   0.11352   0.00000  Uiso   1.00
H283   H     0.18690   0.63532   0.14816   0.00000  Uiso   1.00
H284   H     0.17933   0.35436   0.07533   0.00000  Uiso   1.00
H285   H     0.20537   0.38537   0.12604   0.00000  Uiso   1.00
H286   H     0.10959   0.41457   0.14930   0.00000  Uiso   1.00
H287   H     0.08348   0.38714   0.09905   0.00000  Uiso   1.00
H288   H     0.14638   0.36466   0.35186   0.00000  Uiso   1.00
H289   H     0.20641   0.37671   0.38647   0.00000  Uiso   1.00
H290   H     0.21147   0.33791   0.33432   0.00000  Uiso   1.00
H291   H     0.12794   0.61462   0.37400   0.00000  Uiso   1.00
H292   H     0.11482   0.43526   0.38536   0.00000  Uiso   1.00
H293   H     0.15402   0.64564   0.42469   0.00000  Uiso   1.00
H294   H     0.24986   0.61286   0.40094   0.00000  Uiso   1.00
H295   H     0.22372   0.58543   0.35070   0.00000  Uiso   1.00
H296   H     0.32658   0.38778   0.12165   0.00000  Uiso   1.00
H297   H     0.03212   0.35466   0.16132   0.00000  Uiso   1.00
H298   H     0.29490   0.33436   0.15023   0.00000  Uiso   1.00
H299   H     0.30132   0.38546   0.22308   0.00000  Uiso   1.00
H300   H     0.26107   0.41514   0.18288   0.00000  Uiso   1.00
H301   H     0.00499   0.47865   0.16873   0.00000  Uiso   1.00
H302   H     0.04765   0.44443   0.20286   0.00000  Uiso   1.00
H303   H     0.23975   0.61232   0.04967   0.00000  Uiso   1.00
H304   H     0.30116   0.64533   0.33861   0.00000  Uiso   1.00
H305   H     0.00676   0.61233   0.37832   0.00000  Uiso   1.00
H306   H     0.03836   0.66573   0.34966   0.00000  Uiso   1.00
H307   H     0.07226   0.58488   0.31712   0.00000  Uiso   1.00
H308   H     0.03202   0.61452   0.27688   0.00000  Uiso   1.00
H309   H     0.28568   0.55556   0.29714   0.00000  Uiso   1.00
H310   H     0.32836   0.52137   0.33127   0.00000  Uiso   1.00
H311   H     0.09360   0.38768   0.45033   0.00000  Uiso   1.00
H312   H     0.23679   0.61987   0.47091   0.00000  Uiso   1.00
H313   H     0.09657   0.38011   0.02908   0.00000  Uiso   1.00
H314   H     0.23144   0.33488   0.24807   0.00000  Uiso   1.00
H315   H     0.10190   0.66512   0.25192   0.00000  Uiso   1.00
H316   H     0.12180   0.66208   0.16568   0.00000  Uiso   1.00
N317   N     0.31678   0.48598   0.23783   0.00000  Uiso   1.00
N318   N     0.01656   0.51402   0.26217   0.00000  Uiso   1.00
O319   O     0.12975   0.57952   0.25298   0.00000  Uiso   1.00
O320   O     0.20358   0.42048   0.24701   0.00000  Uiso   1.00
O321   O     0.22613   0.57054   0.24518   0.00000  Uiso   1.00
O322   O     0.10720   0.42946   0.25482   0.00000  Uiso   1.00
O323   O     0.11847   0.50450   0.31998   0.00000  Uiso   1.00
O324   O     0.21486   0.49550   0.18002   0.00000  Uiso   1.00
O325   O     0.21485   0.49552   0.31217   0.00000  Uiso   1.00
O326   O     0.11848   0.50448   0.18782   0.00000  Uiso   1.00
Zn327  Zn    0.10231   0.50600   0.25521   0.00000  Uiso   1.00
Zn328  Zn    0.23102   0.49400   0.24479   0.00000  Uiso   1.00
C329   C     0.51466   0.59779   0.24891   0.00000  Uiso   1.00
C330   C     0.52585   0.54648   0.40934   0.00000  Uiso   1.00
C331   C     0.49846   0.49615   0.11573   0.00000  Uiso   1.00
C332   C     0.50154   0.50384   0.38427   0.00000  Uiso   1.00
C333   C     0.52807   0.53575   0.09492   0.00000  Uiso   1.00
C334   C     0.47194   0.46425   0.40508   0.00000  Uiso   1.00
C335   C     0.52728   0.53847   0.04924   0.00000  Uiso   1.00
C336   C     0.47273   0.46153   0.45076   0.00000  Uiso   1.00
C337   C     0.50009   0.49848   0.02325   0.00000  Uiso   1.00
C338   C     0.49993   0.50152   0.47675   0.00000  Uiso   1.00
C339   C     0.47418   0.45503   0.04361   0.00000  Uiso   1.00
C340   C     0.48534   0.40221   0.25108   0.00000  Uiso   1.00
C341   C     0.52583   0.54496   0.45639   0.00000  Uiso   1.00
C342   C     0.55261   0.58128   0.02952   0.00000  Uiso   1.00
C343   C     0.44740   0.41872   0.47048   0.00000  Uiso   1.00
C344   C     0.45478   0.40518   0.11362   0.00000  Uiso   1.00
C345   C     0.50112   0.36646   0.11088   0.00000  Uiso   1.00
C346   C     0.48292   0.65215   0.13590   0.00000  Uiso   1.00
C347   C     0.54522   0.59482   0.38638   0.00000  Uiso   1.00
C348   C     0.49887   0.63353   0.38913   0.00000  Uiso   1.00
C349   C     0.51704   0.34784   0.36410   0.00000  Uiso   1.00
C350   C     0.33884   0.45577   0.19864   0.00000  Uiso   1.00
C351   C     0.55102   0.58512   0.48378   0.00000  Uiso   1.00
C352   C     0.63643   0.40566   0.19164   0.00000  Uiso   1.00
C353   C     0.65778   0.36859   0.15366   0.00000  Uiso   1.00
C354   C     0.66117   0.54423   0.30135   0.00000  Uiso   1.00
C355   C     0.36357   0.59436   0.30834   0.00000  Uiso   1.00
C356   C     0.34219   0.63146   0.34628   0.00000  Uiso   1.00
C357   C     0.44900   0.41487   0.01622   0.00000  Uiso   1.00
C358   C     0.52227   0.65216   0.24883   0.00000  Uiso   1.00
C359   C     0.47773   0.34784   0.25117   0.00000  Uiso   1.00
C360   C     0.50086   0.50158   0.33619   0.00000  Uiso   1.00
C361   C     0.49914   0.49841   0.16381   0.00000  Uiso   1.00
C362   C     0.47416   0.45351   0.09066   0.00000  Uiso   1.00
H363   H     0.55184   0.56474   0.11464   0.00000  Uiso   1.00
H364   H     0.46022   0.62329   0.11352   0.00000  Uiso   1.00
H365   H     0.52023   0.63532   0.14816   0.00000  Uiso   1.00
H366   H     0.51267   0.35436   0.07533   0.00000  Uiso   1.00
H367   H     0.53870   0.38537   0.12604   0.00000  Uiso   1.00
H368   H     0.44293   0.41457   0.14930   0.00000  Uiso   1.00
H369   H     0.41681   0.38714   0.09905   0.00000  Uiso   1.00
H370   H     0.47971   0.36466   0.35186   0.00000  Uiso   1.00
H371   H     0.53974   0.37671   0.38647   0.00000  Uiso   1.00
H372   H     0.54481   0.33791   0.33432   0.00000  Uiso   1.00
H373   H     0.46127   0.61462   0.37400   0.00000  Uiso   1.00
H374   H     0.44815   0.43526   0.38536   0.00000  Uiso   1.00
H375   H     0.48735   0.64564   0.42469   0.00000  Uiso   1.00
H376   H     0.58319   0.61286   0.40094   0.00000  Uiso   1.00
H377   H     0.55705   0.58543   0.35070   0.00000  Uiso   1.00
H378   H     0.65992   0.38778   0.12165   0.00000  Uiso   1.00
H379   H     0.36545   0.35466   0.16132   0.00000  Uiso   1.00
H380   H     0.62824   0.33436   0.15023   0.00000  Uiso   1.00
H381   H     0.63465   0.38546   0.22308   0.00000  Uiso   1.00
H382   H     0.59440   0.41514   0.18288   0.00000  Uiso   1.00
H383   H     0.33832   0.47865   0.16873   0.00000  Uiso   1.00
H384   H     0.38098   0.44443   0.20286   0.00000  Uiso   1.00
H385   H     0.57308   0.61232   0.04967   0.00000  Uiso   1.00
H386   H     0.63449   0.64533   0.33861   0.00000  Uiso   1.00
H387   H     0.34009   0.61233   0.37832   0.00000  Uiso   1.00
H388   H     0.37170   0.66573   0.34966   0.00000  Uiso   1.00
H389   H     0.40559   0.58488   0.31712   0.00000  Uiso   1.00
H390   H     0.36536   0.61452   0.27688   0.00000  Uiso   1.00
H391   H     0.61902   0.55556   0.29714   0.00000  Uiso   1.00
H392   H     0.66169   0.52137   0.33127   0.00000  Uiso   1.00
H393   H     0.42693   0.38768   0.45033   0.00000  Uiso   1.00
H394   H     0.57012   0.61987   0.47091   0.00000  Uiso   1.00
H395   H     0.42990   0.38011   0.02908   0.00000  Uiso   1.00
H396   H     0.56477   0.33488   0.24807   0.00000  Uiso   1.00
H397   H     0.43523   0.66512   0.25192   0.00000  Uiso   1.00
H398   H     0.45514   0.66208   0.16568   0.00000  Uiso   1.00
N399   N     0.65011   0.48598   0.23783   0.00000  Uiso   1.00
N400   N     0.34989   0.51402   0.26217   0.00000  Uiso   1.00
O401   O     0.46308   0.57952   0.25298   0.00000  Uiso   1.00
O402   O     0.53692   0.42048   0.24701   0.00000  Uiso   1.00
O403   O     0.55946   0.57054   0.24518   0.00000  Uiso   1.00
O404   O     0.44054   0.42946   0.25482   0.00000  Uiso   1.00
O405   O     0.45181   0.50450   0.31998   0.00000  Uiso   1.00
O406   O     0.54819   0.49550   0.18002   0.00000  Uiso   1.00
O407   O     0.54819   0.49552   0.31217   0.00000  Uiso   1.00
O408   O     0.45181   0.50448   0.18782   0.00000  Uiso   1.00
Zn409  Zn    0.43565   0.50600   0.25521   0.00000  Uiso   1.00
Zn410  Zn    0.56435   0.49400   0.24479   0.00000  Uiso   1.00
C411   C     0.84799   0.59779   0.24891   0.00000  Uiso   1.00
C412   C     0.85918   0.54648   0.40934   0.00000  Uiso   1.00
C413   C     0.83179   0.49615   0.11573   0.00000  Uiso   1.00
C414   C     0.83487   0.50384   0.38427   0.00000  Uiso   1.00
C415   C     0.86140   0.53575   0.09492   0.00000  Uiso   1.00
C416   C     0.80527   0.46425   0.40508   0.00000  Uiso   1.00
C417   C     0.86061   0.53847   0.04924   0.00000  Uiso   1.00
C418   C     0.80607   0.46153   0.45076   0.00000  Uiso   1.00
C419   C     0.83342   0.49848   0.02325   0.00000  Uiso   1.00
C420   C     0.83326   0.50152   0.47675   0.00000  Uiso   1.00
C421   C     0.80751   0.45503   0.04361   0.00000  Uiso   1.00
C422   C     0.81867   0.40221   0.25108   0.00000  Uiso   1.00
C423   C     0.85917   0.54496   0.45639   0.00000  Uiso   1.00
C424   C     0.88594   0.58128   0.02952   0.00000  Uiso   1.00
C425   C     0.78074   0.41872   0.47048   0.00000  Uiso   1.00
C426   C     0.78811   0.40518   0.11362   0.00000  Uiso   1.00
C427   C     0.83445   0.36646   0.11088   0.00000  Uiso   1.00
C428   C     0.81625   0.65215   0.13590   0.00000  Uiso   1.00
C429   C     0.87855   0.59482   0.38638   0.00000  Uiso   1.00
C430   C     0.83220   0.63353   0.38913   0.00000  Uiso   1.00
C431   C     0.85037   0.34784   0.36410   0.00000  Uiso   1.00
C432   C     0.67217   0.45577   0.19864   0.00000  Uiso   1.00
C433   C     0.88435   0.58512   0.48378   0.00000  Uiso   1.00
C434   C     0.96976   0.40566   0.19164   0.00000  Uiso   1.00
C435   C     0.99112   0.36859   0.15366   0.00000  Uiso   1.00
C436   C     0.99450   0.54423   0.30135   0.00000  Uiso   1.00
C437   C     0.69690   0.59436   0.30834   0.00000  Uiso   1.00
C438   C     0.67552   0.63146   0.34628   0.00000  Uiso   1.00
C439   C     0.78233   0.41487   0.01622   0.00000  Uiso   1.00
C440   C     0.85561   0.65216   0.24883   0.00000  Uiso   1.00
C441   C     0.81106   0.34784   0.25117   0.00000  Uiso   1.00
C442   C     0.83419   0.50158   0.33619   0.00000  Uiso   1.00
C443   C     0.83248   0.49841   0.16381   0.00000  Uiso   1.00
C444   C     0.80749   0.45351   0.09066   0.00000  Uiso   1.00
H445   H     0.88517   0.56474   0.11464   0.00000  Uiso   1.00
H446   H     0.79355   0.62329   0.11352   0.00000  Uiso   1.00
H447   H     0.85356   0.63532   0.14816   0.00000  Uiso   1.00
H448   H     0.84600   0.35436   0.07533   0.00000  Uiso   1.00
H449   H     0.87203   0.38537   0.12604   0.00000  Uiso   1.00
H450   H     0.77626   0.41457   0.14930   0.00000  Uiso   1.00
H451   H     0.75014   0.38714   0.09905   0.00000  Uiso   1.00
H452   H     0.81305   0.36466   0.35186   0.00000  Uiso   1.00
H453   H     0.87308   0.37671   0.38647   0.00000  Uiso   1.00
H454   H     0.87814   0.33791   0.33432   0.00000  Uiso   1.00
H455   H     0.79461   0.61462   0.37400   0.00000  Uiso   1.00
H456   H     0.78149   0.43526   0.38536   0.00000  Uiso   1.00
H457   H     0.82068   0.64564   0.42469   0.00000  Uiso   1.00
H458   H     0.91653   0.61286   0.40094   0.00000  Uiso   1.00
H459   H     0.89039   0.58543   0.35070   0.00000  Uiso   1.00
H460   H     0.99325   0.38778   0.12165   0.00000  Uiso   1.00
H461   H     0.69878   0.35466   0.16132   0.00000  Uiso   1.00
H462   H     0.96157   0.33436   0.15023   0.00000  Uiso   1.00
H463   H     0.96798   0.38546   0.22308   0.00000  Uiso   1.00
H464   H     0.92773   0.41514   0.18288   0.00000  Uiso   1.00
H465   H     0.67166   0.47865   0.16873   0.00000  Uiso   1.00
H466   H     0.71431   0.44443   0.20286   0.00000  Uiso   1.00
H467   H     0.90641   0.61232   0.04967   0.00000  Uiso   1.00
H468   H     0.96783   0.64533   0.33861   0.00000  Uiso   1.00
H469   H     0.67343   0.61233   0.37832   0.00000  Uiso   1.00
H470   H     0.70503   0.66573   0.34966   0.00000  Uiso   1.00
H471   H     0.73893   0.58488   0.31712   0.00000  Uiso   1.00
H472   H     0.69869   0.61452   0.27688   0.00000  Uiso   1.00
H473   H     0.95235   0.55556   0.29714   0.00000  Uiso   1.00
H474   H     0.99503   0.52137   0.33127   0.00000  Uiso   1.00
H475   H     0.76026   0.38768   0.45033   0.00000  Uiso   1.00
H476   H     0.90345   0.61987   0.47091   0.00000  Uiso   1.00
H477   H     0.76324   0.38011   0.02908   0.00000  Uiso   1.00
H478   H     0.89810   0.33488   0.24807   0.00000  Uiso   1.00
H479   H     0.76856   0.66512   0.25192   0.00000  Uiso   1.00
H480   H     0.78847   0.66208   0.16568   0.00000  Uiso   1.00
N481   N     0.98344   0.48598   0.23783   0.00000  Uiso   1.00
N482   N     0.68322   0.51402   0.26217   0.00000  Uiso   1.00
O483   O     0.79642   0.57952   0.25298   0.00000  Uiso   1.00
O484   O     0.87025   0.42048   0.24701   0.00000  Uiso   1.00
O485   O     0.89280   0.57054   0.24518   0.00000  Uiso   1.00
O486   O     0.77387   0.42946   0.25482   0.00000  Uiso   1.00
O487   O     0.78514   0.50450   0.31998   0.00000  Uiso   1.00
O488   O     0.88153   0.49550   0.18002   0.00000  Uiso   1.00
O489   O     0.88152   0.49552   0.31217   0.00000  Uiso   1.00
O490   O     0.78515   0.50448   0.18782   0.00000  Uiso   1.00
Zn491  Zn    0.76898   0.50600   0.25521   0.00000  Uiso   1.00
Zn492  Zn    0.89769   0.49400   0.24479   0.00000  Uiso   1.00
C493   C     0.18133   0.93112   0.24891   0.00000  Uiso   1.00
C494   C     0.19252   0.87982   0.40934   0.00000  Uiso   1.00
C495   C     0.16513   0.82949   0.11573   0.00000  Uiso   1.00
C496   C     0.16821   0.83718   0.38427   0.00000  Uiso   1.00
C497   C     0.19473   0.86909   0.09492   0.00000  Uiso   1.00
C498   C     0.13860   0.79758   0.40508   0.00000  Uiso   1.00
C499   C     0.19394   0.87180   0.04924   0.00000  Uiso   1.00
C500   C     0.13940   0.79486   0.45076   0.00000  Uiso   1.00
C501   C     0.16675   0.83181   0.02325   0.00000  Uiso   1.00
C502   C     0.16659   0.83485   0.47675   0.00000  Uiso   1.00
C503   C     0.14085   0.78837   0.04361   0.00000  Uiso   1.00
C504   C     0.15201   0.73555   0.25108   0.00000  Uiso   1.00
C505   C     0.19250   0.87829   0.45639   0.00000  Uiso   1.00
C506   C     0.21928   0.91461   0.02952   0.00000  Uiso   1.00
C507   C     0.11407   0.75205   0.47048   0.00000  Uiso   1.00
C508   C     0.12145   0.73851   0.11362   0.00000  Uiso   1.00
C509   C     0.16779   0.69980   0.11088   0.00000  Uiso   1.00
C510   C     0.14958   0.98548   0.13590   0.00000  Uiso   1.00
C511   C     0.21188   0.92815   0.38638   0.00000  Uiso   1.00
C512   C     0.16554   0.96686   0.38913   0.00000  Uiso   1.00
C513   C     0.18371   0.68118   0.36410   0.00000  Uiso   1.00
C514   C     0.00550   0.78911   0.19864   0.00000  Uiso   1.00
C515   C     0.21769   0.91845   0.48378   0.00000  Uiso   1.00
C516   C     0.30310   0.73899   0.19164   0.00000  Uiso   1.00
C517   C     0.32445   0.70193   0.15366   0.00000  Uiso   1.00
C518   C     0.32783   0.87757   0.30135   0.00000  Uiso   1.00
C519   C     0.03023   0.92769   0.30834   0.00000  Uiso   1.00
C520   C     0.00885   0.96479   0.34628   0.00000  Uiso   1.00
C521   C     0.11567   0.74820   0.01622   0.00000  Uiso   1.00
C522   C     0.18894   0.98549   0.24883   0.00000  Uiso   1.00
C523   C     0.14439   0.68117   0.25117   0.00000  Uiso   1.00
C524   C     0.16752   0.83492   0.33619   0.00000  Uiso   1.00
C525   C     0.16581   0.83175   0.16381   0.00000  Uiso   1.00
C526   C     0.14083   0.78684   0.09066   0.00000  Uiso   1.00
H527   H     0.21851   0.89807   0.11464   0.00000  Uiso   1.00
H528   H     0.12689   0.95662   0.11352   0.00000  Uiso   1.00
H529   H     0.18690   0.96865   0.14816   0.00000  Uiso   1.00
H530   H     0.17933   0.68769   0.07533   0.00000  Uiso   1.00
H531   H     0.20537   0.71870   0.12604   0.00000  Uiso   1.00
H532   H     0.10959   0.74790   0.14930   0.00000  Uiso   1.00
H533   H     0.08348   0.72047   0.09905   0.00000  Uiso   1.00
H534   H     0.14638   0.69799   0.35186   0.00000  Uiso   1.00
H535   H     0.20641   0.71004   0.38647   0.00000  Uiso   1.00
H536   H     0.21147   0.67125   0.33432   0.00000  Uiso   1.00
H537   H     0.12794   0.94796   0.37400   0.00000  Uiso   1.00
H538   H     0.11482   0.76860   0.38536   0.00000  Uiso   1.00
H539   H     0.15402   0.97897   0.42469   0.00000  Uiso   1.00
H540   H     0.24986   0.94620   0.40094   0.00000  Uiso   1.00
H541   H     0.22372   0.91877   0.35070   0.00000  Uiso   1.00
H542   H     0.32658   0.72111   0.12165   0.00000  Uiso   1.00
H543   H     0.03212   0.68799   0.16132   0.00000  Uiso   1.00
H544   H     0.29490   0.66770   0.15023   0.00000  Uiso   1.00
H545   H     0.30132   0.71879   0.22308   0.00000  Uiso   1.00
H546   H     0.26107   0.74848   0.18288   0.00000  Uiso   1.00
H547   H     0.00499   0.81198   0.16873   0.00000  Uiso   1.00
H548   H     0.04765   0.77776   0.20286   0.00000  Uiso   1.00
H549   H     0.23975   0.94565   0.04967   0.00000  Uiso   1.00
H550   H     0.30116   0.97867   0.33861   0.00000  Uiso   1.00
H551   H     0.00676   0.94567   0.37832   0.00000  Uiso   1.00
H552   H     0.03836   0.99906   0.34966   0.00000  Uiso   1.00
H553   H     0.07226   0.91822   0.31712   0.00000  Uiso   1.00
H554   H     0.03202   0.94786   0.27688   0.00000  Uiso   1.00
H555   H     0.28568   0.88890   0.29714   0.00000  Uiso   1.00
H556   H     0.32836   0.85471   0.33127   0.00000  Uiso   1.00
H557   H     0.09360   0.72101   0.45033   0.00000  Uiso   1.00
H558   H     0.23679   0.95321   0.47091   0.00000  Uiso   1.00
H559   H     0.09657   0.71345   0.02908   0.00000  Uiso   1.00
H560   H     0.23144   0.66822   0.24807   0.00000  Uiso   1.00
H561   H     0.10190   0.99845   0.25192   0.00000  Uiso   1.00
H562   H     0.12180   0.99541   0.16568   0.00000  Uiso   1.00
N563   N     0.31678   0.81932   0.23783   0.00000  Uiso   1.00
N564   N     0.01656   0.84735   0.26217   0.00000  Uiso   1.00
O565   O     0.12975   0.91286   0.25298   0.00000  Uiso   1.00
O566   O     0.20358   0.75381   0.24701   0.00000  Uiso   1.00
O567   O     0.22613   0.90387   0.24518   0.00000  Uiso   1.00
O568   O     0.10720   0.76279   0.25482   0.00000  Uiso   1.00
O569   O     0.11847   0.83784   0.31998   0.00000  Uiso   1.00
O570   O     0.21486   0.82883   0.18002   0.00000  Uiso   1.00
O571   O     0.21485   0.82885   0.31217   0.00000  Uiso   1.00
O572   O     0.11848   0.83781   0.18782   0.00000  Uiso   1.00
Zn573  Zn    0.10231   0.83933   0.25521   0.00000  Uiso   1.00
Zn574  Zn    0.23102   0.82734   0.24479   0.00000  Uiso   1.00
C575   C     0.51466   0.93112   0.24891   0.00000  Uiso   1.00
C576   C     0.52585   0.87982   0.40934   0.00000  Uiso   1.00
C577   C     0.49846   0.82949   0.11573   0.00000  Uiso   1.00
C578   C     0.50154   0.83718   0.38427   0.00000  Uiso   1.00
C579   C     0.52807   0.86909   0.09492   0.00000  Uiso   1.00
C580   C     0.47194   0.79758   0.40508   0.00000  Uiso   1.00
C581   C     0.52728   0.87180   0.04924   0.00000  Uiso   1.00
C582   C     0.47273   0.79486   0.45076   0.00000  Uiso   1.00
C583   C     0.50009   0.83181   0.02325   0.00000  Uiso   1.00
C584   C     0.49993   0.83485   0.47675   0.00000  Uiso   1.00
C585   C     0.47418   0.78837   0.04361   0.00000  Uiso   1.00
C586   C     0.48534   0.73555   0.25108   0.00000  Uiso   1.00
C587   C     0.52583   0.87829   0.45639   0.00000  Uiso   1.00
C588   C     0.55261   0.91461   0.02952   0.00000  Uiso   1.00
C589   C     0.44740   0.75205   0.47048   0.00000  Uiso   1.00
C590   C     0.45478   0.73851   0.11362   0.00000  Uiso   1.00
C591   C     0.50112   0.69980   0.11088   0.00000  Uiso   1.00
C592   C     0.48292   0.98548   0.13590   0.00000  Uiso   1.00
C593   C     0.54522   0.92815   0.38638   0.00000  Uiso   1.00
C594   C     0.49887   0.96686   0.38913   0.00000  Uiso   1.00
C595   C     0.51704   0.68118   0.36410   0.00000  Uiso   1.00
C596   C     0.33884   0.78911   0.19864   0.00000  Uiso   1.00
C597   C     0.55102   0.91845   0.48378   0.00000  Uiso   1.00
C598   C     0.63643   0.73899   0.19164   0.00000  Uiso   1.00
C599   C     0.65778   0.70193   0.15366   0.00000  Uiso   1.00
C600   C     0.66117   0.87757   0.30135   0.00000  Uiso   1.00
C601   C     0.36357   0.92769   0.30834   0.00000  Uiso   1.00
C602   C     0.34219   0.96479   0.34628   0.00000  Uiso   1.00
C603   C     0.44900   0.74820   0.01622   0.00000  Uiso   1.00
C604   C     0.52227   0.98549   0.24883   0.00000  Uiso   1.00
C605   C     0.47773   0.68117   0.25117   0.00000  Uiso   1.00
C606   C     0.50086   0.83492   0.33619   0.00000  Uiso   1.00
C607   C     0.49914   0.83175   0.16381   0.00000  Uiso   1.00
C608   C     0.47416   0.78684   0.09066   0.00000  Uiso   1.00
H609   H     0.55184   0.89807   0.11464   0.00000  Uiso   1.00
H610   H     0.46022   0.95662   0.11352   0.00000  Uiso   1.00
H611   H     0.52023   0.96865   0.14816   0.00000  Uiso   1.00
H612   H     0.51267   0.68769   0.07533   0.00000  Uiso   1.00
H613   H     0.53870   0.71870   0.12604   0.00000  Uiso   1.00
H614   H     0.44293   0.74790   0.14930   0.00000  Uiso   1.00
H615   H     0.41681   0.72047   0.09905   0.00000  Uiso   1.00
H616   H     0.47971   0.69799   0.35186   0.00000  Uiso   1.00
H617   H     0.53974   0.71004   0.38647   0.00000  Uiso   1.00
H618   H     0.54481   0.67125   0.33432   0.00000  Uiso   1.00
H619   H     0.46127   0.94796   0.37400   0.00000  Uiso   1.00
H620   H     0.44815   0.76860   0.38536   0.00000  Uiso   1.00
H621   H     0.48735   0.97897   0.42469   0.00000  Uiso   1.00
H622   H     0.58319   0.94620   0.40094   0.00000  Uiso   1.00
H623   H     0.55705   0.91877   0.35070   0.00000  Uiso   1.00
H624   H     0.65992   0.72111   0.12165   0.00000  Uiso   1.00
H625   H     0.36545   0.68799   0.16132   0.00000  Uiso   1.00
H626   H     0.62824   0.66770   0.15023   0.00000  Uiso   1.00
H627   H     0.63465   0.71879   0.22308   0.00000  Uiso   1.00
H628   H     0.59440   0.74848   0.18288   0.00000  Uiso   1.00
H629   H     0.33832   0.81198   0.16873   0.00000  Uiso   1.00
H630   H     0.38098   0.77776   0.20286   0.00000  Uiso   1.00
H631   H     0.57308   0.94565   0.04967   0.00000  Uiso   1.00
H632   H     0.63449   0.97867   0.33861   0.00000  Uiso   1.00
H633   H     0.34009   0.94567   0.37832   0.00000  Uiso   1.00
H634   H     0.37170   0.99906   0.34966   0.00000  Uiso   1.00
H635   H     0.40559   0.91822   0.31712   0.00000  Uiso   1.00
H636   H     0.36536   0.94786   0.27688   0.00000  Uiso   1.00
H637   H     0.61902   0.88890   0.29714   0.00000  Uiso   1.00
H638   H     0.66169   0.85471   0.33127   0.00000  Uiso   1.00
H639   H     0.42693   0.72101   0.45033   0.00000  Uiso   1.00
H640   H     0.57012   0.95321   0.47091   0.00000  Uiso   1.00
H641   H     0.42990   0.71345   0.02908   0.00000  Uiso   1.00
H642   H     0.56477   0.66822   0.24807   0.00000  Uiso   1.00
H643   H     0.43523   0.99845   0.25192   0.00000  Uiso   1.00
H644   H     0.45514   0.99541   0.16568   0.00000  Uiso   1.00
N645   N     0.65011   0.81932   0.23783   0.00000  Uiso   1.00
N646   N     0.34989   0.84735   0.26217   0.00000  Uiso   1.00
O647   O     0.46308   0.91286   0.25298   0.00000  Uiso   1.00
O648   O     0.53692   0.75381   0.24701   0.00000  Uiso   1.00
O649   O     0.55946   0.90387   0.24518   0.00000  Uiso   1.00
O650   O     0.44054   0.76279   0.25482   0.00000  Uiso   1.00
O651   O     0.45181   0.83784   0.31998   0.00000  Uiso   1.00
O652   O     0.54819   0.82883   0.18002   0.00000  Uiso   1.00
O653   O     0.54819   0.82885   0.31217   0.00000  Uiso   1.00
O654   O     0.45181   0.83781   0.18782   0.00000  Uiso   1.00
Zn655  Zn    0.43565   0.83933   0.25521   0.00000  Uiso   1.00
Zn656  Zn    0.56435   0.82734   0.24479   0.00000  Uiso   1.00
C657   C     0.84799   0.93112   0.24891   0.00000  Uiso   1.00
C658   C     0.85918   0.87982   0.40934   0.00000  Uiso   1.00
C659   C     0.83179   0.82949   0.11573   0.00000  Uiso   1.00
C660   C     0.83487   0.83718   0.38427   0.00000  Uiso   1.00
C661   C     0.86140   0.86909   0.09492   0.00000  Uiso   1.00
C662   C     0.80527   0.79758   0.40508   0.00000  Uiso   1.00
C663   C     0.86061   0.87180   0.04924   0.00000  Uiso   1.00
C664   C     0.80607   0.79486   0.45076   0.00000  Uiso   1.00
C665   C     0.83342   0.83181   0.02325   0.00000  Uiso   1.00
C666   C     0.83326   0.83485   0.47675   0.00000  Uiso   1.00
C667   C     0.80751   0.78837   0.04361   0.00000  Uiso   1.00
C668   C     0.81867   0.73555   0.25108   0.00000  Uiso   1.00
C669   C     0.85917   0.87829   0.45639   0.00000  Uiso   1.00
C670   C     0.88594   0.91461   0.02952   0.00000  Uiso   1.00
C671   C     0.78074   0.75205   0.47048   0.00000  Uiso   1.00
C672   C     0.78811   0.73851   0.11362   0.00000  Uiso   1.00
C673   C     0.83445   0.69980   0.11088   0.00000  Uiso   1.00
C674   C     0.81625   0.98548   0.13590   0.00000  Uiso   1.00
C675   C     0.87855   0.92815   0.38638   0.00000  Uiso   1.00
C676   C     0.83220   0.96686   0.38913   0.00000  Uiso   1.00
C677   C     0.85037   0.68118   0.36410   0.00000  Uiso   1.00
C678   C     0.67217   0.78911   0.19864   0.00000  Uiso   1.00
C679   C     0.88435   0.91845   0.48378   0.00000  Uiso   1.00
C680   C     0.96976   0.73899   0.19164   0.00000  Uiso   1.00
C681   C     0.99112   0.70193   0.15366   0.00000  Uiso   1.00
C682   C     0.99450   0.87757   0.30135   0.00000  Uiso   1.00
C683   C     0.69690   0.92769   0.30834   0.00000  Uiso   1.00
C684   C     0.67552   0.96479   0.34628   0.00000  Uiso   1.00
C685   C     0.78233   0.74820   0.01622   0.00000  Uiso   1.00
C686   C     0.85561   0.98549   0.24883   0.00000  Uiso   1.00
C687   C     0.81106   0.68117   0.25117   0.00000  Uiso   1.00
C688   C     0.83419   0.83492   0.33619   0.00000  Uiso   1.00
C689   C     0.83248   0.83175   0.16381   0.00000  Uiso   1.00
C690   C     0.80749   0.78684   0.09066   0.00000  Uiso   1.00
H691   H     0.88517   0.89807   0.11464   0.00000  Uiso   1.00
H692   H     0.79355   0.95662   0.11352   0.00000  Uiso   1.00
H693   H     0.85356   0.96865   0.14816   0.00000  Uiso   1.00
H694   H     0.84600   0.68769   0.07533   0.00000  Uiso   1.00
H695   H     0.87203   0.71870   0.12604   0.00000  Uiso   1.00
H696   H     0.77626   0.74790   0.14930   0.00000  Uiso   1.00
H697   H     0.75014   0.72047   0.09905   0.00000  Uiso   1.00
H698   H     0.81305   0.69799   0.35186   0.00000  Uiso   1.00
H699   H     0.87308   0.71004   0.38647   0.00000  Uiso   1.00
H700   H     0.87814   0.67125   0.33432   0.00000  Uiso   1.00
H701   H     0.79461   0.94796   0.37400   0.00000  Uiso   1.00
H702   H     0.78149   0.76860   0.38536   0.00000  Uiso   1.00
H703   H     0.82068   0.97897   0.42469   0.00000  Uiso   1.00
H704   H     0.91653   0.94620   0.40094   0.00000  Uiso   1.00
H705   H     0.89039   0.91877   0.35070   0.00000  Uiso   1.00
H706   H     0.99325   0.72111   0.12165   0.00000  Uiso   1.00
H707   H     0.69878   0.68799   0.16132   0.00000  Uiso   1.00
H708   H     0.96157   0.66770   0.15023   0.00000  Uiso   1.00
H709   H     0.96798   0.71879   0.22308   0.00000  Uiso   1.00
H710   H     0.92773   0.74848   0.18288   0.00000  Uiso   1.00
H711   H     0.67166   0.81198   0.16873   0.00000  Uiso   1.00
H712   H     0.71431   0.77776   0.20286   0.00000  Uiso   1.00
H713   H     0.90641   0.94565   0.04967   0.00000  Uiso   1.00
H714   H     0.96783   0.97867   0.33861   0.00000  Uiso   1.00
H715   H     0.67343   0.94567   0.37832   0.00000  Uiso   1.00
H716   H     0.70503   0.99906   0.34966   0.00000  Uiso   1.00
H717   H     0.73893   0.91822   0.31712   0.00000  Uiso   1.00
H718   H     0.69869   0.94786   0.27688   0.00000  Uiso   1.00
H719   H     0.95235   0.88890   0.29714   0.00000  Uiso   1.00
H720   H     0.99503   0.85471   0.33127   0.00000  Uiso   1.00
H721   H     0.76026   0.72101   0.45033   0.00000  Uiso   1.00
H722   H     0.90345   0.95321   0.47091   0.00000  Uiso   1.00
H723   H     0.76324   0.71345   0.02908   0.00000  Uiso   1.00
H724   H     0.89810   0.66822   0.24807   0.00000  Uiso   1.00
H725   H     0.76856   0.99845   0.25192   0.00000  Uiso   1.00
H726   H     0.78847   0.99541   0.16568   0.00000  Uiso   1.00
N727   N     0.98344   0.81932   0.23783   0.00000  Uiso   1.00
N728   N     0.68322   0.84735   0.26217   0.00000  Uiso   1.00
O729   O     0.79642   0.91286   0.25298   0.00000  Uiso   1.00
O730   O     0.87025   0.75381   0.24701   0.00000  Uiso   1.00
O731   O     0.89280   0.90387   0.24518   0.00000  Uiso   1.00
O732   O     0.77387   0.76279   0.25482   0.00000  Uiso   1.00
O733   O     0.78514   0.83784   0.31998   0.00000  Uiso   1.00
O734   O     0.88153   0.82883   0.18002   0.00000  Uiso   1.00
O735   O     0.88152   0.82885   0.31217   0.00000  Uiso   1.00
O736   O     0.78515   0.83781   0.18782   0.00000  Uiso   1.00
Zn737  Zn    0.76898   0.83933   0.25521   0.00000  Uiso   1.00
Zn738  Zn    0.89769   0.82734   0.24479   0.00000  Uiso   1.00
C739   C     0.18133   0.26445   0.74891   0.00000  Uiso   1.00
C740   C     0.19252   0.21315   0.90934   0.00000  Uiso   1.00
C741   C     0.16513   0.16282   0.61573   0.00000  Uiso   1.00
C742   C     0.16821   0.17051   0.88427   0.00000  Uiso   1.00
C743   C     0.19473   0.20242   0.59492   0.00000  Uiso   1.00
C744   C     0.13860   0.13091   0.90508   0.00000  Uiso   1.00
C745   C     0.19394   0.20514   0.54924   0.00000  Uiso   1.00
C746   C     0.13940   0.12819   0.95076   0.00000  Uiso   1.00
C747   C     0.16675   0.16514   0.52325   0.00000  Uiso   1.00
C748   C     0.16659   0.16818   0.97675   0.00000  Uiso   1.00
C749   C     0.14085   0.12170   0.54361   0.00000  Uiso   1.00
C750   C     0.15201   0.06888   0.75108   0.00000  Uiso   1.00
C751   C     0.19250   0.21163   0.95639   0.00000  Uiso   1.00
C752   C     0.21928   0.24795   0.52952   0.00000  Uiso   1.00
C753   C     0.11407   0.08538   0.97048   0.00000  Uiso   1.00
C754   C     0.12145   0.07184   0.61362   0.00000  Uiso   1.00
C755   C     0.16779   0.03313   0.61088   0.00000  Uiso   1.00
C756   C     0.14958   0.31881   0.63590   0.00000  Uiso   1.00
C757   C     0.21188   0.26149   0.88638   0.00000  Uiso   1.00
C758   C     0.16554   0.30020   0.88913   0.00000  Uiso   1.00
C759   C     0.18371   0.01451   0.86410   0.00000  Uiso   1.00
C760   C     0.00550   0.12244   0.69864   0.00000  Uiso   1.00
C761   C     0.21769   0.25179   0.98378   0.00000  Uiso   1.00
C762   C     0.30310   0.07232   0.69164   0.00000  Uiso   1.00
C763   C     0.32445   0.03526   0.65366   0.00000  Uiso   1.00
C764   C     0.32783   0.21090   0.80135   0.00000  Uiso   1.00
C765   C     0.03023   0.26103   0.80834   0.00000  Uiso   1.00
C766   C     0.00885   0.29812   0.84628   0.00000  Uiso   1.00
C767   C     0.11567   0.08154   0.51622   0.00000  Uiso   1.00
C768   C     0.18894   0.31883   0.74883   0.00000  Uiso   1.00
C769   C     0.14439   0.01451   0.75117   0.00000  Uiso   1.00
C770   C     0.16752   0.16825   0.83619   0.00000  Uiso   1.00
C771   C     0.16581   0.16508   0.66381   0.00000  Uiso   1.00
C772   C     0.14083   0.12018   0.59066   0.00000  Uiso   1.00
H773   H     0.21851   0.23141   0.61464   0.00000  Uiso   1.00
H774   H     0.12689   0.28996   0.61352   0.00000  Uiso   1.00
H775   H     0.18690   0.30198   0.64816   0.00000  Uiso   1.00
H776   H     0.17933   0.02103   0.57533   0.00000  Uiso   1.00
H777   H     0.20537   0.05203   0.62604   0.00000  Uiso   1.00
H778   H     0.10959   0.08124   0.64930   0.00000  Uiso   1.00
H779   H     0.08348   0.05380   0.59905   0.00000  Uiso   1.00
H780   H     0.14638   0.03133   0.85186   0.00000  Uiso   1.00
H781   H     0.20641   0.04338   0.88647   0.00000  Uiso   1.00
H782   H     0.21147   0.00458   0.83432   0.00000  Uiso   1.00
H783   H     0.12794   0.28129   0.87400   0.00000  Uiso   1.00
H784   H     0.11482   0.10193   0.88536   0.00000  Uiso   1.00
H785   H     0.15402   0.31230   0.92469   0.00000  Uiso   1.00
H786   H     0.24986   0.27953   0.90094   0.00000  Uiso   1.00
H787   H     0.22372   0.25210   0.85070   0.00000  Uiso   1.00
H788   H     0.32658   0.05444   0.62165   0.00000  Uiso   1.00
H789   H     0.03212   0.02132   0.66132   0.00000  Uiso   1.00
H790   H     0.29490   0.00103   0.65023   0.00000  Uiso   1.00
H791   H     0.30132   0.05212   0.72308   0.00000  Uiso   1.00
H792   H     0.26107   0.08181   0.68288   0.00000  Uiso   1.00
H793   H     0.00499   0.14531   0.66873   0.00000  Uiso   1.00
H794   H     0.04765   0.11110   0.70286   0.00000  Uiso   1.00
H795   H     0.23975   0.27899   0.54967   0.00000  Uiso   1.00
H796   H     0.30116   0.31200   0.83861   0.00000  Uiso   1.00
H797   H     0.00676   0.27900   0.87832   0.00000  Uiso   1.00
H798   H     0.03836   0.33239   0.84966   0.00000  Uiso   1.00
H799   H     0.07226   0.25155   0.81712   0.00000  Uiso   1.00
H800   H     0.03202   0.28119   0.77688   0.00000  Uiso   1.00
H801   H     0.28568   0.22223   0.79714   0.00000  Uiso   1.00
H802   H     0.32836   0.18804   0.83127   0.00000  Uiso   1.00
H803   H     0.09360   0.05434   0.95033   0.00000  Uiso   1.00
H804   H     0.23679   0.28654   0.97091   0.00000  Uiso   1.00
H805   H     0.09657   0.04678   0.52908   0.00000  Uiso   1.00
H806   H     0.23144   0.00155   0.74807   0.00000  Uiso   1.00
H807   H     0.10190   0.33178   0.75192   0.00000  Uiso   1.00
H808   H     0.12180   0.32875   0.66568   0.00000  Uiso   1.00
N809   N     0.31678   0.15265   0.73783   0.00000  Uiso   1.00
N810   N     0.01656   0.18068   0.76217   0.00000  Uiso   1.00
O811   O     0.12975   0.24619   0.75298   0.00000  Uiso   1.00
O812   O     0.20358   0.08714   0.74701   0.00000  Uiso   1.00
O813   O     0.22613   0.23721   0.74518   0.00000  Uiso   1.00
O814   O     0.10720   0.09613   0.75482   0.00000  Uiso   1.00
O815   O     0.11847   0.17117   0.81998   0.00000  Uiso   1.00
O816   O     0.21486   0.16216   0.68002   0.00000  Uiso   1.00
O817   O     0.21485   0.16219   0.81217   0.00000  Uiso   1.00
O818   O     0.11848   0.17115   0.68782   0.00000  Uiso   1.00
Zn819  Zn    0.10231   0.17266   0.75521   0.00000  Uiso   1.00
Zn820  Zn    0.23102   0.16067   0.74479   0.00000  Uiso   1.00
C821   C     0.51466   0.26445   0.74891   0.00000  Uiso   1.00
C822   C     0.52585   0.21315   0.90934   0.00000  Uiso   1.00
C823   C     0.49846   0.16282   0.61573   0.00000  Uiso   1.00
C824   C     0.50154   0.17051   0.88427   0.00000  Uiso   1.00
C825   C     0.52807   0.20242   0.59492   0.00000  Uiso   1.00
C826   C     0.47194   0.13091   0.90508   0.00000  Uiso   1.00
C827   C     0.52728   0.20514   0.54924   0.00000  Uiso   1.00
C828   C     0.47273   0.12819   0.95076   0.00000  Uiso   1.00
C829   C     0.50009   0.16514   0.52325   0.00000  Uiso   1.00
C830   C     0.49993   0.16818   0.97675   0.00000  Uiso   1.00
C831   C     0.47418   0.12170   0.54361   0.00000  Uiso   1.00
C832   C     0.48534   0.06888   0.75108   0.00000  Uiso   1.00
C833   C     0.52583   0.21163   0.95639   0.00000  Uiso   1.00
C834   C     0.55261   0.24795   0.52952   0.00000  Uiso   1.00
C835   C     0.44740   0.08538   0.97048   0.00000  Uiso   1.00
C836   C     0.45478   0.07184   0.61362   0.00000  Uiso   1.00
C837   C     0.50112   0.03313   0.61088   0.00000  Uiso   1.00
C838   C     0.48292   0.31881   0.63590   0.00000  Uiso   1.00
C839   C     0.54522   0.26149   0.88638   0.00000  Uiso   1.00
C840   C     0.49887   0.30020   0.88913   0.00000  Uiso   1.00
C841   C     0.51704   0.01451   0.86410   0.00000  Uiso   1.00
C842   C     0.33884   0.12244   0.69864   0.00000  Uiso   1.00
C843   C     0.55102   0.25179   0.98378   0.00000  Uiso   1.00
C844   C     0.63643   0.07232   0.69164   0.00000  Uiso   1.00
C845   C     0.65778   0.03526   0.65366   0.00000  Uiso   1.00
C846   C     0.66117   0.21090   0.80135   0.00000  Uiso   1.00
C847   C     0.36357   0.26103   0.80834   0.00000  Uiso   1.00
C848   C     0.34219   0.29812   0.84628   0.00000  Uiso   1.00
C849   C     0.44900   0.08154   0.51622   0.00000  Uiso   1.00
C850   C     0.52227   0.31883   0.74883   0.00000  Uiso   1.00
C851   C     0.47773   0.01451   0.75117   0.00000  Uiso   1.00
C852   C     0.50086   0.16825   0.83619   0.00000  Uiso   1.00
C853   C     0.49914   0.16508   0.66381   0.00000  Uiso   1.00
C854   C     0.47416   0.12018   0.59066   0.00000  Uiso   1.00
H855   H     0.55184   0.23141   0.61464   0.00000  Uiso   1.00
H856   H     0.46022   0.28996   0.61352   0.00000  Uiso   1.00
H857   H     0.52023   0.30198   0.64816   0.00000  Uiso   1.00
H858   H     0.51267   0.02103   0.57533   0.00000  Uiso   1.00
H859   H     0.53870   0.05203   0.62604   0.00000  Uiso   1.00
H860   H     0.44293   0.08124   0.64930   0.00000  Uiso   1.00
H861   H     0.41681   0.05380   0.59905   0.00000  Uiso   1.00
H862   H     0.47971   0.03133   0.85186   0.00000  Uiso   1.00
H863   H     0.53974   0.04338   0.88647   0.00000  Uiso   1.00
H864   H     0.54481   0.00458   0.83432   0.00000  Uiso   1.00
H865   H     0.46127   0.28129   0.87400   0.00000  Uiso   1.00
H866   H     0.44815   0.10193   0.88536   0.00000  Uiso   1.00
H867   H     0.48735   0.31230   0.92469   0.00000  Uiso   1.00
H868   H     0.58319   0.27953   0.90094   0.00000  Uiso   1.00
H869   H     0.55705   0.25210   0.85070   0.00000  Uiso   1.00
H870   H     0.65992   0.05444   0.62165   0.00000  Uiso   1.00
H871   H     0.36545   0.02132   0.66132   0.00000  Uiso   1.00
H872   H     0.62824   0.00103   0.65023   0.00000  Uiso   1.00
H873   H     0.63465   0.05212   0.72308   0.00000  Uiso   1.00
H874   H     0.59440   0.08181   0.68288   0.00000  Uiso   1.00
H875   H     0.33832   0.14531   0.66873   0.00000  Uiso   1.00
H876   H     0.38098   0.11110   0.70286   0.00000  Uiso   1.00
H877   H     0.57308   0.27899   0.54967   0.00000  Uiso   1.00
H878   H     0.63449   0.31200   0.83861   0.00000  Uiso   1.00
H879   H     0.34009   0.27900   0.87832   0.00000  Uiso   1.00
H880   H     0.37170   0.33239   0.84966   0.00000  Uiso   1.00
H881   H     0.40559   0.25155   0.81712   0.00000  Uiso   1.00
H882   H     0.36536   0.28119   0.77688   0.00000  Uiso   1.00
H883   H     0.61902   0.22223   0.79714   0.00000  Uiso   1.00
H884   H     0.66169   0.18804   0.83127   0.00000  Uiso   1.00
H885   H     0.42693   0.05434   0.95033   0.00000  Uiso   1.00
H886   H     0.57012   0.28654   0.97091   0.00000  Uiso   1.00
H887   H     0.42990   0.04678   0.52908   0.00000  Uiso   1.00
H888   H     0.56477   0.00155   0.74807   0.00000  Uiso   1.00
H889   H     0.43523   0.33178   0.75192   0.00000  Uiso   1.00
H890   H     0.45514   0.32875   0.66568   0.00000  Uiso   1.00
N891   N     0.65011   0.15265   0.73783   0.00000  Uiso   1.00
N892   N     0.34989   0.18068   0.76217   0.00000  Uiso   1.00
O893   O     0.46308   0.24619   0.75298   0.00000  Uiso   1.00
O894   O     0.53692   0.08714   0.74701   0.00000  Uiso   1.00
O895   O     0.55946   0.23721   0.74518   0.00000  Uiso   1.00
O896   O     0.44054   0.09613   0.75482   0.00000  Uiso   1.00
O897   O     0.45181   0.17117   0.81998   0.00000  Uiso   1.00
O898   O     0.54819   0.16216   0.68002   0.00000  Uiso   1.00
O899   O     0.54819   0.16219   0.81217   0.00000  Uiso   1.00
O900   O     0.45181   0.17115   0.68782   0.00000  Uiso   1.00
Zn901  Zn    0.43565   0.17266   0.75521   0.00000  Uiso   1.00
Zn902  Zn    0.56435   0.16067   0.74479   0.00000  Uiso   1.00
C903   C     0.84799   0.26445   0.74891   0.00000  Uiso   1.00
C904   C     0.85918   0.21315   0.90934   0.00000  Uiso   1.00
C905   C     0.83179   0.16282   0.61573   0.00000  Uiso   1.00
C906   C     0.83487   0.17051   0.88427   0.00000  Uiso   1.00
C907   C     0.86140   0.20242   0.59492   0.00000  Uiso   1.00
C908   C     0.80527   0.13091   0.90508   0.00000  Uiso   1.00
C909   C     0.86061   0.20514   0.54924   0.00000  Uiso   1.00
C910   C     0.80607   0.12819   0.95076   0.00000  Uiso   1.00
C911   C     0.83342   0.16514   0.52325   0.00000  Uiso   1.00
C912   C     0.83326   0.16818   0.97675   0.00000  Uiso   1.00
C913   C     0.80751   0.12170   0.54361   0.00000  Uiso   1.00
C914   C     0.81867   0.06888   0.75108   0.00000  Uiso   1.00
C915   C     0.85917   0.21163   0.95639   0.00000  Uiso   1.00
C916   C     0.88594   0.24795   0.52952   0.00000  Uiso   1.00
C917   C     0.78074   0.08538   0.97048   0.00000  Uiso   1.00
C918   C     0.78811   0.07184   0.61362   0.00000  Uiso   1.00
C919   C     0.83445   0.03313   0.61088   0.00000  Uiso   1.00
C920   C     0.81625   0.31881   0.63590   0.00000  Uiso   1.00
C921   C     0.87855   0.26149   0.88638   0.00000  Uiso   1.00
C922   C     0.83220   0.30020   0.88913   0.00000  Uiso   1.00
C923   C     0.85037   0.01451   0.86410   0.00000  Uiso   1.00
C924   C     0.67217   0.12244   0.69864   0.00000  Uiso   1.00
C925   C     0.88435   0.25179   0.98378   0.00000  Uiso   1.00
C926   C     0.96976   0.07232   0.69164   0.00000  Uiso   1.00
C927   C     0.99112   0.03526   0.65366   0.00000  Uiso   1.00
C928   C     0.99450   0.21090   0.80135   0.00000  Uiso   1.00
C929   C     0.69690   0.26103   0.80834   0.00000  Uiso   1.00
C930   C     0.67552   0.29812   0.84628   0.00000  Uiso   1.00
C931   C     0.78233   0.08154   0.51622   0.00000  Uiso   1.00
C932   C     0.85561   0.31883   0.74883   0.00000  Uiso   1.00
C933   C     0.81106   0.01451   0.75117   0.00000  Uiso   1.00
C934   C     0.83419   0.16825   0.83619   0.00000  Uiso   1.00
C935   C     0.83248   0.16508   0.66381   0.00000  Uiso   1.00
C936   C     0.80749   0.12018   0.59066   0.00000  Uiso   1.00
H937   H     0.88517   0.23141   0.61464   0.00000  Uiso   1.00
H938   H     0.79355   0.28996   0.61352   0.00000  Uiso   1.00
H939   H     0.85356   0.30198   0.64816   0.00000  Uiso   1.00
H940   H     0.84600   0.02103   0.57533   0.00000  Uiso   1.00
H941   H     0.87203   0.05203   0.62604   0.00000  Uiso   1.00
H942   H     0.77626   0.08124   0.64930   0.00000  Uiso   1.00
H943   H     0.75014   0.05380   0.59905   0.00000  Uiso   1.00
H944   H     0.81305   0.03133   0.85186   0.00000  Uiso   1.00
H945   H     0.87308   0.04338   0.88647   0.00000  Uiso   1.00
H946   H     0.87814   0.00458   0.83432   0.00000  Uiso   1.00
H947   H     0.79461   0.28129   0.87400   0.00000  Uiso   1.00
H948   H     0.78149   0.10193   0.88536   0.00000  Uiso   1.00
H949   H     0.82068   0.31230   0.92469   0.00000  Uiso   1.00
H950   H     0.91653   0.27953   0.90094   0.00000  Uiso   1.00
H951   H     0.89039   0.25210   0.85070   0.00000  Uiso   1.00
H952   H     0.99325   0.05444   0.62165   0.00000  Uiso   1.00
H953   H     0.69878   0.02132   0.66132   0.00000  Uiso   1.00
H954   H     0.96157   0.00103   0.65023   0.00000  Uiso   1.00
H955   H     0.96798   0.05212   0.72308   0.00000  Uiso   1.00
H956   H     0.92773   0.08181   0.68288   0.00000  Uiso   1.00
H957   H     0.67166   0.14531   0.66873   0.00000  Uiso   1.00
H958   H     0.71431   0.11110   0.70286   0.00000  Uiso   1.00
H959   H     0.90641   0.27899   0.54967   0.00000  Uiso   1.00
H960   H     0.96783   0.31200   0.83861   0.00000  Uiso   1.00
H961   H     0.67343   0.27900   0.87832   0.00000  Uiso   1.00
H962   H     0.70503   0.33239   0.84966   0.00000  Uiso   1.00
H963   H     0.73893   0.25155   0.81712   0.00000  Uiso   1.00
H964   H     0.69869   0.28119   0.77688   0.00000  Uiso   1.00
H965   H     0.95235   0.22223   0.79714   0.00000  Uiso   1.00
H966   H     0.99503   0.18804   0.83127   0.00000  Uiso   1.00
H967   H     0.76026   0.05434   0.95033   0.00000  Uiso   1.00
H968   H     0.90345   0.28654   0.97091   0.00000  Uiso   1.00
H969   H     0.76324   0.04678   0.52908   0.00000  Uiso   1.00
H970   H     0.89810   0.00155   0.74807   0.00000  Uiso   1.00
H971   H     0.76856   0.33178   0.75192   0.00000  Uiso   1.00
H972   H     0.78847   0.32875   0.66568   0.00000  Uiso   1.00
N973   N     0.98344   0.15265   0.73783   0.00000  Uiso   1.00
N974   N     0.68322   0.18068   0.76217   0.00000  Uiso   1.00
O975   O     0.79642   0.24619   0.75298   0.00000  Uiso   1.00
O976   O     0.87025   0.08714   0.74701   0.00000  Uiso   1.00
O977   O     0.89280   0.23721   0.74518   0.00000  Uiso   1.00
O978   O     0.77387   0.09613   0.75482   0.00000  Uiso   1.00
O979   O     0.78514   0.17117   0.81998   0.00000  Uiso   1.00
O980   O     0.88153   0.16216   0.68002   0.00000  Uiso   1.00
O981   O     0.88152   0.16219   0.81217   0.00000  Uiso   1.00
O982   O     0.78515   0.17115   0.68782   0.00000  Uiso   1.00
Zn983  Zn    0.76898   0.17266   0.75521   0.00000  Uiso   1.00
Zn984  Zn    0.89769   0.16067   0.74479   0.00000  Uiso   1.00
C985   C     0.18133   0.59779   0.74891   0.00000  Uiso   1.00
C986   C     0.19252   0.54648   0.90934   0.00000  Uiso   1.00
C987   C     0.16513   0.49615   0.61573   0.00000  Uiso   1.00
C988   C     0.16821   0.50384   0.88427   0.00000  Uiso   1.00
C989   C     0.19473   0.53575   0.59492   0.00000  Uiso   1.00
C990   C     0.13860   0.46425   0.90508   0.00000  Uiso   1.00
C991   C     0.19394   0.53847   0.54924   0.00000  Uiso   1.00
C992   C     0.13940   0.46153   0.95076   0.00000  Uiso   1.00
C993   C     0.16675   0.49848   0.52325   0.00000  Uiso   1.00
C994   C     0.16659   0.50152   0.97675   0.00000  Uiso   1.00
C995   C     0.14085   0.45503   0.54361   0.00000  Uiso   1.00
C996   C     0.15201   0.40221   0.75108   0.00000  Uiso   1.00
C997   C     0.19250   0.54496   0.95639   0.00000  Uiso   1.00
C998   C     0.21928   0.58128   0.52952   0.00000  Uiso   1.00
C999   C     0.11407   0.41872   0.97048   0.00000  Uiso   1.00
C1000  C     0.12145   0.40518   0.61362   0.00000  Uiso   1.00
C1001  C     0.16779   0.36646   0.61088   0.00000  Uiso   1.00
C1002  C     0.14958   0.65215   0.63590   0.00000  Uiso   1.00
C1003  C     0.21188   0.59482   0.88638   0.00000  Uiso   1.00
C1004  C     0.16554   0.63353   0.88913   0.00000  Uiso   1.00
C1005  C     0.18371   0.34784   0.86410   0.00000  Uiso   1.00
C1006  C     0.00550   0.45577   0.69864   0.00000  Uiso   1.00
C1007  C     0.21769   0.58512   0.98378   0.00000  Uiso   1.00
C1008  C     0.30310   0.40566   0.69164   0.00000  Uiso   1.00
C1009  C     0.32445   0.36859   0.65366   0.00000  Uiso   1.00
C1010  C     0.32783   0.54423   0.80135   0.00000  Uiso   1.00
C1011  C     0.03023   0.59436   0.80834   0.00000  Uiso   1.00
C1012  C     0.00885   0.63146   0.84628   0.00000  Uiso   1.00
C1013  C     0.11567   0.41487   0.51622   0.00000  Uiso   1.00
C1014  C     0.18894   0.65216   0.74883   0.00000  Uiso   1.00
C1015  C     0.14439   0.34784   0.75117   0.00000  Uiso   1.00
C1016  C     0.16752   0.50158   0.83619   0.00000  Uiso   1.00
C1017  C     0.16581   0.49841   0.66381   0.00000  Uiso   1.00
C1018  C     0.14083   0.45351   0.59066   0.00000  Uiso   1.00
H1019  H     0.21851   0.56474   0.61464   0.00000  Uiso   1.00
H1020  H     0.12689   0.62329   0.61352   0.00000  Uiso   1.00
H1021  H     0.18690   0.63532   0.64816   0.00000  Uiso   1.00
H1022  H     0.17933   0.35436   0.57533   0.00000  Uiso   1.00
H1023  H     0.20537   0.38537   0.62604   0.00000  Uiso   1.00
H1024  H     0.10959   0.41457   0.64930   0.00000  Uiso   1.00
H1025  H     0.08348   0.38714   0.59905   0.00000  Uiso   1.00
H1026  H     0.14638   0.36466   0.85186   0.00000  Uiso   1.00
H1027  H     0.20641   0.37671   0.88647   0.00000  Uiso   1.00
H1028  H     0.21147   0.33791   0.83432   0.00000  Uiso   1.00
H1029  H     0.12794   0.61462   0.87400   0.00000  Uiso   1.00
H1030  H     0.11482   0.43526   0.88536   0.00000  Uiso   1.00
H1031  H     0.15402   0.64564   0.92469   0.00000  Uiso   1.00
H1032  H     0.24986   0.61286   0.90094   0.00000  Uiso   1.00
H1033  H     0.22372   0.58543   0.85070   0.00000  Uiso   1.00
H1034  H     0.32658   0.38778   0.62165   0.00000  Uiso   1.00
H1035  H     0.03212   0.35466   0.66132   0.00000  Uiso   1.00
H1036  H     0.29490   0.33436   0.65023   0.00000  Uiso   1.00
H1037  H     0.30132   0.38546   0.72308   0.00000  Uiso   1.00
H1038  H     0.26107   0.41514   0.68288   0.00000  Uiso   1.00
H1039  H     0.00499   0.47865   0.66873   0.00000  Uiso   1.00
H1040  H     0.04765   0.44443   0.70286   0.00000  Uiso   1.00
H1041  H     0.23975   0.61232   0.54967   0.00000  Uiso   1.00
H1042  H     0.30116   0.64533   0.83861   0.00000  Uiso   1.00
H1043  H     0.00676   0.61233   0.87832   0.00000  Uiso   1.00
H1044  H     0.03836   0.66573   0.84966   0.00000  Uiso   1.00
H1045  H     0.07226   0.58488   0.81712   0.00000  Uiso   1.00
H1046  H     0.03202   0.61452   0.77688   0.00000  Uiso   1.00
H1047  H     0.28568   0.55556   0.79714   0.00000  Uiso   1.00
H1048  H     0.32836   0.52137   0.83127   0.00000  Uiso   1.00
H1049  H     0.09360   0.38768   0.95033   0.00000  Uiso   1.00
H1050  H     0.23679   0.61987   0.97091   0.00000  Uiso   1.00
H1051  H     0.09657   0.38011   0.52908   0.00000  Uiso   1.00
H1052  H     0.23144   0.33488   0.74807   0.00000  Uiso   1.00
H1053  H     0.10190   0.66512   0.75192   0.00000  Uiso   1.00
H1054  H     0.12180   0.66208   0.66568   0.00000  Uiso   1.00
N1055  N     0.31678   0.48598   0.73783   0.00000  Uiso   1.00
N1056  N     0.01656   0.51402   0.76217   0.00000  Uiso   1.00
O1057  O     0.12975   0.57952   0.75298   0.00000  Uiso   1.00
O1058  O     0.20358   0.42048   0.74701   0.00000  Uiso   1.00
O1059  O     0.22613   0.57054   0.74518   0.00000  Uiso   1.00
O1060  O     0.10720   0.42946   0.75482   0.00000  Uiso   1.00
O1061  O     0.11847   0.50450   0.81998   0.00000  Uiso   1.00
O1062  O     0.21486   0.49550   0.68002   0.00000  Uiso   1.00
O1063  O     0.21485   0.49552   0.81217   0.00000  Uiso   1.00
O1064  O     0.11848   0.50448   0.68782   0.00000  Uiso   1.00
Zn1065 Zn    0.10231   0.50600   0.75521   0.00000  Uiso   1.00
Zn1066 Zn    0.23102   0.49400   0.74479   0.00000  Uiso   1.00
C1067  C     0.51466   0.59779   0.74891   0.00000  Uiso   1.00
C1068  C     0.52585   0.54648   0.90934   0.00000  Uiso   1.00
C1069  C     0.49846   0.49615   0.61573   0.00000  Uiso   1.00
C1070  C     0.50154   0.50384   0.88427   0.00000  Uiso   1.00
C1071  C     0.52807   0.53575   0.59492   0.00000  Uiso   1.00
C1072  C     0.47194   0.46425   0.90508   0.00000  Uiso   1.00
C1073  C     0.52728   0.53847   0.54924   0.00000  Uiso   1.00
C1074  C     0.47273   0.46153   0.95076   0.00000  Uiso   1.00
C1075  C     0.50009   0.49848   0.52325   0.00000  Uiso   1.00
C1076  C     0.49993   0.50152   0.97675   0.00000  Uiso   1.00
C1077  C     0.47418   0.45503   0.54361   0.00000  Uiso   1.00
C1078  C     0.48534   0.40221   0.75108   0.00000  Uiso   1.00
C1079  C     0.52583   0.54496   0.95639   0.00000  Uiso   1.00
C1080  C     0.55261   0.58128   0.52952   0.00000  Uiso   1.00
C1081  C     0.44740   0.41872   0.97048   0.00000  Uiso   1.00
C1082  C     0.45478   0.40518   0.61362   0.00000  Uiso   1.00
C1083  C     0.50112   0.36646   0.61088   0.00000  Uiso   1.00
C1084  C     0.48292   0.65215   0.63590   0.00000  Uiso   1.00
C1085  C     0.54522   0.59482   0.88638   0.00000  Uiso   1.00
C1086  C     0.49887   0.63353   0.88913   0.00000  Uiso   1.00
C1087  C     0.51704   0.34784   0.86410   0.00000  Uiso   1.00
C1088  C     0.33884   0.45577   0.69864   0.00000  Uiso   1.00
C1089  C     0.55102   0.58512   0.98378   0.00000  Uiso   1.00
C1090  C     0.63643   0.40566   0.69164   0.00000  Uiso   1.00
C1091  C     0.65778   0.36859   0.65366   0.00000  Uiso   1.00
C1092  C     0.66117   0.54423   0.80135   0.00000  Uiso   1.00
C1093  C     0.36357   0.59436   0.80834   0.00000  Uiso   1.00
C1094  C     0.34219   0.63146   0.84628   0.00000  Uiso   1.00
C1095  C     0.44900   0.41487   0.51622   0.00000  Uiso   1.00
C1096  C     0.52227   0.65216   0.74883   0.00000  Uiso   1.00
C1097  C     0.47773   0.34784   0.75117   0.00000  Uiso   1.00
C1098  C     0.50086   0.50158   0.83619   0.00000  Uiso   1.00
C1099  C     0.49914   0.49841   0.66381   0.00000  Uiso   1.00
C1100  C     0.47416   0.45351   0.59066   0.00000  Uiso   1.00
H1101  H     0.55184   0.56474   0.61464   0.00000  Uiso   1.00
H1102  H     0.46022   0.62329   0.61352   0.00000  Uiso   1.00
H1103  H     0.52023   0.63532   0.64816   0.00000  Uiso   1.00
H1104  H     0.51267   0.35436   0.57533   0.00000  Uiso   1.00
H1105  H     0.53870   0.38537   0.62604   0.00000  Uiso   1.00
H1106  H     0.44293   0.41457   0.64930   0.00000  Uiso   1.00
H1107  H     0.41681   0.38714   0.59905   0.00000  Uiso   1.00
H1108  H     0.47971   0.36466   0.85186   0.00000  Uiso   1.00
H1109  H     0.53974   0.37671   0.88647   0.00000  Uiso   1.00
H1110  H     0.54481   0.33791   0.83432   0.00000  Uiso   1.00
H1111  H     0.46127   0.61462   0.87400   0.00000  Uiso   1.00
H1112  H     0.44815   0.43526   0.88536   0.00000  Uiso   1.00
H1113  H     0.48735   0.64564   0.92469   0.00000  Uiso   1.00
H1114  H     0.58319   0.61286   0.90094   0.00000  Uiso   1.00
H1115  H     0.55705   0.58543   0.85070   0.00000  Uiso   1.00
H1116  H     0.65992   0.38778   0.62165   0.00000  Uiso   1.00
H1117  H     0.36545   0.35466   0.66132   0.00000  Uiso   1.00
H1118  H     0.62824   0.33436   0.65023   0.00000  Uiso   1.00
H1119  H     0.63465   0.38546   0.72308   0.00000  Uiso   1.00
H1120  H     0.59440   0.41514   0.68288   0.00000  Uiso   1.00
H1121  H     0.33832   0.47865   0.66873   0.00000  Uiso   1.00
H1122  H     0.38098   0.44443   0.70286   0.00000  Uiso   1.00
H1123  H     0.57308   0.61232   0.54967   0.00000  Uiso   1.00
H1124  H     0.63449   0.64533   0.83861   0.00000  Uiso   1.00
H1125  H     0.34009   0.61233   0.87832   0.00000  Uiso   1.00
H1126  H     0.37170   0.66573   0.84966   0.00000  Uiso   1.00
H1127  H     0.40559   0.58488   0.81712   0.00000  Uiso   1.00
H1128  H     0.36536   0.61452   0.77688   0.00000  Uiso   1.00
H1129  H     0.61902   0.55556   0.79714   0.00000  Uiso   1.00
H1130  H     0.66169   0.52137   0.83127   0.00000  Uiso   1.00
H1131  H     0.42693   0.38768   0.95033   0.00000  Uiso   1.00
H1132  H     0.57012   0.61987   0.97091   0.00000  Uiso   1.00
H1133  H     0.42990   0.38011   0.52908   0.00000  Uiso   1.00
H1134  H     0.56477   0.33488   0.74807   0.00000  Uiso   1.00
H1135  H     0.43523   0.66512   0.75192   0.00000  Uiso   1.00
H1136  H     0.45514   0.66208   0.66568   0.00000  Uiso   1.00
N1137  N     0.65011   0.48598   0.73783   0.00000  Uiso   1.00
N1138  N     0.34989   0.51402   0.76217   0.00000  Uiso   1.00
O1139  O     0.46308   0.57952   0.75298   0.00000  Uiso   1.00
O1140  O     0.53692   0.42048   0.74701   0.00000  Uiso   1.00
O1141  O     0.55946   0.57054   0.74518   0.00000  Uiso   1.00
O1142  O     0.44054   0.42946   0.75482   0.00000  Uiso   1.00
O1143  O     0.45181   0.50450   0.81998   0.00000  Uiso   1.00
O1144  O     0.54819   0.49550   0.68002   0.00000  Uiso   1.00
O1145  O     0.54819   0.49552   0.81217   0.00000  Uiso   1.00
O1146  O     0.45181   0.50448   0.68782   0.00000  Uiso   1.00
Zn1147 Zn    0.43565   0.50600   0.75521   0.00000  Uiso   1.00
Zn1148 Zn    0.56435   0.49400   0.74479   0.00000  Uiso   1.00
C1149  C     0.84799   0.59779   0.74891   0.00000  Uiso   1.00
C1150  C     0.85918   0.54648   0.90934   0.00000  Uiso   1.00
C1151  C     0.83179   0.49615   0.61573   0.00000  Uiso   1.00
C1152  C     0.83487   0.50384   0.88427   0.00000  Uiso   1.00
C1153  C     0.86140   0.53575   0.59492   0.00000  Uiso   1.00
C1154  C     0.80527   0.46425   0.90508   0.00000  Uiso   1.00
C1155  C     0.86061   0.53847   0.54924   0.00000  Uiso   1.00
C1156  C     0.80607   0.46153   0.95076   0.00000  Uiso   1.00
C1157  C     0.83342   0.49848   0.52325   0.00000  Uiso   1.00
C1158  C     0.83326   0.50152   0.97675   0.00000  Uiso   1.00
C1159  C     0.80751   0.45503   0.54361   0.00000  Uiso   1.00
C1160  C     0.81867   0.40221   0.75108   0.00000  Uiso   1.00
C1161  C     0.85917   0.54496   0.95639   0.00000  Uiso   1.00
C1162  C     0.88594   0.58128   0.52952   0.00000  Uiso   1.00
C1163  C     0.78074   0.41872   0.97048   0.00000  Uiso   1.00
C1164  C     0.78811   0.40518   0.61362   0.00000  Uiso   1.00
C1165  C     0.83445   0.36646   0.61088   0.00000  Uiso   1.00
C1166  C     0.81625   0.65215   0.63590   0.00000  Uiso   1.00
C1167  C     0.87855   0.59482   0.88638   0.00000  Uiso   1.00
C1168  C     0.83220   0.63353   0.88913   0.00000  Uiso   1.00
C1169  C     0.85037   0.34784   0.86410   0.00000  Uiso   1.00
C1170  C     0.67217   0.45577   0.69864   0.00000  Uiso   1.00
C1171  C     0.88435   0.58512   0.98378   0.00000  Uiso   1.00
C1172  C     0.96976   0.40566   0.69164   0.00000  Uiso   1.00
C1173  C     0.99112   0.36859   0.65366   0.00000  Uiso   1.00
C1174  C     0.99450   0.54423   0.80135   0.00000  Uiso   1.00
C1175  C     0.69690   0.59436   0.80834   0.00000  Uiso   1.00
C1176  C     0.67552   0.63146   0.84628   0.00000  Uiso   1.00
C1177  C     0.78233   0.41487   0.51622   0.00000  Uiso   1.00
C1178  C     0.85561   0.65216   0.74883   0.00000  Uiso   1.00
C1179  C     0.81106   0.34784   0.75117   0.00000  Uiso   1.00
C1180  C     0.83419   0.50158   0.83619   0.00000  Uiso   1.00
C1181  C     0.83248   0.49841   0.66381   0.00000  Uiso   1.00
C1182  C     0.80749   0.45351   0.59066   0.00000  Uiso   1.00
H1183  H     0.88517   0.56474   0.61464   0.00000  Uiso   1.00
H1184  H     0.79355   0.62329   0.61352   0.00000  Uiso   1.00
H1185  H     0.85356   0.63532   0.64816   0.00000  Uiso   1.00
H1186  H     0.84600   0.35436   0.57533   0.00000  Uiso   1.00
H1187  H     0.87203   0.38537   0.62604   0.00000  Uiso   1.00
H1188  H     0.77626   0.41457   0.64930   0.00000  Uiso   1.00
H1189  H     0.75014   0.38714   0.59905   0.00000  Uiso   1.00
H1190  H     0.81305   0.36466   0.85186   0.00000  Uiso   1.00
H1191  H     0.87308   0.37671   0.88647   0.00000  Uiso   1.00
H1192  H     0.87814   0.33791   0.83432   0.00000  Uiso   1.00
H1193  H     0.79461   0.61462   0.87400   0.00000  Uiso   1.00
H1194  H     0.78149   0.43526   0.88536   0.00000  Uiso   1.00
H1195  H     0.82068   0.64564   0.92469   0.00000  Uiso   1.00
H1196  H     0.91653   0.61286   0.90094   0.00000  Uiso   1.00
H1197  H     0.89039   0.58543   0.85070   0.00000  Uiso   1.00
H1198  H     0.99325   0.38778   0.62165   0.00000  Uiso   1.00
H1199  H     0.69878   0.35466   0.66132   0.00000  Uiso   1.00
H1200  H     0.96157   0.33436   0.65023   0.00000  Uiso   1.00
H1201  H     0.96798   0.38546   0.72308   0.00000  Uiso   1.00
H1202  H     0.92773   0.41514   0.68288   0.00000  Uiso   1.00
H1203  H     0.67166   0.47865   0.66873   0.00000  Uiso   1.00
H1204  H     0.71431   0.44443   0.70286   0.00000  Uiso   1.00
H1205  H     0.90641   0.61232   0.54967   0.00000  Uiso   1.00
H1206  H     0.96783   0.64533   0.83861   0.00000  Uiso   1.00
H1207  H     0.67343   0.61233   0.87832   0.00000  Uiso   1.00
H1208  H     0.70503   0.66573   0.84966   0.00000  Uiso   1.00
H1209  H     0.73893   0.58488   0.81712   0.00000  Uiso   1.00
H1210  H     0.69869   0.61452   0.77688   0.00000  Uiso   1.00
H1211  H     0.95235   0.55556   0.79714   0.00000  Uiso   1.00
H1212  H     0.99503   0.52137   0.83127   0.00000  Uiso   1.00
H1213  H     0.76026   0.38768   0.95033   0.00000  Uiso   1.00
H1214  H     0.90345   0.61987   0.97091   0.00000  Uiso   1.00
H1215  H     0.76324   0.38011   0.52908   0.00000  Uiso   1.00
H1216  H     0.89810   0.33488   0.74807   0.00000  Uiso   1.00
H1217  H     0.76856   0.66512   0.75192   0.00000  Uiso   1.00
H1218  H     0.78847   0.66208   0.66568   0.00000  Uiso   1.00
N1219  N     0.98344   0.48598   0.73783   0.00000  Uiso   1.00
N1220  N     0.68322   0.51402   0.76217   0.00000  Uiso   1.00
O1221  O     0.79642   0.57952   0.75298   0.00000  Uiso   1.00
O1222  O     0.87025   0.42048   0.74701   0.00000  Uiso   1.00
O1223  O     0.89280   0.57054   0.74518   0.00000  Uiso   1.00
O1224  O     0.77387   0.42946   0.75482   0.00000  Uiso   1.00
O1225  O     0.78514   0.50450   0.81998   0.00000  Uiso   1.00
O1226  O     0.88153   0.49550   0.68002   0.00000  Uiso   1.00
O1227  O     0.88152   0.49552   0.81217   0.00000  Uiso   1.00
O1228  O     0.78515   0.50448   0.68782   0.00000  Uiso   1.00
Zn1229 Zn    0.76898   0.50600   0.75521   0.00000  Uiso   1.00
Zn1230 Zn    0.89769   0.49400   0.74479   0.00000  Uiso   1.00
C1231  C     0.18133   0.93112   0.74891   0.00000  Uiso   1.00
C1232  C     0.19252   0.87982   0.90934   0.00000  Uiso   1.00
C1233  C     0.16513   0.82949   0.61573   0.00000  Uiso   1.00
C1234  C     0.16821   0.83718   0.88427   0.00000  Uiso   1.00
C1235  C     0.19473   0.86909   0.59492   0.00000  Uiso   1.00
C1236  C     0.13860   0.79758   0.90508   0.00000  Uiso   1.00
C1237  C     0.19394   0.87180   0.54924   0.00000  Uiso   1.00
C1238  C     0.13940   0.79486   0.95076   0.00000  Uiso   1.00
C1239  C     0.16675   0.83181   0.52325   0.00000  Uiso   1.00
C1240  C     0.16659   0.83485   0.97675   0.00000  Uiso   1.00
C1241  C     0.14085   0.78837   0.54361   0.00000  Uiso   1.00
C1242  C     0.15201   0.73555   0.75108   0.00000  Uiso   1.00
C1243  C     0.19250   0.87829   0.95639   0.00000  Uiso   1.00
C1244  C     0.21928   0.91461   0.52952   0.00000  Uiso   1.00
C1245  C     0.11407   0.75205   0.97048   0.00000  Uiso   1.00
C1246  C     0.12145   0.73851   0.61362   0.00000  Uiso   1.00
C1247  C     0.16779   0.69980   0.61088   0.00000  Uiso   1.00
C1248  C     0.14958   0.98548   0.63590   0.00000  Uiso   1.00
C1249  C     0.21188   0.92815   0.88638   0.00000  Uiso   1.00
C1250  C     0.16554   0.96686   0.88913   0.00000  Uiso   1.00
C1251  C     0.18371   0.68118   0.86410   0.00000  Uiso   1.00
C1252  C     0.00550   0.78911   0.69864   0.00000  Uiso   1.00
C1253  C     0.21769   0.91845   0.98378   0.00000  Uiso   1.00
C1254  C     0.30310   0.73899   0.69164   0.00000  Uiso   1.00
C1255  C     0.32445   0.70193   0.65366   0.00000  Uiso   1.00
C1256  C     0.32783   0.87757   0.80135   0.00000  Uiso   1.00
C1257  C     0.03023   0.92769   0.80834   0.00000  Uiso   1.00
C1258  C     0.00885   0.96479   0.84628   0.00000  Uiso   1.00
C1259  C     0.11567   0.74820   0.51622   0.00000  Uiso   1.00
C1260  C     0.18894   0.98549   0.74883   0.00000  Uiso   1.00
C1261  C     0.14439   0.68117   0.75117   0.00000  Uiso   1.00
C1262  C     0.16752   0.83492   0.83619   0.00000  Uiso   1.00
C1263  C     0.16581   0.83175   0.66381   0.00000  Uiso   1.00
C1264  C     0.14083   0.78684   0.59066   0.00000  Uiso   1.00
H1265  H     0.21851   0.89807   0.61464   0.00000  Uiso   1.00
H1266  H     0.12689   0.95662   0.61352   0.00000  Uiso   1.00
H1267  H     0.18690   0.96865   0.64816   0.00000  Uiso   1.00
H1268  H     0.17933   0.68769   0.57533   0.00000  Uiso   1.00
H1269  H     0.20537   0.71870   0.62604   0.00000  Uiso   1.00
H1270  H     0.10959   0.74790   0.64930   0.00000  Uiso   1.00
H1271  H     0.08348   0.72047   0.59905   0.00000  Uiso   1.00
H1272  H     0.14638   0.69799   0.85186   0.00000  Uiso   1.00
H1273  H     0.20641   0.71004   0.88647   0.00000  Uiso   1.00
H1274  H     0.21147   0.67125   0.83432   0.00000  Uiso   1.00
H1275  H     0.12794   0.94796   0.87400   0.00000  Uiso   1.00
H1276  H     0.11482   0.76860   0.88536   0.00000  Uiso   1.00
H1277  H     0.15402   0.97897   0.92469   0.00000  Uiso   1.00
H1278  H     0.24986   0.94620   0.90094   0.00000  Uiso   1.00
H1279  H     0.22372   0.91877   0.85070   0.00000  Uiso   1.00
H1280  H     0.32658   0.72111   0.62165   0.00000  Uiso   1.00
H1281  H     0.03212   0.68799   0.66132   0.00000  Uiso   1.00
H1282  H     0.29490   0.66770   0.65023   0.00000  Uiso   1.00
H1283  H     0.30132   0.71879   0.72308   0.00000  Uiso   1.00
H1284  H     0.26107   0.74848   0.68288   0.00000  Uiso   1.00
H1285  H     0.00499   0.81198   0.66873   0.00000  Uiso   1.00
H1286  H     0.04765   0.77776   0.70286   0.00000  Uiso   1.00
H1287  H     0.23975   0.94565   0.54967   0.00000  Uiso   1.00
H1288  H     0.30116   0.97867   0.83861   0.00000  Uiso   1.00
H1289  H     0.00676   0.94567   0.87832   0.00000  Uiso   1.00
H1290  H     0.03836   0.99906   0.84966   0.00000  Uiso   1.00
H1291  H     0.07226   0.91822   0.81712   0.00000  Uiso   1.00
H1292  H     0.03202   0.94786   0.77688   0.00000  Uiso   1.00
H1293  H     0.28568   0.88890   0.79714   0.00000  Uiso   1.00
H1294  H     0.32836   0.85471   0.83127   0.00000  Uiso   1.00
H1295  H     0.09360   0.72101   0.95033   0.00000  Uiso   1.00
H1296  H     0.23679   0.95321   0.97091   0.00000  Uiso   1.00
H1297  H     0.09657   0.71345   0.52908   0.00000  Uiso   1.00
H1298  H     0.23144   0.66822   0.74807   0.00000  Uiso   1.00
H1299  H     0.10190   0.99845   0.75192   0.00000  Uiso   1.00
H1300  H     0.12180   0.99541   0.66568   0.00000  Uiso   1.00
N1301  N     0.31678   0.81932   0.73783   0.00000  Uiso   1.00
N1302  N     0.01656   0.84735   0.76217   0.00000  Uiso   1.00
O1303  O     0.12975   0.91286   0.75298   0.00000  Uiso   1.00
O1304  O     0.20358   0.75381   0.74701   0.00000  Uiso   1.00
O1305  O     0.22613   0.90387   0.74518   0.00000  Uiso   1.00
O1306  O     0.10720   0.76279   0.75482   0.00000  Uiso   1.00
O1307  O     0.11847   0.83784   0.81998   0.00000  Uiso   1.00
O1308  O     0.21486   0.82883   0.68002   0.00000  Uiso   1.00
O1309  O     0.21485   0.82885   0.81217   0.00000  Uiso   1.00
O1310  O     0.11848   0.83781   0.68782   0.00000  Uiso   1.00
Zn1311 Zn    0.10231   0.83933   0.75521   0.00000  Uiso   1.00
Zn1312 Zn    0.23102   0.82734   0.74479   0.00000  Uiso   1.00
C1313  C     0.51466   0.93112   0.74891   0.00000  Uiso   1.00
C1314  C     0.52585   0.87982   0.90934   0.00000  Uiso   1.00
C1315  C     0.49846   0.82949   0.61573   0.00000  Uiso   1.00
C1316  C     0.50154   0.83718   0.88427   0.00000  Uiso   1.00
C1317  C     0.52807   0.86909   0.59492   0.00000  Uiso   1.00
C1318  C     0.47194   0.79758   0.90508   0.00000  Uiso   1.00
C1319  C     0.52728   0.87180   0.54924   0.00000  Uiso   1.00
C1320  C     0.47273   0.79486   0.95076   0.00000  Uiso   1.00
C1321  C     0.50009   0.83181   0.52325   0.00000  Uiso   1.00
C1322  C     0.49993   0.83485   0.97675   0.00000  Uiso   1.00
C1323  C     0.47418   0.78837   0.54361   0.00000  Uiso   1.00
C1324  C     0.48534   0.73555   0.75108   0.00000  Uiso   1.00
C1325  C     0.52583   0.87829   0.95639   0.00000  Uiso   1.00
C1326  C     0.55261   0.91461   0.52952   0.00000  Uiso   1.00
C1327  C     0.44740   0.75205   0.97048   0.00000  Uiso   1.00
C1328  C     0.45478   0.73851   0.61362   0.00000  Uiso   1.00
C1329  C     0.50112   0.69980   0.61088   0.00000  Uiso   1.00
C1330  C     0.48292   0.98548   0.63590   0.00000  Uiso   1.00
C1331  C     0.54522   0.92815   0.88638   0.00000  Uiso   1.00
C1332  C     0.49887   0.96686   0.88913   0.00000  Uiso   1.00
C1333  C     0.51704   0.68118   0.86410   0.00000  Uiso   1.00
C1334  C     0.33884   0.78911   0.69864   0.00000  Uiso   1.00
C1335  C     0.55102   0.91845   0.98378   0.00000  Uiso   1.00
C1336  C     0.63643   0.73899   0.69164   0.00000  Uiso   1.00
C1337  C     0.65778   0.70193   0.65366   0.00000  Uiso   1.00
C1338  C     0.66117   0.87757   0.80135   0.00000  Uiso   1.00
C1339  C     0.36357   0.92769   0.80834   0.00000  Uiso   1.00
C1340  C     0.34219   0.96479   0.84628   0.00000  Uiso   1.00
C1341  C     0.44900   0.74820   0.51622   0.00000  Uiso   1.00
C1342  C     0.52227   0.98549   0.74883   0.00000  Uiso   1.00
C1343  C     0.47773   0.68117   0.75117   0.00000  Uiso   1.00
C1344  C     0.50086   0.83492   0.83619   0.00000  Uiso   1.00
C1345  C     0.49914   0.83175   0.66381   0.00000  Uiso   1.00
C1346  C     0.47416   0.78684   0.59066   0.00000  Uiso   1.00
H1347  H     0.55184   0.89807   0.61464   0.00000  Uiso   1.00
H1348  H     0.46022   0.95662   0.61352   0.00000  Uiso   1.00
H1349  H     0.52023   0.96865   0.64816   0.00000  Uiso   1.00
H1350  H     0.51267   0.68769   0.57533   0.00000  Uiso   1.00
H1351  H     0.53870   0.71870   0.62604   0.00000  Uiso   1.00
H1352  H     0.44293   0.74790   0.64930   0.00000  Uiso   1.00
H1353  H     0.41681   0.72047   0.59905   0.00000  Uiso   1.00
H1354  H     0.47971   0.69799   0.85186   0.00000  Uiso   1.00
H1355  H     0.53974   0.71004   0.88647   0.00000  Uiso   1.00
H1356  H     0.54481   0.67125   0.83432   0.00000  Uiso   1.00
H1357  H     0.46127   0.94796   0.87400   0.00000  Uiso   1.00
H1358  H     0.44815   0.76860   0.88536   0.00000  Uiso   1.00
H1359  H     0.48735   0.97897   0.92469   0.00000  Uiso   1.00
H1360  H     0.58319   0.94620   0.90094   0.00000  Uiso   1.00
H1361  H     0.55705   0.91877   0.85070   0.00000  Uiso   1.00
H1362  H     0.65992   0.72111   0.62165   0.00000  Uiso   1.00
H1363  H     0.36545   0.68799   0.66132   0.00000  Uiso   1.00
H1364  H     0.62824   0.66770   0.65023   0.00000  Uiso   1.00
H1365  H     0.63465   0.71879   0.72308   0.00000  Uiso   1.00
H1366  H     0.59440   0.74848   0.68288   0.00000  Uiso   1.00
H1367  H     0.33832   0.81198   0.66873   0.00000  Uiso   1.00
H1368  H     0.38098   0.77776   0.70286   0.00000  Uiso   1.00
H1369  H     0.57308   0.94565   0.54967   0.00000  Uiso   1.00
H1370  H     0.63449   0.97867   0.83861   0.00000  Uiso   1.00
H1371  H     0.34009   0.94567   0.87832   0.00000  Uiso   1.00
H1372  H     0.37170   0.99906   0.84966   0.00000  Uiso   1.00
H1373  H     0.40559   0.91822   0.81712   0.00000  Uiso   1.00
H1374  H     0.36536   0.94786   0.77688   0.00000  Uiso   1.00
H1375  H     0.61902   0.88890   0.79714   0.00000  Uiso   1.00
H1376  H     0.66169   0.85471   0.83127   0.00000  Uiso   1.00
H1377  H     0.42693   0.72101   0.95033   0.00000  Uiso   1.00
H1378  H     0.57012   0.95321   0.97091   0.00000  Uiso   1.00
H1379  H     0.42990   0.71345   0.52908   0.00000  Uiso   1.00
H1380  H     0.56477   0.66822   0.74807   0.00000  Uiso   1.00
H1381  H     0.43523   0.99845   0.75192   0.00000  Uiso   1.00
H1382  H     0.45514   0.99541   0.66568   0.00000  Uiso   1.00
N1383  N     0.65011   0.81932   0.73783   0.00000  Uiso   1.00
N1384  N     0.34989   0.84735   0.76217   0.00000  Uiso   1.00
O1385  O     0.46308   0.91286   0.75298   0.00000  Uiso   1.00
O1386  O     0.53692   0.75381   0.74701   0.00000  Uiso   1.00
O1387  O     0.55946   0.90387   0.74518   0.00000  Uiso   1.00
O1388  O     0.44054   0.76279   0.75482   0.00000  Uiso   1.00
O1389  O     0.45181   0.83784   0.81998   0.00000  Uiso   1.00
O1390  O     0.54819   0.82883   0.68002   0.00000  Uiso   1.00
O1391  O     0.54819   0.82885   0.81217   0.00000  Uiso   1.00
O1392  O     0.45181   0.83781   0.68782   0.00000  Uiso   1.00
Zn1393 Zn    0.43565   0.83933   0.75521   0.00000  Uiso   1.00
Zn1394 Zn    0.56435   0.82734   0.74479   0.00000  Uiso   1.00
C1395  C     0.84799   0.93112   0.74891   0.00000  Uiso   1.00
C1396  C     0.85918   0.87982   0.90934   0.00000  Uiso   1.00
C1397  C     0.83179   0.82949   0.61573   0.00000  Uiso   1.00
C1398  C     0.83487   0.83718   0.88427   0.00000  Uiso   1.00
C1399  C     0.86140   0.86909   0.59492   0.00000  Uiso   1.00
C1400  C     0.80527   0.79758   0.90508   0.00000  Uiso   1.00
C1401  C     0.86061   0.87180   0.54924   0.00000  Uiso   1.00
C1402  C     0.80607   0.79486   0.95076   0.00000  Uiso   1.00
C1403  C     0.83342   0.83181   0.52325   0.00000  Uiso   1.00
C1404  C     0.83326   0.83485   0.97675   0.00000  Uiso   1.00
C1405  C     0.80751   0.78837   0.54361   0.00000  Uiso   1.00
C1406  C     0.81867   0.73555   0.75108   0.00000  Uiso   1.00
C1407  C     0.85917   0.87829   0.95639   0.00000  Uiso   1.00
C1408  C     0.88594   0.91461   0.52952   0.00000  Uiso   1.00
C1409  C     0.78074   0.75205   0.97048   0.00000  Uiso   1.00
C1410  C     0.78811   0.73851   0.61362   0.00000  Uiso   1.00
C1411  C     0.83445   0.69980   0.61088   0.00000  Uiso   1.00
C1412  C     0.81625   0.98548   0.63590   0.00000  Uiso   1.00
C1413  C     0.87855   0.92815   0.88638   0.00000  Uiso   1.00
C1414  C     0.83220   0.96686   0.88913   0.00000  Uiso   1.00
C1415  C     0.85037   0.68118   0.86410   0.00000  Uiso   1.00
C1416  C     0.67217   0.78911   0.69864   0.00000  Uiso   1.00
C1417  C     0.88435   0.91845   0.98378   0.00000  Uiso   1.00
C1418  C     0.96976   0.73899   0.69164   0.00000  Uiso   1.00
C1419  C     0.99112   0.70193   0.65366   0.00000  Uiso   1.00
C1420  C     0.99450   0.87757   0.80135   0.00000  Uiso   1.00
C1421  C     0.69690   0.92769   0.80834   0.00000  Uiso   1.00
C1422  C     0.67552   0.96479   0.84628   0.00000  Uiso   1.00
C1423  C     0.78233   0.74820   0.51622   0.00000  Uiso   1.00
C1424  C     0.85561   0.98549   0.74883   0.00000  Uiso   1.00
C1425  C     0.81106   0.68117   0.75117   0.00000  Uiso   1.00
C1426  C     0.83419   0.83492   0.83619   0.00000  Uiso   1.00
C1427  C     0.83248   0.83175   0.66381   0.00000  Uiso   1.00
C1428  C     0.80749   0.78684   0.59066   0.00000  Uiso   1.00
H1429  H     0.88517   0.89807   0.61464   0.00000  Uiso   1.00
H1430  H     0.79355   0.95662   0.61352   0.00000  Uiso   1.00
H1431  H     0.85356   0.96865   0.64816   0.00000  Uiso   1.00
H1432  H     0.84600   0.68769   0.57533   0.00000  Uiso   1.00
H1433  H     0.87203   0.71870   0.62604   0.00000  Uiso   1.00
H1434  H     0.77626   0.74790   0.64930   0.00000  Uiso   1.00
H1435  H     0.75014   0.72047   0.59905   0.00000  Uiso   1.00
H1436  H     0.81305   0.69799   0.85186   0.00000  Uiso   1.00
H1437  H     0.87308   0.71004   0.88647   0.00000  Uiso   1.00
H1438  H     0.87814   0.67125   0.83432   0.00000  Uiso   1.00
H1439  H     0.79461   0.94796   0.87400   0.00000  Uiso   1.00
H1440  H     0.78149   0.76860   0.88536   0.00000  Uiso   1.00
H1441  H     0.82068   0.97897   0.92469   0.00000  Uiso   1.00
H1442  H     0.91653   0.94620   0.90094   0.00000  Uiso   1.00
H1443  H     0.89039   0.91877   0.85070   0.00000  Uiso   1.00
H1444  H     0.99325   0.72111   0.62165   0.00000  Uiso   1.00
H1445  H     0.69878   0.68799   0.66132   0.00000  Uiso   1.00
H1446  H     0.96157   0.66770   0.65023   0.00000  Uiso   1.00
H1447  H     0.96798   0.71879   0.72308   0.00000  Uiso   1.00
H1448  H     0.92773   0.74848   0.68288   0.00000  Uiso   1.00
H1449  H     0.67166   0.81198   0.66873   0.00000  Uiso   1.00
H1450  H     0.71431   0.77776   0.70286   0.00000  Uiso   1.00
H1451  H     0.90641   0.94565   0.54967   0.00000  Uiso   1.00
H1452  H     0.96783   0.97867   0.83861   0.00000  Uiso   1.00
H1453  H     0.67343   0.94567   0.87832   0.00000  Uiso   1.00
H1454  H     0.70503   0.99906   0.84966   0.00000  Uiso   1.00
H1455  H     0.73893   0.91822   0.81712   0.00000  Uiso   1.00
H1456  H     0.69869   0.94786   0.77688   0.00000  Uiso   1.00
H1457  H     0.95235   0.88890   0.79714   0.00000  Uiso   1.00
H1458  H     0.99503   0.85471   0.83127   0.00000  Uiso   1.00
H1459  H     0.76026   0.72101   0.95033   0.00000  Uiso   1.00
H1460  H     0.90345   0.95321   0.97091   0.00000  Uiso   1.00
H1461  H     0.76324   0.71345   0.52908   0.00000  Uiso   1.00
H1462  H     0.89810   0.66822   0.74807   0.00000  Uiso   1.00
H1463  H     0.76856   0.99845   0.75192   0.00000  Uiso   1.00
H1464  H     0.78847   0.99541   0.66568   0.00000  Uiso   1.00
N1465  N     0.98344   0.81932   0.73783   0.00000  Uiso   1.00
N1466  N     0.68322   0.84735   0.76217   0.00000  Uiso   1.00
O1467  O     0.79642   0.91286   0.75298   0.00000  Uiso   1.00
O1468  O     0.87025   0.75381   0.74701   0.00000  Uiso   1.00
O1469  O     0.89280   0.90387   0.74518   0.00000  Uiso   1.00
O1470  O     0.77387   0.76279   0.75482   0.00000  Uiso   1.00
O1471  O     0.78514   0.83784   0.81998   0.00000  Uiso   1.00
O1472  O     0.88153   0.82883   0.68002   0.00000  Uiso   1.00
O1473  O     0.88152   0.82885   0.81217   0.00000  Uiso   1.00
O1474  O     0.78515   0.83781   0.68782   0.00000  Uiso   1.00
Zn1475 Zn    0.76898   0.83933   0.75521   0.00000  Uiso   1.00
Zn1476 Zn    0.89769   0.82734   0.74479   0.00000  Uiso   1.00
loop_
_geom_bond_atom_site_label_1
_geom_bond_atom_site_label_2
_geom_bond_distance
_geom_bond_site_symmetry_2
_ccdc_geom_bond_type
C1     O75     1.309   .     A
C1     O73     1.305   .     A
C1     C30     1.413   .     S
C2     C13     1.413   .     A
C2     C4      1.411   .     A
C2     C19     1.514   .     S
C3     C33     1.438   .     S
C3     C34     1.411   .     A
C3     C5      1.386   .     A
C4     C6      1.386   .     A
C4     C32     1.438   .     S
C5     C7      1.376   .     A
C5     H35     1.081   .     S
C6     H46     1.081   .     S
C6     C8      1.376   .     A
C7     C14     1.393   .     A
C7     C9      1.406   .     A
C8     C15     1.393   .     A
C8     C10     1.406   .     A
C9     C11     1.420   .     A
C9     C748    1.401   1_554 S
C10    C13     1.420   .     A
C10    C747    1.401   .     S
C11    C34     1.413   .     A
C11    C29     1.411   .     A
C12    O74     1.305   .     A
C12    O76     1.309   .     A
C12    C31     1.413   .     S
C13    C23     1.411   .     A
C14    H57     1.084   .     S
C14    C761    1.384   1_554 S
C15    H65     1.084   .     S
C15    C767    1.384   .     S
C16    C34     1.514   .     S
C16    C17     1.527   .     S
C16    H40     1.103   .     S
C16    H41     1.100   .     S
C17    H39     1.108   .     S
C17    H38     1.111   .     S
C17    C510    1.525   1_545 S
C18    H70     1.105   .     S
C18    H37     1.106   .     S
C18    H36     1.110   .     S
C18    C263    1.525   .     S
C19    C20     1.527   .     S
C19    H49     1.103   .     S
C19    H48     1.100   .     S
C20    H45     1.108   .     S
C20    H47     1.111   .     S
C20    C267    1.525   .     S
C21    H43     1.110   .     S
C21    H44     1.105   .     S
C21    H42     1.106   .     S
C21    C512    1.525   1_545 S
C22    H56     1.082   .     S
C22    H55     1.111   .     S
C22    C188    1.529   1_455 S
C22    N235    1.451   1_455 S
C23    H66     1.078   .     S
C23    C752    1.384   .     S
C24    H54     1.099   .     S
C24    C25     1.516   .     S
C24    H53     1.108   .     S
C24    C104    1.529   .     S
C25    H50     1.109   .     S
C25    H52     1.111   .     S
C25    H133    1.105   .     S
C26    H64     1.111   .     S
C26    H63     1.082   .     S
C26    C109    1.529   .     S
C26    N154    1.451   .     S
C27    H61     1.099   .     S
C27    H62     1.108   .     S
C27    C28     1.516   .     S
C27    C190    1.529   1_455 S
C28    H60     1.111   .     S
C28    H59     1.109   .     S
C28    H222    1.105   1_455 S
C29    H67     1.078   .     S
C29    C753    1.384   1_554 S
C30    C277    1.331   .     S
C30    H314    1.081   .     S
C31    C522    1.331   1_545 S
C31    H561    1.081   1_545 S
C32    O77     1.304   .     A
C32    O79     1.318   .     A
C33    O78     1.304   .     A
C33    O80     1.318   .     A
H51    C189    1.105   1_455 S
H58    C110    1.105   .     S
H68    C522    1.081   1_545 S
H69    C277    1.081   .     S
N71    Zn82    2.073   .     S
N71    C104    1.451   .     S
N71    N154    1.273   .     S
N72    Zn81    2.073   .     S
N72    N235    1.273   1_455 S
N72    C190    1.451   1_455 S
O73    Zn81    1.991   .     S
O74    Zn82    1.991   .     S
O75    Zn82    1.992   .     S
O76    Zn81    1.992   .     S
O77    Zn81    2.002   .     S
O78    Zn82    2.002   .     S
O79    Zn82    2.031   .     S
O80    Zn81    2.031   .     S
C83    O157    1.309   .     A
C83    O155    1.305   .     A
C83    C112    1.413   .     S
C84    C95     1.413   .     A
C84    C86     1.411   .     A
C84    C101    1.514   .     S
C85    C115    1.438   .     S
C85    C116    1.411   .     A
C85    C87     1.386   .     A
C86    C88     1.386   .     A
C86    C114    1.438   .     S
C87    C89     1.376   .     A
C87    H117    1.081   .     S
C88    H128    1.081   .     S
C88    C90     1.376   .     A
C89    C96     1.393   .     A
C89    C91     1.406   .     A
C90    C97     1.393   .     A
C90    C92     1.406   .     A
C91    C93     1.420   .     A
C91    C830    1.401   1_554 S
C92    C95     1.420   .     A
C92    C829    1.401   .     S
C93    C116    1.413   .     A
C93    C111    1.411   .     A
C94    O156    1.305   .     A
C94    O158    1.309   .     A
C94    C113    1.413   .     S
C95    C105    1.411   .     A
C96    H139    1.084   .     S
C96    C843    1.384   1_554 S
C97    H147    1.084   .     S
C97    C849    1.384   .     S
C98    C116    1.514   .     S
C98    C99     1.527   .     S
C98    H122    1.103   .     S
C98    H123    1.100   .     S
C99    H121    1.108   .     S
C99    H120    1.111   .     S
C99    C592    1.525   1_545 S
C100   H152    1.105   .     S
C100   H119    1.106   .     S
C100   H118    1.110   .     S
C100   C345    1.525   .     S
C101   C102    1.527   .     S
C101   H131    1.103   .     S
C101   H130    1.100   .     S
C102   H127    1.108   .     S
C102   H129    1.111   .     S
C102   C349    1.525   .     S
C103   H125    1.110   .     S
C103   H126    1.105   .     S
C103   H124    1.106   .     S
C103   C594    1.525   1_545 S
C104   H138    1.082   .     S
C104   H137    1.111   .     S
C105   H148    1.078   .     S
C105   C834    1.384   .     S
C106   H136    1.099   .     S
C106   C107    1.516   .     S
C106   H135    1.108   .     S
C106   C186    1.529   .     S
C107   H132    1.109   .     S
C107   H134    1.111   .     S
C107   H215    1.105   .     S
C108   H146    1.111   .     S
C108   H145    1.082   .     S
C108   C191    1.529   .     S
C108   N236    1.451   .     S
C109   H143    1.099   .     S
C109   H144    1.108   .     S
C109   C110    1.516   .     S
C110   H142    1.111   .     S
C110   H141    1.109   .     S
C111   H149    1.078   .     S
C111   C835    1.384   1_554 S
C112   C359    1.331   .     S
C112   H396    1.081   .     S
C113   C604    1.331   1_545 S
C113   H643    1.081   1_545 S
C114   O159    1.304   .     A
C114   O161    1.318   .     A
C115   O160    1.304   .     A
C115   O162    1.318   .     A
H140   C192    1.105   .     S
H150   C604    1.081   1_545 S
H151   C359    1.081   .     S
N153   Zn164   2.073   .     S
N153   C186    1.451   .     S
N153   N236    1.273   .     S
N154   Zn163   2.073   .     S
O155   Zn163   1.991   .     S
O156   Zn164   1.991   .     S
O157   Zn164   1.992   .     S
O158   Zn163   1.992   .     S
O159   Zn163   2.002   .     S
O160   Zn164   2.002   .     S
O161   Zn164   2.031   .     S
O162   Zn163   2.031   .     S
C165   O239    1.309   .     A
C165   O237    1.305   .     A
C165   C194    1.413   .     S
C166   C177    1.413   .     A
C166   C168    1.411   .     A
C166   C183    1.514   .     S
C167   C197    1.438   .     S
C167   C198    1.411   .     A
C167   C169    1.386   .     A
C168   C170    1.386   .     A
C168   C196    1.438   .     S
C169   C171    1.376   .     A
C169   H199    1.081   .     S
C170   H210    1.081   .     S
C170   C172    1.376   .     A
C171   C178    1.393   .     A
C171   C173    1.406   .     A
C172   C179    1.393   .     A
C172   C174    1.406   .     A
C173   C175    1.420   .     A
C173   C912    1.401   1_554 S
C174   C177    1.420   .     A
C174   C911    1.401   .     S
C175   C198    1.413   .     A
C175   C193    1.411   .     A
C176   O238    1.305   .     A
C176   O240    1.309   .     A
C176   C195    1.413   .     S
C177   C187    1.411   .     A
C178   H221    1.084   .     S
C178   C925    1.384   1_554 S
C179   H229    1.084   .     S
C179   C931    1.384   .     S
C180   C198    1.514   .     S
C180   C181    1.527   .     S
C180   H204    1.103   .     S
C180   H205    1.100   .     S
C181   H203    1.108   .     S
C181   H202    1.111   .     S
C181   C674    1.525   1_545 S
C182   H234    1.105   .     S
C182   H201    1.106   .     S
C182   H200    1.110   .     S
C182   C427    1.525   .     S
C183   C184    1.527   .     S
C183   H213    1.103   .     S
C183   H212    1.100   .     S
C184   H209    1.108   .     S
C184   H211    1.111   .     S
C184   C431    1.525   .     S
C185   H207    1.110   .     S
C185   H208    1.105   .     S
C185   H206    1.106   .     S
C185   C676    1.525   1_545 S
C186   H220    1.082   .     S
C186   H219    1.111   .     S
C187   H230    1.078   .     S
C187   C916    1.384   .     S
C188   H218    1.099   .     S
C188   C189    1.516   .     S
C188   H217    1.108   .     S
C188   C22     1.529   1_655 S
C189   H214    1.109   .     S
C189   H216    1.111   .     S
C189   H51     1.105   1_655 S
C190   H228    1.111   .     S
C190   H227    1.082   .     S
C190   C27     1.529   1_655 S
C190   N72     1.451   1_655 S
C191   H225    1.099   .     S
C191   H226    1.108   .     S
C191   C192    1.516   .     S
C192   H224    1.111   .     S
C192   H223    1.109   .     S
C193   H231    1.078   .     S
C193   C917    1.384   1_554 S
C194   C441    1.331   .     S
C194   H478    1.081   .     S
C195   C686    1.331   1_545 S
C195   H725    1.081   1_545 S
C196   O241    1.304   .     A
C196   O243    1.318   .     A
C197   O242    1.304   .     A
C197   O244    1.318   .     A
H222   C28     1.105   1_655 S
H232   C686    1.081   1_545 S
H233   C441    1.081   .     S
N235   Zn246   2.073   .     S
N235   C22     1.451   1_655 S
N235   N72     1.273   1_655 S
N236   Zn245   2.073   .     S
O237   Zn245   1.991   .     S
O238   Zn246   1.991   .     S
O239   Zn246   1.992   .     S
O240   Zn245   1.992   .     S
O241   Zn245   2.002   .     S
O242   Zn246   2.002   .     S
O243   Zn246   2.031   .     S
O244   Zn245   2.031   .     S
C247   O321    1.309   .     A
C247   O319    1.305   .     A
C247   C276    1.413   .     S
C248   C259    1.413   .     A
C248   C250    1.411   .     A
C248   C265    1.514   .     S
C249   C279    1.438   .     S
C249   C280    1.411   .     A
C249   C251    1.386   .     A
C250   C252    1.386   .     A
C250   C278    1.438   .     S
C251   C253    1.376   .     A
C251   H281    1.081   .     S
C252   H292    1.081   .     S
C252   C254    1.376   .     A
C253   C260    1.393   .     A
C253   C255    1.406   .     A
C254   C261    1.393   .     A
C254   C256    1.406   .     A
C255   C257    1.420   .     A
C255   C994    1.401   1_554 S
C256   C259    1.420   .     A
C256   C993    1.401   .     S
C257   C280    1.413   .     A
C257   C275    1.411   .     A
C258   O320    1.305   .     A
C258   O322    1.309   .     A
C258   C277    1.413   .     S
C259   C269    1.411   .     A
C260   H303    1.084   .     S
C260   C1007   1.384   1_554 S
C261   H311    1.084   .     S
C261   C1013   1.384   .     S
C262   C280    1.514   .     S
C262   C263    1.527   .     S
C262   H286    1.103   .     S
C262   H287    1.100   .     S
C263   H285    1.108   .     S
C263   H284    1.111   .     S
C264   H316    1.105   .     S
C264   H283    1.106   .     S
C264   H282    1.110   .     S
C264   C509    1.525   .     S
C265   C266    1.527   .     S
C265   H295    1.103   .     S
C265   H294    1.100   .     S
C266   H291    1.108   .     S
C266   H293    1.111   .     S
C266   C513    1.525   .     S
C267   H289    1.110   .     S
C267   H290    1.105   .     S
C267   H288    1.106   .     S
C268   H302    1.082   .     S
C268   H301    1.111   .     S
C268   C434    1.529   1_455 S
C268   N481    1.451   1_455 S
C269   H312    1.078   .     S
C269   C998    1.384   .     S
C270   H300    1.099   .     S
C270   C271    1.516   .     S
C270   H299    1.108   .     S
C270   C350    1.529   .     S
C271   H296    1.109   .     S
C271   H298    1.111   .     S
C271   H379    1.105   .     S
C272   H310    1.111   .     S
C272   H309    1.082   .     S
C272   C355    1.529   .     S
C272   N400    1.451   .     S
C273   H307    1.099   .     S
C273   H308    1.108   .     S
C273   C274    1.516   .     S
C273   C436    1.529   1_455 S
C274   H306    1.111   .     S
C274   H305    1.109   .     S
C274   H468    1.105   1_455 S
C275   H313    1.078   .     S
C275   C999    1.384   1_554 S
C276   C523    1.331   .     S
C276   H560    1.081   .     S
C278   O323    1.304   .     A
C278   O325    1.318   .     A
C279   O324    1.304   .     A
C279   O326    1.318   .     A
H297   C435    1.105   1_455 S
H304   C356    1.105   .     S
H315   C523    1.081   .     S
N317   Zn328   2.073   .     S
N317   C350    1.451   .     S
N317   N400    1.273   .     S
N318   Zn327   2.073   .     S
N318   N481    1.273   1_455 S
N318   C436    1.451   1_455 S
O319   Zn327   1.991   .     S
O320   Zn328   1.991   .     S
O321   Zn328   1.992   .     S
O322   Zn327   1.992   .     S
O323   Zn327   2.002   .     S
O324   Zn328   2.002   .     S
O325   Zn328   2.031   .     S
O326   Zn327   2.031   .     S
C329   O403    1.309   .     A
C329   O401    1.305   .     A
C329   C358    1.413   .     S
C330   C341    1.413   .     A
C330   C332    1.411   .     A
C330   C347    1.514   .     S
C331   C361    1.438   .     S
C331   C362    1.411   .     A
C331   C333    1.386   .     A
C332   C334    1.386   .     A
C332   C360    1.438   .     S
C333   C335    1.376   .     A
C333   H363    1.081   .     S
C334   H374    1.081   .     S
C334   C336    1.376   .     A
C335   C342    1.393   .     A
C335   C337    1.406   .     A
C336   C343    1.393   .     A
C336   C338    1.406   .     A
C337   C339    1.420   .     A
C337   C1076   1.401   1_554 S
C338   C341    1.420   .     A
C338   C1075   1.401   .     S
C339   C362    1.413   .     A
C339   C357    1.411   .     A
C340   O402    1.305   .     A
C340   O404    1.309   .     A
C340   C359    1.413   .     S
C341   C351    1.411   .     A
C342   H385    1.084   .     S
C342   C1089   1.384   1_554 S
C343   H393    1.084   .     S
C343   C1095   1.384   .     S
C344   C362    1.514   .     S
C344   C345    1.527   .     S
C344   H368    1.103   .     S
C344   H369    1.100   .     S
C345   H367    1.108   .     S
C345   H366    1.111   .     S
C346   H398    1.105   .     S
C346   H365    1.106   .     S
C346   H364    1.110   .     S
C346   C591    1.525   .     S
C347   C348    1.527   .     S
C347   H377    1.103   .     S
C347   H376    1.100   .     S
C348   H373    1.108   .     S
C348   H375    1.111   .     S
C348   C595    1.525   .     S
C349   H371    1.110   .     S
C349   H372    1.105   .     S
C349   H370    1.106   .     S
C350   H384    1.082   .     S
C350   H383    1.111   .     S
C351   H394    1.078   .     S
C351   C1080   1.384   .     S
C352   H382    1.099   .     S
C352   C353    1.516   .     S
C352   H381    1.108   .     S
C352   C432    1.529   .     S
C353   H378    1.109   .     S
C353   H380    1.111   .     S
C353   H461    1.105   .     S
C354   H392    1.111   .     S
C354   H391    1.082   .     S
C354   C437    1.529   .     S
C354   N482    1.451   .     S
C355   H389    1.099   .     S
C355   H390    1.108   .     S
C355   C356    1.516   .     S
C356   H388    1.111   .     S
C356   H387    1.109   .     S
C357   H395    1.078   .     S
C357   C1081   1.384   1_554 S
C358   C605    1.331   .     S
C358   H642    1.081   .     S
C360   O405    1.304   .     A
C360   O407    1.318   .     A
C361   O406    1.304   .     A
C361   O408    1.318   .     A
H386   C438    1.105   .     S
H397   C605    1.081   .     S
N399   Zn410   2.073   .     S
N399   C432    1.451   .     S
N399   N482    1.273   .     S
N400   Zn409   2.073   .     S
O401   Zn409   1.991   .     S
O402   Zn410   1.991   .     S
O403   Zn410   1.992   .     S
O404   Zn409   1.992   .     S
O405   Zn409   2.002   .     S
O406   Zn410   2.002   .     S
O407   Zn410   2.031   .     S
O408   Zn409   2.031   .     S
C411   O485    1.309   .     A
C411   O483    1.305   .     A
C411   C440    1.413   .     S
C412   C423    1.413   .     A
C412   C414    1.411   .     A
C412   C429    1.514   .     S
C413   C443    1.438   .     S
C413   C444    1.411   .     A
C413   C415    1.386   .     A
C414   C416    1.386   .     A
C414   C442    1.438   .     S
C415   C417    1.376   .     A
C415   H445    1.081   .     S
C416   H456    1.081   .     S
C416   C418    1.376   .     A
C417   C424    1.393   .     A
C417   C419    1.406   .     A
C418   C425    1.393   .     A
C418   C420    1.406   .     A
C419   C421    1.420   .     A
C419   C1158   1.401   1_554 S
C420   C423    1.420   .     A
C420   C1157   1.401   .     S
C421   C444    1.413   .     A
C421   C439    1.411   .     A
C422   O484    1.305   .     A
C422   O486    1.309   .     A
C422   C441    1.413   .     S
C423   C433    1.411   .     A
C424   H467    1.084   .     S
C424   C1171   1.384   1_554 S
C425   H475    1.084   .     S
C425   C1177   1.384   .     S
C426   C444    1.514   .     S
C426   C427    1.527   .     S
C426   H450    1.103   .     S
C426   H451    1.100   .     S
C427   H449    1.108   .     S
C427   H448    1.111   .     S
C428   H480    1.105   .     S
C428   H447    1.106   .     S
C428   H446    1.110   .     S
C428   C673    1.525   .     S
C429   C430    1.527   .     S
C429   H459    1.103   .     S
C429   H458    1.100   .     S
C430   H455    1.108   .     S
C430   H457    1.111   .     S
C430   C677    1.525   .     S
C431   H453    1.110   .     S
C431   H454    1.105   .     S
C431   H452    1.106   .     S
C432   H466    1.082   .     S
C432   H465    1.111   .     S
C433   H476    1.078   .     S
C433   C1162   1.384   .     S
C434   H464    1.099   .     S
C434   C435    1.516   .     S
C434   H463    1.108   .     S
C434   C268    1.529   1_655 S
C435   H460    1.109   .     S
C435   H462    1.111   .     S
C435   H297    1.105   1_655 S
C436   H474    1.111   .     S
C436   H473    1.082   .     S
C436   C273    1.529   1_655 S
C436   N318    1.451   1_655 S
C437   H471    1.099   .     S
C437   H472    1.108   .     S
C437   C438    1.516   .     S
C438   H470    1.111   .     S
C438   H469    1.109   .     S
C439   H477    1.078   .     S
C439   C1163   1.384   1_554 S
C440   C687    1.331   .     S
C440   H724    1.081   .     S
C442   O487    1.304   .     A
C442   O489    1.318   .     A
C443   O488    1.304   .     A
C443   O490    1.318   .     A
H468   C274    1.105   1_655 S
H479   C687    1.081   .     S
N481   Zn492   2.073   .     S
N481   C268    1.451   1_655 S
N481   N318    1.273   1_655 S
N482   Zn491   2.073   .     S
O483   Zn491   1.991   .     S
O484   Zn492   1.991   .     S
O485   Zn492   1.992   .     S
O486   Zn491   1.992   .     S
O487   Zn491   2.002   .     S
O488   Zn492   2.002   .     S
O489   Zn492   2.031   .     S
O490   Zn491   2.031   .     S
C493   O567    1.309   .     A
C493   O565    1.305   .     A
C493   C522    1.413   .     S
C494   C505    1.413   .     A
C494   C496    1.411   .     A
C494   C511    1.514   .     S
C495   C525    1.438   .     S
C495   C526    1.411   .     A
C495   C497    1.386   .     A
C496   C498    1.386   .     A
C496   C524    1.438   .     S
C497   C499    1.376   .     A
C497   H527    1.081   .     S
C498   H538    1.081   .     S
C498   C500    1.376   .     A
C499   C506    1.393   .     A
C499   C501    1.406   .     A
C500   C507    1.393   .     A
C500   C502    1.406   .     A
C501   C503    1.420   .     A
C501   C1240   1.401   1_554 S
C502   C505    1.420   .     A
C502   C1239   1.401   .     S
C503   C526    1.413   .     A
C503   C521    1.411   .     A
C504   O566    1.305   .     A
C504   O568    1.309   .     A
C504   C523    1.413   .     S
C505   C515    1.411   .     A
C506   H549    1.084   .     S
C506   C1253   1.384   1_554 S
C507   H557    1.084   .     S
C507   C1259   1.384   .     S
C508   C526    1.514   .     S
C508   C509    1.527   .     S
C508   H532    1.103   .     S
C508   H533    1.100   .     S
C509   H531    1.108   .     S
C509   H530    1.111   .     S
C510   H562    1.105   .     S
C510   H529    1.106   .     S
C510   H528    1.110   .     S
C510   C17     1.525   1_565 S
C511   C512    1.527   .     S
C511   H541    1.103   .     S
C511   H540    1.100   .     S
C512   H537    1.108   .     S
C512   H539    1.111   .     S
C512   C21     1.525   1_565 S
C513   H535    1.110   .     S
C513   H536    1.105   .     S
C513   H534    1.106   .     S
C514   H548    1.082   .     S
C514   H547    1.111   .     S
C514   C680    1.529   1_455 S
C514   N727    1.451   1_455 S
C515   H558    1.078   .     S
C515   C1244   1.384   .     S
C516   H546    1.099   .     S
C516   C517    1.516   .     S
C516   H545    1.108   .     S
C516   C596    1.529   .     S
C517   H542    1.109   .     S
C517   H544    1.111   .     S
C517   H625    1.105   .     S
C518   H556    1.111   .     S
C518   H555    1.082   .     S
C518   C601    1.529   .     S
C518   N646    1.451   .     S
C519   H553    1.099   .     S
C519   H554    1.108   .     S
C519   C520    1.516   .     S
C519   C682    1.529   1_455 S
C520   H552    1.111   .     S
C520   H551    1.109   .     S
C520   H714    1.105   1_455 S
C521   H559    1.078   .     S
C521   C1245   1.384   1_554 S
C522   C31     1.331   1_565 S
C522   H68     1.081   1_565 S
C524   O569    1.304   .     A
C524   O571    1.318   .     A
C525   O570    1.304   .     A
C525   O572    1.318   .     A
H543   C681    1.105   1_455 S
H550   C602    1.105   .     S
H561   C31     1.081   1_565 S
N563   Zn574   2.073   .     S
N563   C596    1.451   .     S
N563   N646    1.273   .     S
N564   Zn573   2.073   .     S
N564   N727    1.273   1_455 S
N564   C682    1.451   1_455 S
O565   Zn573   1.991   .     S
O566   Zn574   1.991   .     S
O567   Zn574   1.992   .     S
O568   Zn573   1.992   .     S
O569   Zn573   2.002   .     S
O570   Zn574   2.002   .     S
O571   Zn574   2.031   .     S
O572   Zn573   2.031   .     S
C575   O649    1.309   .     A
C575   O647    1.305   .     A
C575   C604    1.413   .     S
C576   C587    1.413   .     A
C576   C578    1.411   .     A
C576   C593    1.514   .     S
C577   C607    1.438   .     S
C577   C608    1.411   .     A
C577   C579    1.386   .     A
C578   C580    1.386   .     A
C578   C606    1.438   .     S
C579   C581    1.376   .     A
C579   H609    1.081   .     S
C580   H620    1.081   .     S
C580   C582    1.376   .     A
C581   C588    1.393   .     A
C581   C583    1.406   .     A
C582   C589    1.393   .     A
C582   C584    1.406   .     A
C583   C585    1.420   .     A
C583   C1322   1.401   1_554 S
C584   C587    1.420   .     A
C584   C1321   1.401   .     S
C585   C608    1.413   .     A
C585   C603    1.411   .     A
C586   O648    1.305   .     A
C586   O650    1.309   .     A
C586   C605    1.413   .     S
C587   C597    1.411   .     A
C588   H631    1.084   .     S
C588   C1335   1.384   1_554 S
C589   H639    1.084   .     S
C589   C1341   1.384   .     S
C590   C608    1.514   .     S
C590   C591    1.527   .     S
C590   H614    1.103   .     S
C590   H615    1.100   .     S
C591   H613    1.108   .     S
C591   H612    1.111   .     S
C592   H644    1.105   .     S
C592   H611    1.106   .     S
C592   H610    1.110   .     S
C592   C99     1.525   1_565 S
C593   C594    1.527   .     S
C593   H623    1.103   .     S
C593   H622    1.100   .     S
C594   H619    1.108   .     S
C594   H621    1.111   .     S
C594   C103    1.525   1_565 S
C595   H617    1.110   .     S
C595   H618    1.105   .     S
C595   H616    1.106   .     S
C596   H630    1.082   .     S
C596   H629    1.111   .     S
C597   H640    1.078   .     S
C597   C1326   1.384   .     S
C598   H628    1.099   .     S
C598   C599    1.516   .     S
C598   H627    1.108   .     S
C598   C678    1.529   .     S
C599   H624    1.109   .     S
C599   H626    1.111   .     S
C599   H707    1.105   .     S
C600   H638    1.111   .     S
C600   H637    1.082   .     S
C600   C683    1.529   .     S
C600   N728    1.451   .     S
C601   H635    1.099   .     S
C601   H636    1.108   .     S
C601   C602    1.516   .     S
C602   H634    1.111   .     S
C602   H633    1.109   .     S
C603   H641    1.078   .     S
C603   C1327   1.384   1_554 S
C604   C113    1.331   1_565 S
C604   H150    1.081   1_565 S
C606   O651    1.304   .     A
C606   O653    1.318   .     A
C607   O652    1.304   .     A
C607   O654    1.318   .     A
H632   C684    1.105   .     S
H643   C113    1.081   1_565 S
N645   Zn656   2.073   .     S
N645   C678    1.451   .     S
N645   N728    1.273   .     S
N646   Zn655   2.073   .     S
O647   Zn655   1.991   .     S
O648   Zn656   1.991   .     S
O649   Zn656   1.992   .     S
O650   Zn655   1.992   .     S
O651   Zn655   2.002   .     S
O652   Zn656   2.002   .     S
O653   Zn656   2.031   .     S
O654   Zn655   2.031   .     S
C657   O731    1.309   .     A
C657   O729    1.305   .     A
C657   C686    1.413   .     S
C658   C669    1.413   .     A
C658   C660    1.411   .     A
C658   C675    1.514   .     S
C659   C689    1.438   .     S
C659   C690    1.411   .     A
C659   C661    1.386   .     A
C660   C662    1.386   .     A
C660   C688    1.438   .     S
C661   C663    1.376   .     A
C661   H691    1.081   .     S
C662   H702    1.081   .     S
C662   C664    1.376   .     A
C663   C670    1.393   .     A
C663   C665    1.406   .     A
C664   C671    1.393   .     A
C664   C666    1.406   .     A
C665   C667    1.420   .     A
C665   C1404   1.401   1_554 S
C666   C669    1.420   .     A
C666   C1403   1.401   .     S
C667   C690    1.413   .     A
C667   C685    1.411   .     A
C668   O730    1.305   .     A
C668   O732    1.309   .     A
C668   C687    1.413   .     S
C669   C679    1.411   .     A
C670   H713    1.084   .     S
C670   C1417   1.384   1_554 S
C671   H721    1.084   .     S
C671   C1423   1.384   .     S
C672   C690    1.514   .     S
C672   C673    1.527   .     S
C672   H696    1.103   .     S
C672   H697    1.100   .     S
C673   H695    1.108   .     S
C673   H694    1.111   .     S
C674   H726    1.105   .     S
C674   H693    1.106   .     S
C674   H692    1.110   .     S
C674   C181    1.525   1_565 S
C675   C676    1.527   .     S
C675   H705    1.103   .     S
C675   H704    1.100   .     S
C676   H701    1.108   .     S
C676   H703    1.111   .     S
C676   C185    1.525   1_565 S
C677   H699    1.110   .     S
C677   H700    1.105   .     S
C677   H698    1.106   .     S
C678   H712    1.082   .     S
C678   H711    1.111   .     S
C679   H722    1.078   .     S
C679   C1408   1.384   .     S
C680   H710    1.099   .     S
C680   C681    1.516   .     S
C680   H709    1.108   .     S
C680   C514    1.529   1_655 S
C681   H706    1.109   .     S
C681   H708    1.111   .     S
C681   H543    1.105   1_655 S
C682   H720    1.111   .     S
C682   H719    1.082   .     S
C682   C519    1.529   1_655 S
C682   N564    1.451   1_655 S
C683   H717    1.099   .     S
C683   H718    1.108   .     S
C683   C684    1.516   .     S
C684   H716    1.111   .     S
C684   H715    1.109   .     S
C685   H723    1.078   .     S
C685   C1409   1.384   1_554 S
C686   C195    1.331   1_565 S
C686   H232    1.081   1_565 S
C688   O733    1.304   .     A
C688   O735    1.318   .     A
C689   O734    1.304   .     A
C689   O736    1.318   .     A
H714   C520    1.105   1_655 S
H725   C195    1.081   1_565 S
N727   Zn738   2.073   .     S
N727   C514    1.451   1_655 S
N727   N564    1.273   1_655 S
N728   Zn737   2.073   .     S
O729   Zn737   1.991   .     S
O730   Zn738   1.991   .     S
O731   Zn738   1.992   .     S
O732   Zn737   1.992   .     S
O733   Zn737   2.002   .     S
O734   Zn738   2.002   .     S
O735   Zn738   2.031   .     S
O736   Zn737   2.031   .     S
C739   O813    1.309   .     A
C739   O811    1.305   .     A
C739   C768    1.413   .     S
C740   C751    1.413   .     A
C740   C742    1.411   .     A
C740   C757    1.514   .     S
C741   C771    1.438   .     S
C741   C772    1.411   .     A
C741   C743    1.386   .     A
C742   C744    1.386   .     A
C742   C770    1.438   .     S
C743   C745    1.376   .     A
C743   H773    1.081   .     S
C744   H784    1.081   .     S
C744   C746    1.376   .     A
C745   C752    1.393   .     A
C745   C747    1.406   .     A
C746   C753    1.393   .     A
C746   C748    1.406   .     A
C747   C749    1.420   .     A
C748   C751    1.420   .     A
C748   C9      1.401   1_556 S
C749   C772    1.413   .     A
C749   C767    1.411   .     A
C750   O812    1.305   .     A
C750   O814    1.309   .     A
C750   C769    1.413   .     S
C751   C761    1.411   .     A
C752   H795    1.084   .     S
C753   H803    1.084   .     S
C753   C29     1.384   1_556 S
C754   C772    1.514   .     S
C754   C755    1.527   .     S
C754   H778    1.103   .     S
C754   H779    1.100   .     S
C755   H777    1.108   .     S
C755   H776    1.111   .     S
C755   C1248   1.525   1_545 S
C756   H808    1.105   .     S
C756   H775    1.106   .     S
C756   H774    1.110   .     S
C756   C1001   1.525   .     S
C757   C758    1.527   .     S
C757   H787    1.103   .     S
C757   H786    1.100   .     S
C758   H783    1.108   .     S
C758   H785    1.111   .     S
C758   C1005   1.525   .     S
C759   H781    1.110   .     S
C759   H782    1.105   .     S
C759   H780    1.106   .     S
C759   C1250   1.525   1_545 S
C760   H794    1.082   .     S
C760   H793    1.111   .     S
C760   C926    1.529   1_455 S
C760   N973    1.451   1_455 S
C761   H804    1.078   .     S
C761   C14     1.384   1_556 S
C762   H792    1.099   .     S
C762   C763    1.516   .     S
C762   H791    1.108   .     S
C762   C842    1.529   .     S
C763   H788    1.109   .     S
C763   H790    1.111   .     S
C763   H871    1.105   .     S
C764   H802    1.111   .     S
C764   H801    1.082   .     S
C764   C847    1.529   .     S
C764   N892    1.451   .     S
C765   H799    1.099   .     S
C765   H800    1.108   .     S
C765   C766    1.516   .     S
C765   C928    1.529   1_455 S
C766   H798    1.111   .     S
C766   H797    1.109   .     S
C766   H960    1.105   1_455 S
C767   H805    1.078   .     S
C768   C1015   1.331   .     S
C768   H1052   1.081   .     S
C769   C1260   1.331   1_545 S
C769   H1299   1.081   1_545 S
C770   O815    1.304   .     A
C770   O817    1.318   .     A
C771   O816    1.304   .     A
C771   O818    1.318   .     A
H789   C927    1.105   1_455 S
H796   C848    1.105   .     S
H806   C1260   1.081   1_545 S
H807   C1015   1.081   .     S
N809   Zn820   2.073   .     S
N809   C842    1.451   .     S
N809   N892    1.273   .     S
N810   Zn819   2.073   .     S
N810   N973    1.273   1_455 S
N810   C928    1.451   1_455 S
O811   Zn819   1.991   .     S
O812   Zn820   1.991   .     S
O813   Zn820   1.992   .     S
O814   Zn819   1.992   .     S
O815   Zn819   2.002   .     S
O816   Zn820   2.002   .     S
O817   Zn820   2.031   .     S
O818   Zn819   2.031   .     S
C821   O895    1.309   .     A
C821   O893    1.305   .     A
C821   C850    1.413   .     S
C822   C833    1.413   .     A
C822   C824    1.411   .     A
C822   C839    1.514   .     S
C823   C853    1.438   .     S
C823   C854    1.411   .     A
C823   C825    1.386   .     A
C824   C826    1.386   .     A
C824   C852    1.438   .     S
C825   C827    1.376   .     A
C825   H855    1.081   .     S
C826   H866    1.081   .     S
C826   C828    1.376   .     A
C827   C834    1.393   .     A
C827   C829    1.406   .     A
C828   C835    1.393   .     A
C828   C830    1.406   .     A
C829   C831    1.420   .     A
C830   C833    1.420   .     A
C830   C91     1.401   1_556 S
C831   C854    1.413   .     A
C831   C849    1.411   .     A
C832   O894    1.305   .     A
C832   O896    1.309   .     A
C832   C851    1.413   .     S
C833   C843    1.411   .     A
C834   H877    1.084   .     S
C835   H885    1.084   .     S
C835   C111    1.384   1_556 S
C836   C854    1.514   .     S
C836   C837    1.527   .     S
C836   H860    1.103   .     S
C836   H861    1.100   .     S
C837   H859    1.108   .     S
C837   H858    1.111   .     S
C837   C1330   1.525   1_545 S
C838   H890    1.105   .     S
C838   H857    1.106   .     S
C838   H856    1.110   .     S
C838   C1083   1.525   .     S
C839   C840    1.527   .     S
C839   H869    1.103   .     S
C839   H868    1.100   .     S
C840   H865    1.108   .     S
C840   H867    1.111   .     S
C840   C1087   1.525   .     S
C841   H863    1.110   .     S
C841   H864    1.105   .     S
C841   H862    1.106   .     S
C841   C1332   1.525   1_545 S
C842   H876    1.082   .     S
C842   H875    1.111   .     S
C843   H886    1.078   .     S
C843   C96     1.384   1_556 S
C844   H874    1.099   .     S
C844   C845    1.516   .     S
C844   H873    1.108   .     S
C844   C924    1.529   .     S
C845   H870    1.109   .     S
C845   H872    1.111   .     S
C845   H953    1.105   .     S
C846   H884    1.111   .     S
C846   H883    1.082   .     S
C846   C929    1.529   .     S
C846   N974    1.451   .     S
C847   H881    1.099   .     S
C847   H882    1.108   .     S
C847   C848    1.516   .     S
C848   H880    1.111   .     S
C848   H879    1.109   .     S
C849   H887    1.078   .     S
C850   C1097   1.331   .     S
C850   H1134   1.081   .     S
C851   C1342   1.331   1_545 S
C851   H1381   1.081   1_545 S
C852   O897    1.304   .     A
C852   O899    1.318   .     A
C853   O898    1.304   .     A
C853   O900    1.318   .     A
H878   C930    1.105   .     S
H888   C1342   1.081   1_545 S
H889   C1097   1.081   .     S
N891   Zn902   2.073   .     S
N891   C924    1.451   .     S
N891   N974    1.273   .     S
N892   Zn901   2.073   .     S
O893   Zn901   1.991   .     S
O894   Zn902   1.991   .     S
O895   Zn902   1.992   .     S
O896   Zn901   1.992   .     S
O897   Zn901   2.002   .     S
O898   Zn902   2.002   .     S
O899   Zn902   2.031   .     S
O900   Zn901   2.031   .     S
C903   O977    1.309   .     A
C903   O975    1.305   .     A
C903   C932    1.413   .     S
C904   C915    1.413   .     A
C904   C906    1.411   .     A
C904   C921    1.514   .     S
C905   C935    1.438   .     S
C905   C936    1.411   .     A
C905   C907    1.386   .     A
C906   C908    1.386   .     A
C906   C934    1.438   .     S
C907   C909    1.376   .     A
C907   H937    1.081   .     S
C908   H948    1.081   .     S
C908   C910    1.376   .     A
C909   C916    1.393   .     A
C909   C911    1.406   .     A
C910   C917    1.393   .     A
C910   C912    1.406   .     A
C911   C913    1.420   .     A
C912   C915    1.420   .     A
C912   C173    1.401   1_556 S
C913   C936    1.413   .     A
C913   C931    1.411   .     A
C914   O976    1.305   .     A
C914   O978    1.309   .     A
C914   C933    1.413   .     S
C915   C925    1.411   .     A
C916   H959    1.084   .     S
C917   H967    1.084   .     S
C917   C193    1.384   1_556 S
C918   C936    1.514   .     S
C918   C919    1.527   .     S
C918   H942    1.103   .     S
C918   H943    1.100   .     S
C919   H941    1.108   .     S
C919   H940    1.111   .     S
C919   C1412   1.525   1_545 S
C920   H972    1.105   .     S
C920   H939    1.106   .     S
C920   H938    1.110   .     S
C920   C1165   1.525   .     S
C921   C922    1.527   .     S
C921   H951    1.103   .     S
C921   H950    1.100   .     S
C922   H947    1.108   .     S
C922   H949    1.111   .     S
C922   C1169   1.525   .     S
C923   H945    1.110   .     S
C923   H946    1.105   .     S
C923   H944    1.106   .     S
C923   C1414   1.525   1_545 S
C924   H958    1.082   .     S
C924   H957    1.111   .     S
C925   H968    1.078   .     S
C925   C178    1.384   1_556 S
C926   H956    1.099   .     S
C926   C927    1.516   .     S
C926   H955    1.108   .     S
C926   C760    1.529   1_655 S
C927   H952    1.109   .     S
C927   H954    1.111   .     S
C927   H789    1.105   1_655 S
C928   H966    1.111   .     S
C928   H965    1.082   .     S
C928   C765    1.529   1_655 S
C928   N810    1.451   1_655 S
C929   H963    1.099   .     S
C929   H964    1.108   .     S
C929   C930    1.516   .     S
C930   H962    1.111   .     S
C930   H961    1.109   .     S
C931   H969    1.078   .     S
C932   C1179   1.331   .     S
C932   H1216   1.081   .     S
C933   C1424   1.331   1_545 S
C933   H1463   1.081   1_545 S
C934   O979    1.304   .     A
C934   O981    1.318   .     A
C935   O980    1.304   .     A
C935   O982    1.318   .     A
H960   C766    1.105   1_655 S
H970   C1424   1.081   1_545 S
H971   C1179   1.081   .     S
N973   Zn984   2.073   .     S
N973   C760    1.451   1_655 S
N973   N810    1.273   1_655 S
N974   Zn983   2.073   .     S
O975   Zn983   1.991   .     S
O976   Zn984   1.991   .     S
O977   Zn984   1.992   .     S
O978   Zn983   1.992   .     S
O979   Zn983   2.002   .     S
O980   Zn984   2.002   .     S
O981   Zn984   2.031   .     S
O982   Zn983   2.031   .     S
C985   O1059   1.309   .     A
C985   O1057   1.305   .     A
C985   C1014   1.413   .     S
C986   C997    1.413   .     A
C986   C988    1.411   .     A
C986   C1003   1.514   .     S
C987   C1017   1.438   .     S
C987   C1018   1.411   .     A
C987   C989    1.386   .     A
C988   C990    1.386   .     A
C988   C1016   1.438   .     S
C989   C991    1.376   .     A
C989   H1019   1.081   .     S
C990   H1030   1.081   .     S
C990   C992    1.376   .     A
C991   C998    1.393   .     A
C991   C993    1.406   .     A
C992   C999    1.393   .     A
C992   C994    1.406   .     A
C993   C995    1.420   .     A
C994   C997    1.420   .     A
C994   C255    1.401   1_556 S
C995   C1018   1.413   .     A
C995   C1013   1.411   .     A
C996   O1058   1.305   .     A
C996   O1060   1.309   .     A
C996   C1015   1.413   .     S
C997   C1007   1.411   .     A
C998   H1041   1.084   .     S
C999   H1049   1.084   .     S
C999   C275    1.384   1_556 S
C1000  C1018   1.514   .     S
C1000  C1001   1.527   .     S
C1000  H1024   1.103   .     S
C1000  H1025   1.100   .     S
C1001  H1023   1.108   .     S
C1001  H1022   1.111   .     S
C1002  H1054   1.105   .     S
C1002  H1021   1.106   .     S
C1002  H1020   1.110   .     S
C1002  C1247   1.525   .     S
C1003  C1004   1.527   .     S
C1003  H1033   1.103   .     S
C1003  H1032   1.100   .     S
C1004  H1029   1.108   .     S
C1004  H1031   1.111   .     S
C1004  C1251   1.525   .     S
C1005  H1027   1.110   .     S
C1005  H1028   1.105   .     S
C1005  H1026   1.106   .     S
C1006  H1040   1.082   .     S
C1006  H1039   1.111   .     S
C1006  C1172   1.529   1_455 S
C1006  N1219   1.451   1_455 S
C1007  H1050   1.078   .     S
C1007  C260    1.384   1_556 S
C1008  H1038   1.099   .     S
C1008  C1009   1.516   .     S
C1008  H1037   1.108   .     S
C1008  C1088   1.529   .     S
C1009  H1034   1.109   .     S
C1009  H1036   1.111   .     S
C1009  H1117   1.105   .     S
C1010  H1048   1.111   .     S
C1010  H1047   1.082   .     S
C1010  C1093   1.529   .     S
C1010  N1138   1.451   .     S
C1011  H1045   1.099   .     S
C1011  H1046   1.108   .     S
C1011  C1012   1.516   .     S
C1011  C1174   1.529   1_455 S
C1012  H1044   1.111   .     S
C1012  H1043   1.109   .     S
C1012  H1206   1.105   1_455 S
C1013  H1051   1.078   .     S
C1014  C1261   1.331   .     S
C1014  H1298   1.081   .     S
C1016  O1061   1.304   .     A
C1016  O1063   1.318   .     A
C1017  O1062   1.304   .     A
C1017  O1064   1.318   .     A
H1035  C1173   1.105   1_455 S
H1042  C1094   1.105   .     S
H1053  C1261   1.081   .     S
N1055  Zn1066  2.073   .     S
N1055  C1088   1.451   .     S
N1055  N1138   1.273   .     S
N1056  Zn1065  2.073   .     S
N1056  N1219   1.273   1_455 S
N1056  C1174   1.451   1_455 S
O1057  Zn1065  1.991   .     S
O1058  Zn1066  1.991   .     S
O1059  Zn1066  1.992   .     S
O1060  Zn1065  1.992   .     S
O1061  Zn1065  2.002   .     S
O1062  Zn1066  2.002   .     S
O1063  Zn1066  2.031   .     S
O1064  Zn1065  2.031   .     S
C1067  O1141   1.309   .     A
C1067  O1139   1.305   .     A
C1067  C1096   1.413   .     S
C1068  C1079   1.413   .     A
C1068  C1070   1.411   .     A
C1068  C1085   1.514   .     S
C1069  C1099   1.438   .     S
C1069  C1100   1.411   .     A
C1069  C1071   1.386   .     A
C1070  C1072   1.386   .     A
C1070  C1098   1.438   .     S
C1071  C1073   1.376   .     A
C1071  H1101   1.081   .     S
C1072  H1112   1.081   .     S
C1072  C1074   1.376   .     A
C1073  C1080   1.393   .     A
C1073  C1075   1.406   .     A
C1074  C1081   1.393   .     A
C1074  C1076   1.406   .     A
C1075  C1077   1.420   .     A
C1076  C1079   1.420   .     A
C1076  C337    1.401   1_556 S
C1077  C1100   1.413   .     A
C1077  C1095   1.411   .     A
C1078  O1140   1.305   .     A
C1078  O1142   1.309   .     A
C1078  C1097   1.413   .     S
C1079  C1089   1.411   .     A
C1080  H1123   1.084   .     S
C1081  H1131   1.084   .     S
C1081  C357    1.384   1_556 S
C1082  C1100   1.514   .     S
C1082  C1083   1.527   .     S
C1082  H1106   1.103   .     S
C1082  H1107   1.100   .     S
C1083  H1105   1.108   .     S
C1083  H1104   1.111   .     S
C1084  H1136   1.105   .     S
C1084  H1103   1.106   .     S
C1084  H1102   1.110   .     S
C1084  C1329   1.525   .     S
C1085  C1086   1.527   .     S
C1085  H1115   1.103   .     S
C1085  H1114   1.100   .     S
C1086  H1111   1.108   .     S
C1086  H1113   1.111   .     S
C1086  C1333   1.525   .     S
C1087  H1109   1.110   .     S
C1087  H1110   1.105   .     S
C1087  H1108   1.106   .     S
C1088  H1122   1.082   .     S
C1088  H1121   1.111   .     S
C1089  H1132   1.078   .     S
C1089  C342    1.384   1_556 S
C1090  H1120   1.099   .     S
C1090  C1091   1.516   .     S
C1090  H1119   1.108   .     S
C1090  C1170   1.529   .     S
C1091  H1116   1.109   .     S
C1091  H1118   1.111   .     S
C1091  H1199   1.105   .     S
C1092  H1130   1.111   .     S
C1092  H1129   1.082   .     S
C1092  C1175   1.529   .     S
C1092  N1220   1.451   .     S
C1093  H1127   1.099   .     S
C1093  H1128   1.108   .     S
C1093  C1094   1.516   .     S
C1094  H1126   1.111   .     S
C1094  H1125   1.109   .     S
C1095  H1133   1.078   .     S
C1096  C1343   1.331   .     S
C1096  H1380   1.081   .     S
C1098  O1143   1.304   .     A
C1098  O1145   1.318   .     A
C1099  O1144   1.304   .     A
C1099  O1146   1.318   .     A
H1124  C1176   1.105   .     S
H1135  C1343   1.081   .     S
N1137  Zn1148  2.073   .     S
N1137  C1170   1.451   .     S
N1137  N1220   1.273   .     S
N1138  Zn1147  2.073   .     S
O1139  Zn1147  1.991   .     S
O1140  Zn1148  1.991   .     S
O1141  Zn1148  1.992   .     S
O1142  Zn1147  1.992   .     S
O1143  Zn1147  2.002   .     S
O1144  Zn1148  2.002   .     S
O1145  Zn1148  2.031   .     S
O1146  Zn1147  2.031   .     S
C1149  O1223   1.309   .     A
C1149  O1221   1.305   .     A
C1149  C1178   1.413   .     S
C1150  C1161   1.413   .     A
C1150  C1152   1.411   .     A
C1150  C1167   1.514   .     S
C1151  C1181   1.438   .     S
C1151  C1182   1.411   .     A
C1151  C1153   1.386   .     A
C1152  C1154   1.386   .     A
C1152  C1180   1.438   .     S
C1153  C1155   1.376   .     A
C1153  H1183   1.081   .     S
C1154  H1194   1.081   .     S
C1154  C1156   1.376   .     A
C1155  C1162   1.393   .     A
C1155  C1157   1.406   .     A
C1156  C1163   1.393   .     A
C1156  C1158   1.406   .     A
C1157  C1159   1.420   .     A
C1158  C1161   1.420   .     A
C1158  C419    1.401   1_556 S
C1159  C1182   1.413   .     A
C1159  C1177   1.411   .     A
C1160  O1222   1.305   .     A
C1160  O1224   1.309   .     A
C1160  C1179   1.413   .     S
C1161  C1171   1.411   .     A
C1162  H1205   1.084   .     S
C1163  H1213   1.084   .     S
C1163  C439    1.384   1_556 S
C1164  C1182   1.514   .     S
C1164  C1165   1.527   .     S
C1164  H1188   1.103   .     S
C1164  H1189   1.100   .     S
C1165  H1187   1.108   .     S
C1165  H1186   1.111   .     S
C1166  H1218   1.105   .     S
C1166  H1185   1.106   .     S
C1166  H1184   1.110   .     S
C1166  C1411   1.525   .     S
C1167  C1168   1.527   .     S
C1167  H1197   1.103   .     S
C1167  H1196   1.100   .     S
C1168  H1193   1.108   .     S
C1168  H1195   1.111   .     S
C1168  C1415   1.525   .     S
C1169  H1191   1.110   .     S
C1169  H1192   1.105   .     S
C1169  H1190   1.106   .     S
C1170  H1204   1.082   .     S
C1170  H1203   1.111   .     S
C1171  H1214   1.078   .     S
C1171  C424    1.384   1_556 S
C1172  H1202   1.099   .     S
C1172  C1173   1.516   .     S
C1172  H1201   1.108   .     S
C1172  C1006   1.529   1_655 S
C1173  H1198   1.109   .     S
C1173  H1200   1.111   .     S
C1173  H1035   1.105   1_655 S
C1174  H1212   1.111   .     S
C1174  H1211   1.082   .     S
C1174  C1011   1.529   1_655 S
C1174  N1056   1.451   1_655 S
C1175  H1209   1.099   .     S
C1175  H1210   1.108   .     S
C1175  C1176   1.516   .     S
C1176  H1208   1.111   .     S
C1176  H1207   1.109   .     S
C1177  H1215   1.078   .     S
C1178  C1425   1.331   .     S
C1178  H1462   1.081   .     S
C1180  O1225   1.304   .     A
C1180  O1227   1.318   .     A
C1181  O1226   1.304   .     A
C1181  O1228   1.318   .     A
H1206  C1012   1.105   1_655 S
H1217  C1425   1.081   .     S
N1219  Zn1230  2.073   .     S
N1219  C1006   1.451   1_655 S
N1219  N1056   1.273   1_655 S
N1220  Zn1229  2.073   .     S
O1221  Zn1229  1.991   .     S
O1222  Zn1230  1.991   .     S
O1223  Zn1230  1.992   .     S
O1224  Zn1229  1.992   .     S
O1225  Zn1229  2.002   .     S
O1226  Zn1230  2.002   .     S
O1227  Zn1230  2.031   .     S
O1228  Zn1229  2.031   .     S
C1231  O1305   1.309   .     A
C1231  O1303   1.305   .     A
C1231  C1260   1.413   .     S
C1232  C1243   1.413   .     A
C1232  C1234   1.411   .     A
C1232  C1249   1.514   .     S
C1233  C1263   1.438   .     S
C1233  C1264   1.411   .     A
C1233  C1235   1.386   .     A
C1234  C1236   1.386   .     A
C1234  C1262   1.438   .     S
C1235  C1237   1.376   .     A
C1235  H1265   1.081   .     S
C1236  H1276   1.081   .     S
C1236  C1238   1.376   .     A
C1237  C1244   1.393   .     A
C1237  C1239   1.406   .     A
C1238  C1245   1.393   .     A
C1238  C1240   1.406   .     A
C1239  C1241   1.420   .     A
C1240  C1243   1.420   .     A
C1240  C501    1.401   1_556 S
C1241  C1264   1.413   .     A
C1241  C1259   1.411   .     A
C1242  O1304   1.305   .     A
C1242  O1306   1.309   .     A
C1242  C1261   1.413   .     S
C1243  C1253   1.411   .     A
C1244  H1287   1.084   .     S
C1245  H1295   1.084   .     S
C1245  C521    1.384   1_556 S
C1246  C1264   1.514   .     S
C1246  C1247   1.527   .     S
C1246  H1270   1.103   .     S
C1246  H1271   1.100   .     S
C1247  H1269   1.108   .     S
C1247  H1268   1.111   .     S
C1248  H1300   1.105   .     S
C1248  H1267   1.106   .     S
C1248  H1266   1.110   .     S
C1248  C755    1.525   1_565 S
C1249  C1250   1.527   .     S
C1249  H1279   1.103   .     S
C1249  H1278   1.100   .     S
C1250  H1275   1.108   .     S
C1250  H1277   1.111   .     S
C1250  C759    1.525   1_565 S
C1251  H1273   1.110   .     S
C1251  H1274   1.105   .     S
C1251  H1272   1.106   .     S
C1252  H1286   1.082   .     S
C1252  H1285   1.111   .     S
C1252  C1418   1.529   1_455 S
C1252  N1465   1.451   1_455 S
C1253  H1296   1.078   .     S
C1253  C506    1.384   1_556 S
C1254  H1284   1.099   .     S
C1254  C1255   1.516   .     S
C1254  H1283   1.108   .     S
C1254  C1334   1.529   .     S
C1255  H1280   1.109   .     S
C1255  H1282   1.111   .     S
C1255  H1363   1.105   .     S
C1256  H1294   1.111   .     S
C1256  H1293   1.082   .     S
C1256  C1339   1.529   .     S
C1256  N1384   1.451   .     S
C1257  H1291   1.099   .     S
C1257  H1292   1.108   .     S
C1257  C1258   1.516   .     S
C1257  C1420   1.529   1_455 S
C1258  H1290   1.111   .     S
C1258  H1289   1.109   .     S
C1258  H1452   1.105   1_455 S
C1259  H1297   1.078   .     S
C1260  C769    1.331   1_565 S
C1260  H806    1.081   1_565 S
C1262  O1307   1.304   .     A
C1262  O1309   1.318   .     A
C1263  O1308   1.304   .     A
C1263  O1310   1.318   .     A
H1281  C1419   1.105   1_455 S
H1288  C1340   1.105   .     S
H1299  C769    1.081   1_565 S
N1301  Zn1312  2.073   .     S
N1301  C1334   1.451   .     S
N1301  N1384   1.273   .     S
N1302  Zn1311  2.073   .     S
N1302  N1465   1.273   1_455 S
N1302  C1420   1.451   1_455 S
O1303  Zn1311  1.991   .     S
O1304  Zn1312  1.991   .     S
O1305  Zn1312  1.992   .     S
O1306  Zn1311  1.992   .     S
O1307  Zn1311  2.002   .     S
O1308  Zn1312  2.002   .     S
O1309  Zn1312  2.031   .     S
O1310  Zn1311  2.031   .     S
C1313  O1387   1.309   .     A
C1313  O1385   1.305   .     A
C1313  C1342   1.413   .     S
C1314  C1325   1.413   .     A
C1314  C1316   1.411   .     A
C1314  C1331   1.514   .     S
C1315  C1345   1.438   .     S
C1315  C1346   1.411   .     A
C1315  C1317   1.386   .     A
C1316  C1318   1.386   .     A
C1316  C1344   1.438   .     S
C1317  C1319   1.376   .     A
C1317  H1347   1.081   .     S
C1318  H1358   1.081   .     S
C1318  C1320   1.376   .     A
C1319  C1326   1.393   .     A
C1319  C1321   1.406   .     A
C1320  C1327   1.393   .     A
C1320  C1322   1.406   .     A
C1321  C1323   1.420   .     A
C1322  C1325   1.420   .     A
C1322  C583    1.401   1_556 S
C1323  C1346   1.413   .     A
C1323  C1341   1.411   .     A
C1324  O1386   1.305   .     A
C1324  O1388   1.309   .     A
C1324  C1343   1.413   .     S
C1325  C1335   1.411   .     A
C1326  H1369   1.084   .     S
C1327  H1377   1.084   .     S
C1327  C603    1.384   1_556 S
C1328  C1346   1.514   .     S
C1328  C1329   1.527   .     S
C1328  H1352   1.103   .     S
C1328  H1353   1.100   .     S
C1329  H1351   1.108   .     S
C1329  H1350   1.111   .     S
C1330  H1382   1.105   .     S
C1330  H1349   1.106   .     S
C1330  H1348   1.110   .     S
C1330  C837    1.525   1_565 S
C1331  C1332   1.527   .     S
C1331  H1361   1.103   .     S
C1331  H1360   1.100   .     S
C1332  H1357   1.108   .     S
C1332  H1359   1.111   .     S
C1332  C841    1.525   1_565 S
C1333  H1355   1.110   .     S
C1333  H1356   1.105   .     S
C1333  H1354   1.106   .     S
C1334  H1368   1.082   .     S
C1334  H1367   1.111   .     S
C1335  H1378   1.078   .     S
C1335  C588    1.384   1_556 S
C1336  H1366   1.099   .     S
C1336  C1337   1.516   .     S
C1336  H1365   1.108   .     S
C1336  C1416   1.529   .     S
C1337  H1362   1.109   .     S
C1337  H1364   1.111   .     S
C1337  H1445   1.105   .     S
C1338  H1376   1.111   .     S
C1338  H1375   1.082   .     S
C1338  C1421   1.529   .     S
C1338  N1466   1.451   .     S
C1339  H1373   1.099   .     S
C1339  H1374   1.108   .     S
C1339  C1340   1.516   .     S
C1340  H1372   1.111   .     S
C1340  H1371   1.109   .     S
C1341  H1379   1.078   .     S
C1342  C851    1.331   1_565 S
C1342  H888    1.081   1_565 S
C1344  O1389   1.304   .     A
C1344  O1391   1.318   .     A
C1345  O1390   1.304   .     A
C1345  O1392   1.318   .     A
H1370  C1422   1.105   .     S
H1381  C851    1.081   1_565 S
N1383  Zn1394  2.073   .     S
N1383  C1416   1.451   .     S
N1383  N1466   1.273   .     S
N1384  Zn1393  2.073   .     S
O1385  Zn1393  1.991   .     S
O1386  Zn1394  1.991   .     S
O1387  Zn1394  1.992   .     S
O1388  Zn1393  1.992   .     S
O1389  Zn1393  2.002   .     S
O1390  Zn1394  2.002   .     S
O1391  Zn1394  2.031   .     S
O1392  Zn1393  2.031   .     S
C1395  O1469   1.309   .     A
C1395  O1467   1.305   .     A
C1395  C1424   1.413   .     S
C1396  C1407   1.413   .     A
C1396  C1398   1.411   .     A
C1396  C1413   1.514   .     S
C1397  C1427   1.438   .     S
C1397  C1428   1.411   .     A
C1397  C1399   1.386   .     A
C1398  C1400   1.386   .     A
C1398  C1426   1.438   .     S
C1399  C1401   1.376   .     A
C1399  H1429   1.081   .     S
C1400  H1440   1.081   .     S
C1400  C1402   1.376   .     A
C1401  C1408   1.393   .     A
C1401  C1403   1.406   .     A
C1402  C1409   1.393   .     A
C1402  C1404   1.406   .     A
C1403  C1405   1.420   .     A
C1404  C1407   1.420   .     A
C1404  C665    1.401   1_556 S
C1405  C1428   1.413   .     A
C1405  C1423   1.411   .     A
C1406  O1468   1.305   .     A
C1406  O1470   1.309   .     A
C1406  C1425   1.413   .     S
C1407  C1417   1.411   .     A
C1408  H1451   1.084   .     S
C1409  H1459   1.084   .     S
C1409  C685    1.384   1_556 S
C1410  C1428   1.514   .     S
C1410  C1411   1.527   .     S
C1410  H1434   1.103   .     S
C1410  H1435   1.100   .     S
C1411  H1433   1.108   .     S
C1411  H1432   1.111   .     S
C1412  H1464   1.105   .     S
C1412  H1431   1.106   .     S
C1412  H1430   1.110   .     S
C1412  C919    1.525   1_565 S
C1413  C1414   1.527   .     S
C1413  H1443   1.103   .     S
C1413  H1442   1.100   .     S
C1414  H1439   1.108   .     S
C1414  H1441   1.111   .     S
C1414  C923    1.525   1_565 S
C1415  H1437   1.110   .     S
C1415  H1438   1.105   .     S
C1415  H1436   1.106   .     S
C1416  H1450   1.082   .     S
C1416  H1449   1.111   .     S
C1417  H1460   1.078   .     S
C1417  C670    1.384   1_556 S
C1418  H1448   1.099   .     S
C1418  C1419   1.516   .     S
C1418  H1447   1.108   .     S
C1418  C1252   1.529   1_655 S
C1419  H1444   1.109   .     S
C1419  H1446   1.111   .     S
C1419  H1281   1.105   1_655 S
C1420  H1458   1.111   .     S
C1420  H1457   1.082   .     S
C1420  C1257   1.529   1_655 S
C1420  N1302   1.451   1_655 S
C1421  H1455   1.099   .     S
C1421  H1456   1.108   .     S
C1421  C1422   1.516   .     S
C1422  H1454   1.111   .     S
C1422  H1453   1.109   .     S
C1423  H1461   1.078   .     S
C1424  C933    1.331   1_565 S
C1424  H970    1.081   1_565 S
C1426  O1471   1.304   .     A
C1426  O1473   1.318   .     A
C1427  O1472   1.304   .     A
C1427  O1474   1.318   .     A
H1452  C1258   1.105   1_655 S
H1463  C933    1.081   1_565 S
N1465  Zn1476  2.073   .     S
N1465  C1252   1.451   1_655 S
N1465  N1302   1.273   1_655 S
N1466  Zn1475  2.073   .     S
O1467  Zn1475  1.991   .     S
O1468  Zn1476  1.991   .     S
O1469  Zn1476  1.992   .     S
O1470  Zn1475  1.992   .     S
O1471  Zn1475  2.002   .     S
O1472  Zn1476  2.002   .     S
O1473  Zn1476  2.031   .     S
O1474  Zn1475  2.031   .     S
