data_str_m3_o2_o10_pcu_sym.146
_audit_creation_date              2020-01-03
_audit_creation_method            'Materials Studio'
_symmetry_space_group_name_H-M    'P1'
_symmetry_Int_Tables_number       1
_symmetry_cell_setting            triclinic
loop_
_symmetry_equiv_pos_as_xyz
  x,y,z
_cell_length_a                    25.8640
_cell_length_b                    30.0703
_cell_length_c                    28.3703
_cell_angle_alpha                 87.2257
_cell_angle_beta                  97.1805
_cell_angle_gamma                 90.3446
loop_
_atom_site_label
_atom_site_type_symbol
_atom_site_fract_x
_atom_site_fract_y
_atom_site_fract_z
_atom_site_U_iso_or_equiv
_atom_site_adp_type
_atom_site_occupancy
C1     C     0.16856   0.16364   0.25169   0.00000  Uiso   1.00
C2     C     0.16636   0.33626   0.24843   0.00000  Uiso   1.00
C3     C     0.14103   0.21414   0.05229   0.00000  Uiso   1.00
C4     C     0.19266   0.28535   0.44799   0.00000  Uiso   1.00
C5     C     0.13538   0.22057   0.10083   0.00000  Uiso   1.00
C6     C     0.19930   0.27828   0.39978   0.00000  Uiso   1.00
C7     C     0.20327   0.27343   0.10537   0.00000  Uiso   1.00
C8     C     0.12831   0.22855   0.39414   0.00000  Uiso   1.00
C9     C     0.20512   0.27220   0.05636   0.00000  Uiso   1.00
C10    C     0.12592   0.22992   0.44310   0.00000  Uiso   1.00
C11    C     0.16898   0.24685   0.02721   0.00000  Uiso   1.00
C12    C     0.16348   0.25345   0.47263   0.00000  Uiso   1.00
C13    C     0.06727   0.25167   0.23837   0.00000  Uiso   1.00
C14    C     0.26591   0.24849   0.26168   0.00000  Uiso   1.00
C15    C     0.01394   0.26208   0.23557   0.00000  Uiso   1.00
C16    C     0.31900   0.23833   0.26480   0.00000  Uiso   1.00
C17    C     0.16147   0.04244   0.29161   0.00000  Uiso   1.00
C18    C     0.14813   0.45728   0.20869   0.00000  Uiso   1.00
C19    C     0.16560   0.08840   0.29642   0.00000  Uiso   1.00
C20    C     0.14822   0.41103   0.20473   0.00000  Uiso   1.00
C21    C     0.17572   0.11546   0.25582   0.00000  Uiso   1.00
C22    C     0.17066   0.38432   0.24502   0.00000  Uiso   1.00
C23    C     0.19426   0.09582   0.21739   0.00000  Uiso   1.00
C24    C     0.20033   0.40380   0.28318   0.00000  Uiso   1.00
C25    C     0.19935   0.05033   0.21724   0.00000  Uiso   1.00
C26    C     0.20658   0.44918   0.28304   0.00000  Uiso   1.00
C27    C     0.17998   0.02363   0.25246   0.00000  Uiso   1.00
C28    C     0.17844   0.47596   0.24756   0.00000  Uiso   1.00
H29    H     0.20581   0.11572   0.18759   0.00000  Uiso   1.00
H30    H     0.22014   0.38371   0.31267   0.00000  Uiso   1.00
H31    H     0.21564   0.03581   0.18813   0.00000  Uiso   1.00
H32    H     0.23141   0.46364   0.31197   0.00000  Uiso   1.00
H33    H     0.23099   0.29338   0.12681   0.00000  Uiso   1.00
H34    H     0.09955   0.21031   0.37230   0.00000  Uiso   1.00
H35    H     0.23574   0.29064   0.04205   0.00000  Uiso   1.00
H36    H     0.09401   0.21297   0.45714   0.00000  Uiso   1.00
N37    N     0.16667   0.24999   0.12623   0.00000  Uiso   1.00
N38    N     0.16667   0.25001   0.37376   0.00000  Uiso   1.00
O39    O     0.16667   0.18454   0.28974   0.00000  Uiso   1.00
O40    O     0.16666   0.31547   0.21026   0.00000  Uiso   1.00
O41    O     0.16667   0.18453   0.21026   0.00000  Uiso   1.00
O42    O     0.16666   0.31547   0.28974   0.00000  Uiso   1.00
O43    O     0.09058   0.25000   0.28044   0.00000  Uiso   1.00
O44    O     0.24275   0.25000   0.21955   0.00000  Uiso   1.00
O45    O     0.09058   0.24999   0.20096   0.00000  Uiso   1.00
O46    O     0.24275   0.25001   0.29903   0.00000  Uiso   1.00
Zn47   Zn    0.16667   0.25001   0.30307   0.00000  Uiso   1.00
Zn48   Zn    0.16667   0.25000   0.19693   0.00000  Uiso   1.00
S49    S     0.33019   0.31659   0.21062   0.00000  Uiso   1.00
O50    O     0.32668   0.31595   0.15741   0.00000  Uiso   1.00
O51    O     0.27977   0.33353   0.22402   0.00000  Uiso   1.00
O52    O     0.04425   0.35186   0.23087   0.00000  Uiso   1.00
H53    H     0.03176   0.38175   0.21842   0.00000  Uiso   1.00
S54    S     0.00248   0.18459   0.29154   0.00000  Uiso   1.00
O55    O     0.04999   0.16557   0.27446   0.00000  Uiso   1.00
O56    O     0.01096   0.18789   0.34458   0.00000  Uiso   1.00
O57    O     0.28585   0.14970   0.27803   0.00000  Uiso   1.00
H58    H     0.29490   0.12218   0.29789   0.00000  Uiso   1.00
N59    N     0.13551   0.01572   0.32488   0.00000  Uiso   1.00
H60    H     0.10588   0.49742   0.30616   0.00000  Uiso   1.00
H61    H     0.16206   0.49384   0.34448   0.00000  Uiso   1.00
N62    N     0.11540   0.48474   0.17455   0.00000  Uiso   1.00
H63    H     0.09213   0.00477   0.19244   0.00000  Uiso   1.00
H64    H     0.13847   0.00486   0.15462   0.00000  Uiso   1.00
S65    S     0.16280   0.10895   0.35416   0.00000  Uiso   1.00
O66    O     0.11087   0.13049   0.35530   0.00000  Uiso   1.00
O67    O     0.16943   0.07187   0.39191   0.00000  Uiso   1.00
O68    O     0.21096   0.14593   0.36725   0.00000  Uiso   1.00
H69    H     0.20728   0.15477   0.39985   0.00000  Uiso   1.00
S70    S     0.12874   0.38917   0.14743   0.00000  Uiso   1.00
O71    O     0.09211   0.35062   0.15043   0.00000  Uiso   1.00
O72    O     0.10283   0.42337   0.11197   0.00000  Uiso   1.00
O73    O     0.18262   0.37131   0.12668   0.00000  Uiso   1.00
H74    H     0.20529   0.39789   0.12544   0.00000  Uiso   1.00
S75    S     0.12931   0.15938   0.03140   0.00000  Uiso   1.00
O76    O     0.15995   0.15096   0.49105   0.00000  Uiso   1.00
O77    O     0.14577   0.12521   0.07075   0.00000  Uiso   1.00
O78    O     0.06526   0.15314   0.01369   0.00000  Uiso   1.00
H79    H     0.06201   0.12325   0.00040   0.00000  Uiso   1.00
S80    S     0.19835   0.34134   0.46632   0.00000  Uiso   1.00
O81    O     0.25401   0.35095   0.48528   0.00000  Uiso   1.00
O82    O     0.18227   0.37270   0.42419   0.00000  Uiso   1.00
O83    O     0.15930   0.35038   0.00809   0.00000  Uiso   1.00
H84    H     0.16848   0.38060   0.01884   0.00000  Uiso   1.00
N85    N     0.09725   0.19629   0.12417   0.00000  Uiso   1.00
H86    H     0.06148   0.19832   0.10248   0.00000  Uiso   1.00
H87    H     0.10811   0.16297   0.12989   0.00000  Uiso   1.00
N88    N     0.23876   0.30158   0.37700   0.00000  Uiso   1.00
H89    H     0.26915   0.27893   0.37670   0.00000  Uiso   1.00
H90    H     0.25555   0.32717   0.39717   0.00000  Uiso   1.00
C91    C     0.50189   0.16364   0.25169   0.00000  Uiso   1.00
C92    C     0.49969   0.33626   0.24843   0.00000  Uiso   1.00
C93    C     0.47436   0.21414   0.05229   0.00000  Uiso   1.00
C94    C     0.52599   0.28535   0.44799   0.00000  Uiso   1.00
C95    C     0.46872   0.22057   0.10083   0.00000  Uiso   1.00
C96    C     0.53263   0.27828   0.39978   0.00000  Uiso   1.00
C97    C     0.53661   0.27343   0.10537   0.00000  Uiso   1.00
C98    C     0.46164   0.22855   0.39414   0.00000  Uiso   1.00
C99    C     0.53845   0.27220   0.05636   0.00000  Uiso   1.00
C100   C     0.45925   0.22992   0.44310   0.00000  Uiso   1.00
C101   C     0.50231   0.24685   0.02721   0.00000  Uiso   1.00
C102   C     0.49681   0.25345   0.47263   0.00000  Uiso   1.00
C103   C     0.40061   0.25167   0.23837   0.00000  Uiso   1.00
C104   C     0.59925   0.24849   0.26168   0.00000  Uiso   1.00
C105   C     0.34727   0.26208   0.23557   0.00000  Uiso   1.00
C106   C     0.65234   0.23833   0.26480   0.00000  Uiso   1.00
C107   C     0.49481   0.04244   0.29161   0.00000  Uiso   1.00
C108   C     0.48146   0.45728   0.20869   0.00000  Uiso   1.00
C109   C     0.49894   0.08840   0.29642   0.00000  Uiso   1.00
C110   C     0.48156   0.41103   0.20473   0.00000  Uiso   1.00
C111   C     0.50906   0.11546   0.25582   0.00000  Uiso   1.00
C112   C     0.50399   0.38432   0.24502   0.00000  Uiso   1.00
C113   C     0.52759   0.09582   0.21739   0.00000  Uiso   1.00
C114   C     0.53366   0.40380   0.28318   0.00000  Uiso   1.00
C115   C     0.53268   0.05033   0.21724   0.00000  Uiso   1.00
C116   C     0.53991   0.44918   0.28304   0.00000  Uiso   1.00
C117   C     0.51331   0.02363   0.25246   0.00000  Uiso   1.00
C118   C     0.51178   0.47596   0.24756   0.00000  Uiso   1.00
H119   H     0.53915   0.11572   0.18759   0.00000  Uiso   1.00
H120   H     0.55347   0.38371   0.31267   0.00000  Uiso   1.00
H121   H     0.54897   0.03581   0.18813   0.00000  Uiso   1.00
H122   H     0.56475   0.46364   0.31197   0.00000  Uiso   1.00
H123   H     0.56432   0.29338   0.12681   0.00000  Uiso   1.00
H124   H     0.43288   0.21031   0.37230   0.00000  Uiso   1.00
H125   H     0.56908   0.29064   0.04205   0.00000  Uiso   1.00
H126   H     0.42735   0.21297   0.45714   0.00000  Uiso   1.00
N127   N     0.50000   0.24999   0.12623   0.00000  Uiso   1.00
N128   N     0.50000   0.25001   0.37376   0.00000  Uiso   1.00
O129   O     0.50000   0.18454   0.28974   0.00000  Uiso   1.00
O130   O     0.50000   0.31547   0.21026   0.00000  Uiso   1.00
O131   O     0.50000   0.18453   0.21026   0.00000  Uiso   1.00
O132   O     0.50000   0.31547   0.28974   0.00000  Uiso   1.00
O133   O     0.42392   0.25000   0.28044   0.00000  Uiso   1.00
O134   O     0.57608   0.25000   0.21955   0.00000  Uiso   1.00
O135   O     0.42392   0.24999   0.20096   0.00000  Uiso   1.00
O136   O     0.57608   0.25001   0.29903   0.00000  Uiso   1.00
Zn137  Zn    0.50000   0.25001   0.30307   0.00000  Uiso   1.00
Zn138  Zn    0.50000   0.25000   0.19693   0.00000  Uiso   1.00
S139   S     0.66353   0.31659   0.21062   0.00000  Uiso   1.00
O140   O     0.66001   0.31595   0.15741   0.00000  Uiso   1.00
O141   O     0.61310   0.33353   0.22402   0.00000  Uiso   1.00
O142   O     0.37759   0.35186   0.23087   0.00000  Uiso   1.00
H143   H     0.36509   0.38175   0.21842   0.00000  Uiso   1.00
S144   S     0.33582   0.18459   0.29154   0.00000  Uiso   1.00
O145   O     0.38333   0.16557   0.27446   0.00000  Uiso   1.00
O146   O     0.34430   0.18789   0.34458   0.00000  Uiso   1.00
O147   O     0.61919   0.14970   0.27803   0.00000  Uiso   1.00
H148   H     0.62824   0.12218   0.29789   0.00000  Uiso   1.00
N149   N     0.46884   0.01572   0.32488   0.00000  Uiso   1.00
H150   H     0.43922   0.49742   0.30616   0.00000  Uiso   1.00
H151   H     0.49540   0.49384   0.34448   0.00000  Uiso   1.00
N152   N     0.44874   0.48474   0.17455   0.00000  Uiso   1.00
H153   H     0.42546   0.00477   0.19244   0.00000  Uiso   1.00
H154   H     0.47180   0.00486   0.15462   0.00000  Uiso   1.00
S155   S     0.49613   0.10895   0.35416   0.00000  Uiso   1.00
O156   O     0.44420   0.13049   0.35530   0.00000  Uiso   1.00
O157   O     0.50277   0.07187   0.39191   0.00000  Uiso   1.00
O158   O     0.54429   0.14593   0.36725   0.00000  Uiso   1.00
H159   H     0.54061   0.15477   0.39985   0.00000  Uiso   1.00
S160   S     0.46207   0.38917   0.14743   0.00000  Uiso   1.00
O161   O     0.42544   0.35062   0.15043   0.00000  Uiso   1.00
O162   O     0.43616   0.42337   0.11197   0.00000  Uiso   1.00
O163   O     0.51595   0.37131   0.12668   0.00000  Uiso   1.00
H164   H     0.53863   0.39789   0.12544   0.00000  Uiso   1.00
S165   S     0.46264   0.15938   0.03140   0.00000  Uiso   1.00
O166   O     0.49328   0.15096   0.49105   0.00000  Uiso   1.00
O167   O     0.47910   0.12521   0.07075   0.00000  Uiso   1.00
O168   O     0.39860   0.15314   0.01369   0.00000  Uiso   1.00
H169   H     0.39534   0.12325   0.00040   0.00000  Uiso   1.00
S170   S     0.53169   0.34134   0.46632   0.00000  Uiso   1.00
O171   O     0.58734   0.35095   0.48528   0.00000  Uiso   1.00
O172   O     0.51561   0.37270   0.42419   0.00000  Uiso   1.00
O173   O     0.49263   0.35038   0.00809   0.00000  Uiso   1.00
H174   H     0.50182   0.38060   0.01884   0.00000  Uiso   1.00
N175   N     0.43058   0.19629   0.12417   0.00000  Uiso   1.00
H176   H     0.39482   0.19832   0.10248   0.00000  Uiso   1.00
H177   H     0.44144   0.16297   0.12989   0.00000  Uiso   1.00
N178   N     0.57209   0.30158   0.37700   0.00000  Uiso   1.00
H179   H     0.60249   0.27893   0.37670   0.00000  Uiso   1.00
H180   H     0.58888   0.32717   0.39717   0.00000  Uiso   1.00
C181   C     0.83522   0.16364   0.25169   0.00000  Uiso   1.00
C182   C     0.83303   0.33626   0.24843   0.00000  Uiso   1.00
C183   C     0.80769   0.21414   0.05229   0.00000  Uiso   1.00
C184   C     0.85933   0.28535   0.44799   0.00000  Uiso   1.00
C185   C     0.80205   0.22057   0.10083   0.00000  Uiso   1.00
C186   C     0.86597   0.27828   0.39978   0.00000  Uiso   1.00
C187   C     0.86994   0.27343   0.10537   0.00000  Uiso   1.00
C188   C     0.79497   0.22855   0.39414   0.00000  Uiso   1.00
C189   C     0.87179   0.27220   0.05636   0.00000  Uiso   1.00
C190   C     0.79258   0.22992   0.44310   0.00000  Uiso   1.00
C191   C     0.83565   0.24685   0.02721   0.00000  Uiso   1.00
C192   C     0.83015   0.25345   0.47263   0.00000  Uiso   1.00
C193   C     0.73394   0.25167   0.23837   0.00000  Uiso   1.00
C194   C     0.93258   0.24849   0.26168   0.00000  Uiso   1.00
C195   C     0.68061   0.26208   0.23557   0.00000  Uiso   1.00
C196   C     0.98567   0.23833   0.26480   0.00000  Uiso   1.00
C197   C     0.82814   0.04244   0.29161   0.00000  Uiso   1.00
C198   C     0.81480   0.45728   0.20869   0.00000  Uiso   1.00
C199   C     0.83227   0.08840   0.29642   0.00000  Uiso   1.00
C200   C     0.81489   0.41103   0.20473   0.00000  Uiso   1.00
C201   C     0.84239   0.11546   0.25582   0.00000  Uiso   1.00
C202   C     0.83733   0.38432   0.24502   0.00000  Uiso   1.00
C203   C     0.86093   0.09582   0.21739   0.00000  Uiso   1.00
C204   C     0.86699   0.40380   0.28318   0.00000  Uiso   1.00
C205   C     0.86601   0.05033   0.21724   0.00000  Uiso   1.00
C206   C     0.87325   0.44918   0.28304   0.00000  Uiso   1.00
C207   C     0.84664   0.02363   0.25246   0.00000  Uiso   1.00
C208   C     0.84511   0.47596   0.24756   0.00000  Uiso   1.00
H209   H     0.87248   0.11572   0.18759   0.00000  Uiso   1.00
H210   H     0.88680   0.38371   0.31267   0.00000  Uiso   1.00
H211   H     0.88231   0.03581   0.18813   0.00000  Uiso   1.00
H212   H     0.89808   0.46364   0.31197   0.00000  Uiso   1.00
H213   H     0.89765   0.29338   0.12681   0.00000  Uiso   1.00
H214   H     0.76622   0.21031   0.37230   0.00000  Uiso   1.00
H215   H     0.90241   0.29064   0.04205   0.00000  Uiso   1.00
H216   H     0.76068   0.21297   0.45714   0.00000  Uiso   1.00
N217   N     0.83333   0.24999   0.12623   0.00000  Uiso   1.00
N218   N     0.83333   0.25001   0.37376   0.00000  Uiso   1.00
O219   O     0.83334   0.18454   0.28974   0.00000  Uiso   1.00
O220   O     0.83333   0.31547   0.21026   0.00000  Uiso   1.00
O221   O     0.83334   0.18453   0.21026   0.00000  Uiso   1.00
O222   O     0.83333   0.31547   0.28974   0.00000  Uiso   1.00
O223   O     0.75725   0.25000   0.28044   0.00000  Uiso   1.00
O224   O     0.90942   0.25000   0.21955   0.00000  Uiso   1.00
O225   O     0.75725   0.24999   0.20096   0.00000  Uiso   1.00
O226   O     0.90942   0.25001   0.29903   0.00000  Uiso   1.00
Zn227  Zn    0.83333   0.25001   0.30307   0.00000  Uiso   1.00
Zn228  Zn    0.83333   0.25000   0.19693   0.00000  Uiso   1.00
S229   S     0.99686   0.31659   0.21062   0.00000  Uiso   1.00
O230   O     0.99334   0.31595   0.15741   0.00000  Uiso   1.00
O231   O     0.94644   0.33353   0.22402   0.00000  Uiso   1.00
O232   O     0.71092   0.35186   0.23087   0.00000  Uiso   1.00
H233   H     0.69843   0.38175   0.21842   0.00000  Uiso   1.00
S234   S     0.66915   0.18459   0.29154   0.00000  Uiso   1.00
O235   O     0.71666   0.16557   0.27446   0.00000  Uiso   1.00
O236   O     0.67763   0.18789   0.34458   0.00000  Uiso   1.00
O237   O     0.95252   0.14970   0.27803   0.00000  Uiso   1.00
H238   H     0.96157   0.12218   0.29789   0.00000  Uiso   1.00
N239   N     0.80217   0.01572   0.32488   0.00000  Uiso   1.00
H240   H     0.77255   0.49742   0.30616   0.00000  Uiso   1.00
H241   H     0.82873   0.49384   0.34448   0.00000  Uiso   1.00
N242   N     0.78207   0.48474   0.17455   0.00000  Uiso   1.00
H243   H     0.75879   0.00477   0.19244   0.00000  Uiso   1.00
H244   H     0.80513   0.00486   0.15462   0.00000  Uiso   1.00
S245   S     0.82946   0.10895   0.35416   0.00000  Uiso   1.00
O246   O     0.77754   0.13049   0.35530   0.00000  Uiso   1.00
O247   O     0.83610   0.07187   0.39191   0.00000  Uiso   1.00
O248   O     0.87762   0.14593   0.36725   0.00000  Uiso   1.00
H249   H     0.87395   0.15477   0.39985   0.00000  Uiso   1.00
S250   S     0.79541   0.38917   0.14743   0.00000  Uiso   1.00
O251   O     0.75877   0.35062   0.15043   0.00000  Uiso   1.00
O252   O     0.76949   0.42337   0.11197   0.00000  Uiso   1.00
O253   O     0.84928   0.37131   0.12668   0.00000  Uiso   1.00
H254   H     0.87196   0.39789   0.12544   0.00000  Uiso   1.00
S255   S     0.79597   0.15938   0.03140   0.00000  Uiso   1.00
O256   O     0.82662   0.15096   0.49105   0.00000  Uiso   1.00
O257   O     0.81244   0.12521   0.07075   0.00000  Uiso   1.00
O258   O     0.73193   0.15314   0.01369   0.00000  Uiso   1.00
H259   H     0.72867   0.12325   0.00040   0.00000  Uiso   1.00
S260   S     0.86502   0.34134   0.46632   0.00000  Uiso   1.00
O261   O     0.92067   0.35095   0.48528   0.00000  Uiso   1.00
O262   O     0.84894   0.37270   0.42419   0.00000  Uiso   1.00
O263   O     0.82596   0.35038   0.00809   0.00000  Uiso   1.00
H264   H     0.83515   0.38060   0.01884   0.00000  Uiso   1.00
N265   N     0.76392   0.19629   0.12417   0.00000  Uiso   1.00
H266   H     0.72815   0.19832   0.10248   0.00000  Uiso   1.00
H267   H     0.77477   0.16297   0.12989   0.00000  Uiso   1.00
N268   N     0.90543   0.30158   0.37700   0.00000  Uiso   1.00
H269   H     0.93582   0.27893   0.37670   0.00000  Uiso   1.00
H270   H     0.92221   0.32717   0.39717   0.00000  Uiso   1.00
C271   C     0.16856   0.66364   0.25169   0.00000  Uiso   1.00
C272   C     0.16636   0.83626   0.24843   0.00000  Uiso   1.00
C273   C     0.14103   0.71414   0.05229   0.00000  Uiso   1.00
C274   C     0.19266   0.78535   0.44799   0.00000  Uiso   1.00
C275   C     0.13538   0.72057   0.10083   0.00000  Uiso   1.00
C276   C     0.19930   0.77828   0.39978   0.00000  Uiso   1.00
C277   C     0.20327   0.77343   0.10537   0.00000  Uiso   1.00
C278   C     0.12831   0.72855   0.39414   0.00000  Uiso   1.00
C279   C     0.20512   0.77220   0.05636   0.00000  Uiso   1.00
C280   C     0.12592   0.72992   0.44310   0.00000  Uiso   1.00
C281   C     0.16898   0.74685   0.02721   0.00000  Uiso   1.00
C282   C     0.16348   0.75345   0.47263   0.00000  Uiso   1.00
C283   C     0.06727   0.75167   0.23837   0.00000  Uiso   1.00
C284   C     0.26591   0.74849   0.26168   0.00000  Uiso   1.00
C285   C     0.01394   0.76208   0.23557   0.00000  Uiso   1.00
C286   C     0.31900   0.73833   0.26480   0.00000  Uiso   1.00
C287   C     0.16147   0.54244   0.29161   0.00000  Uiso   1.00
C288   C     0.14813   0.95728   0.20869   0.00000  Uiso   1.00
C289   C     0.16560   0.58840   0.29642   0.00000  Uiso   1.00
C290   C     0.14822   0.91103   0.20473   0.00000  Uiso   1.00
C291   C     0.17572   0.61546   0.25582   0.00000  Uiso   1.00
C292   C     0.17066   0.88432   0.24502   0.00000  Uiso   1.00
C293   C     0.19426   0.59582   0.21739   0.00000  Uiso   1.00
C294   C     0.20033   0.90380   0.28318   0.00000  Uiso   1.00
C295   C     0.19935   0.55033   0.21724   0.00000  Uiso   1.00
C296   C     0.20658   0.94918   0.28304   0.00000  Uiso   1.00
C297   C     0.17998   0.52363   0.25246   0.00000  Uiso   1.00
C298   C     0.17844   0.97596   0.24756   0.00000  Uiso   1.00
H299   H     0.20581   0.61572   0.18759   0.00000  Uiso   1.00
H300   H     0.22014   0.88371   0.31267   0.00000  Uiso   1.00
H301   H     0.21564   0.53581   0.18813   0.00000  Uiso   1.00
H302   H     0.23141   0.96364   0.31197   0.00000  Uiso   1.00
H303   H     0.23099   0.79338   0.12681   0.00000  Uiso   1.00
H304   H     0.09955   0.71031   0.37230   0.00000  Uiso   1.00
H305   H     0.23574   0.79064   0.04205   0.00000  Uiso   1.00
H306   H     0.09401   0.71297   0.45714   0.00000  Uiso   1.00
N307   N     0.16667   0.74999   0.12623   0.00000  Uiso   1.00
N308   N     0.16667   0.75001   0.37376   0.00000  Uiso   1.00
O309   O     0.16667   0.68454   0.28974   0.00000  Uiso   1.00
O310   O     0.16666   0.81547   0.21026   0.00000  Uiso   1.00
O311   O     0.16667   0.68453   0.21026   0.00000  Uiso   1.00
O312   O     0.16666   0.81547   0.28974   0.00000  Uiso   1.00
O313   O     0.09058   0.75000   0.28044   0.00000  Uiso   1.00
O314   O     0.24275   0.75000   0.21955   0.00000  Uiso   1.00
O315   O     0.09058   0.74999   0.20096   0.00000  Uiso   1.00
O316   O     0.24275   0.75001   0.29903   0.00000  Uiso   1.00
Zn317  Zn    0.16667   0.75001   0.30307   0.00000  Uiso   1.00
Zn318  Zn    0.16667   0.75000   0.19693   0.00000  Uiso   1.00
S319   S     0.33019   0.81659   0.21062   0.00000  Uiso   1.00
O320   O     0.32668   0.81595   0.15741   0.00000  Uiso   1.00
O321   O     0.27977   0.83353   0.22402   0.00000  Uiso   1.00
O322   O     0.04425   0.85186   0.23087   0.00000  Uiso   1.00
H323   H     0.03176   0.88175   0.21842   0.00000  Uiso   1.00
S324   S     0.00248   0.68459   0.29154   0.00000  Uiso   1.00
O325   O     0.04999   0.66557   0.27446   0.00000  Uiso   1.00
O326   O     0.01096   0.68789   0.34458   0.00000  Uiso   1.00
O327   O     0.28585   0.64970   0.27803   0.00000  Uiso   1.00
H328   H     0.29490   0.62218   0.29789   0.00000  Uiso   1.00
N329   N     0.13551   0.51572   0.32488   0.00000  Uiso   1.00
H330   H     0.10588   0.99742   0.30616   0.00000  Uiso   1.00
H331   H     0.16206   0.99384   0.34448   0.00000  Uiso   1.00
N332   N     0.11540   0.98474   0.17455   0.00000  Uiso   1.00
H333   H     0.09213   0.50477   0.19244   0.00000  Uiso   1.00
H334   H     0.13847   0.50486   0.15462   0.00000  Uiso   1.00
S335   S     0.16280   0.60895   0.35416   0.00000  Uiso   1.00
O336   O     0.11087   0.63049   0.35530   0.00000  Uiso   1.00
O337   O     0.16943   0.57187   0.39191   0.00000  Uiso   1.00
O338   O     0.21096   0.64593   0.36725   0.00000  Uiso   1.00
H339   H     0.20728   0.65477   0.39985   0.00000  Uiso   1.00
S340   S     0.12874   0.88917   0.14743   0.00000  Uiso   1.00
O341   O     0.09211   0.85062   0.15043   0.00000  Uiso   1.00
O342   O     0.10283   0.92337   0.11197   0.00000  Uiso   1.00
O343   O     0.18262   0.87131   0.12668   0.00000  Uiso   1.00
H344   H     0.20529   0.89789   0.12544   0.00000  Uiso   1.00
S345   S     0.12931   0.65938   0.03140   0.00000  Uiso   1.00
O346   O     0.15995   0.65096   0.49105   0.00000  Uiso   1.00
O347   O     0.14577   0.62521   0.07075   0.00000  Uiso   1.00
O348   O     0.06526   0.65314   0.01369   0.00000  Uiso   1.00
H349   H     0.06201   0.62325   0.00040   0.00000  Uiso   1.00
S350   S     0.19835   0.84134   0.46632   0.00000  Uiso   1.00
O351   O     0.25401   0.85095   0.48528   0.00000  Uiso   1.00
O352   O     0.18227   0.87270   0.42419   0.00000  Uiso   1.00
O353   O     0.15930   0.85038   0.00809   0.00000  Uiso   1.00
H354   H     0.16848   0.88060   0.01884   0.00000  Uiso   1.00
N355   N     0.09725   0.69629   0.12417   0.00000  Uiso   1.00
H356   H     0.06148   0.69832   0.10248   0.00000  Uiso   1.00
H357   H     0.10811   0.66297   0.12989   0.00000  Uiso   1.00
N358   N     0.23876   0.80158   0.37700   0.00000  Uiso   1.00
H359   H     0.26915   0.77893   0.37670   0.00000  Uiso   1.00
H360   H     0.25555   0.82717   0.39717   0.00000  Uiso   1.00
C361   C     0.50189   0.66364   0.25169   0.00000  Uiso   1.00
C362   C     0.49969   0.83626   0.24843   0.00000  Uiso   1.00
C363   C     0.47436   0.71414   0.05229   0.00000  Uiso   1.00
C364   C     0.52599   0.78535   0.44799   0.00000  Uiso   1.00
C365   C     0.46872   0.72057   0.10083   0.00000  Uiso   1.00
C366   C     0.53263   0.77828   0.39978   0.00000  Uiso   1.00
C367   C     0.53661   0.77343   0.10537   0.00000  Uiso   1.00
C368   C     0.46164   0.72855   0.39414   0.00000  Uiso   1.00
C369   C     0.53845   0.77220   0.05636   0.00000  Uiso   1.00
C370   C     0.45925   0.72992   0.44310   0.00000  Uiso   1.00
C371   C     0.50231   0.74685   0.02721   0.00000  Uiso   1.00
C372   C     0.49681   0.75345   0.47263   0.00000  Uiso   1.00
C373   C     0.40061   0.75167   0.23837   0.00000  Uiso   1.00
C374   C     0.59925   0.74849   0.26168   0.00000  Uiso   1.00
C375   C     0.34727   0.76208   0.23557   0.00000  Uiso   1.00
C376   C     0.65234   0.73833   0.26480   0.00000  Uiso   1.00
C377   C     0.49481   0.54244   0.29161   0.00000  Uiso   1.00
C378   C     0.48146   0.95728   0.20869   0.00000  Uiso   1.00
C379   C     0.49894   0.58840   0.29642   0.00000  Uiso   1.00
C380   C     0.48156   0.91103   0.20473   0.00000  Uiso   1.00
C381   C     0.50906   0.61546   0.25582   0.00000  Uiso   1.00
C382   C     0.50399   0.88432   0.24502   0.00000  Uiso   1.00
C383   C     0.52759   0.59582   0.21739   0.00000  Uiso   1.00
C384   C     0.53366   0.90380   0.28318   0.00000  Uiso   1.00
C385   C     0.53268   0.55033   0.21724   0.00000  Uiso   1.00
C386   C     0.53991   0.94918   0.28304   0.00000  Uiso   1.00
C387   C     0.51331   0.52363   0.25246   0.00000  Uiso   1.00
C388   C     0.51178   0.97596   0.24756   0.00000  Uiso   1.00
H389   H     0.53915   0.61572   0.18759   0.00000  Uiso   1.00
H390   H     0.55347   0.88371   0.31267   0.00000  Uiso   1.00
H391   H     0.54897   0.53581   0.18813   0.00000  Uiso   1.00
H392   H     0.56475   0.96364   0.31197   0.00000  Uiso   1.00
H393   H     0.56432   0.79338   0.12681   0.00000  Uiso   1.00
H394   H     0.43288   0.71031   0.37230   0.00000  Uiso   1.00
H395   H     0.56908   0.79064   0.04205   0.00000  Uiso   1.00
H396   H     0.42735   0.71297   0.45714   0.00000  Uiso   1.00
N397   N     0.50000   0.74999   0.12623   0.00000  Uiso   1.00
N398   N     0.50000   0.75001   0.37376   0.00000  Uiso   1.00
O399   O     0.50000   0.68454   0.28974   0.00000  Uiso   1.00
O400   O     0.50000   0.81547   0.21026   0.00000  Uiso   1.00
O401   O     0.50000   0.68453   0.21026   0.00000  Uiso   1.00
O402   O     0.50000   0.81547   0.28974   0.00000  Uiso   1.00
O403   O     0.42392   0.75000   0.28044   0.00000  Uiso   1.00
O404   O     0.57608   0.75000   0.21955   0.00000  Uiso   1.00
O405   O     0.42392   0.74999   0.20096   0.00000  Uiso   1.00
O406   O     0.57608   0.75001   0.29903   0.00000  Uiso   1.00
Zn407  Zn    0.50000   0.75001   0.30307   0.00000  Uiso   1.00
Zn408  Zn    0.50000   0.75000   0.19693   0.00000  Uiso   1.00
S409   S     0.66353   0.81659   0.21062   0.00000  Uiso   1.00
O410   O     0.66001   0.81595   0.15741   0.00000  Uiso   1.00
O411   O     0.61310   0.83353   0.22402   0.00000  Uiso   1.00
O412   O     0.37759   0.85186   0.23087   0.00000  Uiso   1.00
H413   H     0.36509   0.88175   0.21842   0.00000  Uiso   1.00
S414   S     0.33582   0.68459   0.29154   0.00000  Uiso   1.00
O415   O     0.38333   0.66557   0.27446   0.00000  Uiso   1.00
O416   O     0.34430   0.68789   0.34458   0.00000  Uiso   1.00
O417   O     0.61919   0.64970   0.27803   0.00000  Uiso   1.00
H418   H     0.62824   0.62218   0.29789   0.00000  Uiso   1.00
N419   N     0.46884   0.51572   0.32488   0.00000  Uiso   1.00
H420   H     0.43922   0.99742   0.30616   0.00000  Uiso   1.00
H421   H     0.49540   0.99384   0.34448   0.00000  Uiso   1.00
N422   N     0.44874   0.98474   0.17455   0.00000  Uiso   1.00
H423   H     0.42546   0.50477   0.19244   0.00000  Uiso   1.00
H424   H     0.47180   0.50486   0.15462   0.00000  Uiso   1.00
S425   S     0.49613   0.60895   0.35416   0.00000  Uiso   1.00
O426   O     0.44420   0.63049   0.35530   0.00000  Uiso   1.00
O427   O     0.50277   0.57187   0.39191   0.00000  Uiso   1.00
O428   O     0.54429   0.64593   0.36725   0.00000  Uiso   1.00
H429   H     0.54061   0.65477   0.39985   0.00000  Uiso   1.00
S430   S     0.46207   0.88917   0.14743   0.00000  Uiso   1.00
O431   O     0.42544   0.85062   0.15043   0.00000  Uiso   1.00
O432   O     0.43616   0.92337   0.11197   0.00000  Uiso   1.00
O433   O     0.51595   0.87131   0.12668   0.00000  Uiso   1.00
H434   H     0.53863   0.89789   0.12544   0.00000  Uiso   1.00
S435   S     0.46264   0.65938   0.03140   0.00000  Uiso   1.00
O436   O     0.49328   0.65096   0.49105   0.00000  Uiso   1.00
O437   O     0.47910   0.62521   0.07075   0.00000  Uiso   1.00
O438   O     0.39860   0.65314   0.01369   0.00000  Uiso   1.00
H439   H     0.39534   0.62325   0.00040   0.00000  Uiso   1.00
S440   S     0.53169   0.84134   0.46632   0.00000  Uiso   1.00
O441   O     0.58734   0.85095   0.48528   0.00000  Uiso   1.00
O442   O     0.51561   0.87270   0.42419   0.00000  Uiso   1.00
O443   O     0.49263   0.85038   0.00809   0.00000  Uiso   1.00
H444   H     0.50182   0.88060   0.01884   0.00000  Uiso   1.00
N445   N     0.43058   0.69629   0.12417   0.00000  Uiso   1.00
H446   H     0.39482   0.69832   0.10248   0.00000  Uiso   1.00
H447   H     0.44144   0.66297   0.12989   0.00000  Uiso   1.00
N448   N     0.57209   0.80158   0.37700   0.00000  Uiso   1.00
H449   H     0.60249   0.77893   0.37670   0.00000  Uiso   1.00
H450   H     0.58888   0.82717   0.39717   0.00000  Uiso   1.00
C451   C     0.83522   0.66364   0.25169   0.00000  Uiso   1.00
C452   C     0.83303   0.83626   0.24843   0.00000  Uiso   1.00
C453   C     0.80769   0.71414   0.05229   0.00000  Uiso   1.00
C454   C     0.85933   0.78535   0.44799   0.00000  Uiso   1.00
C455   C     0.80205   0.72057   0.10083   0.00000  Uiso   1.00
C456   C     0.86597   0.77828   0.39978   0.00000  Uiso   1.00
C457   C     0.86994   0.77343   0.10537   0.00000  Uiso   1.00
C458   C     0.79497   0.72855   0.39414   0.00000  Uiso   1.00
C459   C     0.87179   0.77220   0.05636   0.00000  Uiso   1.00
C460   C     0.79258   0.72992   0.44310   0.00000  Uiso   1.00
C461   C     0.83565   0.74685   0.02721   0.00000  Uiso   1.00
C462   C     0.83015   0.75345   0.47263   0.00000  Uiso   1.00
C463   C     0.73394   0.75167   0.23837   0.00000  Uiso   1.00
C464   C     0.93258   0.74849   0.26168   0.00000  Uiso   1.00
C465   C     0.68061   0.76208   0.23557   0.00000  Uiso   1.00
C466   C     0.98567   0.73833   0.26480   0.00000  Uiso   1.00
C467   C     0.82814   0.54244   0.29161   0.00000  Uiso   1.00
C468   C     0.81480   0.95728   0.20869   0.00000  Uiso   1.00
C469   C     0.83227   0.58840   0.29642   0.00000  Uiso   1.00
C470   C     0.81489   0.91103   0.20473   0.00000  Uiso   1.00
C471   C     0.84239   0.61546   0.25582   0.00000  Uiso   1.00
C472   C     0.83733   0.88432   0.24502   0.00000  Uiso   1.00
C473   C     0.86093   0.59582   0.21739   0.00000  Uiso   1.00
C474   C     0.86699   0.90380   0.28318   0.00000  Uiso   1.00
C475   C     0.86601   0.55033   0.21724   0.00000  Uiso   1.00
C476   C     0.87325   0.94918   0.28304   0.00000  Uiso   1.00
C477   C     0.84664   0.52363   0.25246   0.00000  Uiso   1.00
C478   C     0.84511   0.97596   0.24756   0.00000  Uiso   1.00
H479   H     0.87248   0.61572   0.18759   0.00000  Uiso   1.00
H480   H     0.88680   0.88371   0.31267   0.00000  Uiso   1.00
H481   H     0.88231   0.53581   0.18813   0.00000  Uiso   1.00
H482   H     0.89808   0.96364   0.31197   0.00000  Uiso   1.00
H483   H     0.89765   0.79338   0.12681   0.00000  Uiso   1.00
H484   H     0.76622   0.71031   0.37230   0.00000  Uiso   1.00
H485   H     0.90241   0.79064   0.04205   0.00000  Uiso   1.00
H486   H     0.76068   0.71297   0.45714   0.00000  Uiso   1.00
N487   N     0.83333   0.74999   0.12623   0.00000  Uiso   1.00
N488   N     0.83333   0.75001   0.37376   0.00000  Uiso   1.00
O489   O     0.83334   0.68454   0.28974   0.00000  Uiso   1.00
O490   O     0.83333   0.81547   0.21026   0.00000  Uiso   1.00
O491   O     0.83334   0.68453   0.21026   0.00000  Uiso   1.00
O492   O     0.83333   0.81547   0.28974   0.00000  Uiso   1.00
O493   O     0.75725   0.75000   0.28044   0.00000  Uiso   1.00
O494   O     0.90942   0.75000   0.21955   0.00000  Uiso   1.00
O495   O     0.75725   0.74999   0.20096   0.00000  Uiso   1.00
O496   O     0.90942   0.75001   0.29903   0.00000  Uiso   1.00
Zn497  Zn    0.83333   0.75001   0.30307   0.00000  Uiso   1.00
Zn498  Zn    0.83333   0.75000   0.19693   0.00000  Uiso   1.00
S499   S     0.99686   0.81659   0.21062   0.00000  Uiso   1.00
O500   O     0.99334   0.81595   0.15741   0.00000  Uiso   1.00
O501   O     0.94644   0.83353   0.22402   0.00000  Uiso   1.00
O502   O     0.71092   0.85186   0.23087   0.00000  Uiso   1.00
H503   H     0.69843   0.88175   0.21842   0.00000  Uiso   1.00
S504   S     0.66915   0.68459   0.29154   0.00000  Uiso   1.00
O505   O     0.71666   0.66557   0.27446   0.00000  Uiso   1.00
O506   O     0.67763   0.68789   0.34458   0.00000  Uiso   1.00
O507   O     0.95252   0.64970   0.27803   0.00000  Uiso   1.00
H508   H     0.96157   0.62218   0.29789   0.00000  Uiso   1.00
N509   N     0.80217   0.51572   0.32488   0.00000  Uiso   1.00
H510   H     0.77255   0.99742   0.30616   0.00000  Uiso   1.00
H511   H     0.82873   0.99384   0.34448   0.00000  Uiso   1.00
N512   N     0.78207   0.98474   0.17455   0.00000  Uiso   1.00
H513   H     0.75879   0.50477   0.19244   0.00000  Uiso   1.00
H514   H     0.80513   0.50486   0.15462   0.00000  Uiso   1.00
S515   S     0.82946   0.60895   0.35416   0.00000  Uiso   1.00
O516   O     0.77754   0.63049   0.35530   0.00000  Uiso   1.00
O517   O     0.83610   0.57187   0.39191   0.00000  Uiso   1.00
O518   O     0.87762   0.64593   0.36725   0.00000  Uiso   1.00
H519   H     0.87395   0.65477   0.39985   0.00000  Uiso   1.00
S520   S     0.79541   0.88917   0.14743   0.00000  Uiso   1.00
O521   O     0.75877   0.85062   0.15043   0.00000  Uiso   1.00
O522   O     0.76949   0.92337   0.11197   0.00000  Uiso   1.00
O523   O     0.84928   0.87131   0.12668   0.00000  Uiso   1.00
H524   H     0.87196   0.89789   0.12544   0.00000  Uiso   1.00
S525   S     0.79597   0.65938   0.03140   0.00000  Uiso   1.00
O526   O     0.82662   0.65096   0.49105   0.00000  Uiso   1.00
O527   O     0.81244   0.62521   0.07075   0.00000  Uiso   1.00
O528   O     0.73193   0.65314   0.01369   0.00000  Uiso   1.00
H529   H     0.72867   0.62325   0.00040   0.00000  Uiso   1.00
S530   S     0.86502   0.84134   0.46632   0.00000  Uiso   1.00
O531   O     0.92067   0.85095   0.48528   0.00000  Uiso   1.00
O532   O     0.84894   0.87270   0.42419   0.00000  Uiso   1.00
O533   O     0.82596   0.85038   0.00809   0.00000  Uiso   1.00
H534   H     0.83515   0.88060   0.01884   0.00000  Uiso   1.00
N535   N     0.76392   0.69629   0.12417   0.00000  Uiso   1.00
H536   H     0.72815   0.69832   0.10248   0.00000  Uiso   1.00
H537   H     0.77477   0.66297   0.12989   0.00000  Uiso   1.00
N538   N     0.90543   0.80158   0.37700   0.00000  Uiso   1.00
H539   H     0.93582   0.77893   0.37670   0.00000  Uiso   1.00
H540   H     0.92221   0.82717   0.39717   0.00000  Uiso   1.00
C541   C     0.16856   0.16364   0.75169   0.00000  Uiso   1.00
C542   C     0.16636   0.33626   0.74843   0.00000  Uiso   1.00
C543   C     0.14103   0.21414   0.55229   0.00000  Uiso   1.00
C544   C     0.19266   0.28535   0.94799   0.00000  Uiso   1.00
C545   C     0.13538   0.22057   0.60083   0.00000  Uiso   1.00
C546   C     0.19930   0.27828   0.89978   0.00000  Uiso   1.00
C547   C     0.20327   0.27343   0.60537   0.00000  Uiso   1.00
C548   C     0.12831   0.22855   0.89414   0.00000  Uiso   1.00
C549   C     0.20512   0.27220   0.55636   0.00000  Uiso   1.00
C550   C     0.12592   0.22992   0.94310   0.00000  Uiso   1.00
C551   C     0.16898   0.24685   0.52721   0.00000  Uiso   1.00
C552   C     0.16348   0.25345   0.97263   0.00000  Uiso   1.00
C553   C     0.06727   0.25167   0.73837   0.00000  Uiso   1.00
C554   C     0.26591   0.24849   0.76168   0.00000  Uiso   1.00
C555   C     0.01394   0.26208   0.73557   0.00000  Uiso   1.00
C556   C     0.31900   0.23833   0.76480   0.00000  Uiso   1.00
C557   C     0.16147   0.04244   0.79161   0.00000  Uiso   1.00
C558   C     0.14813   0.45728   0.70869   0.00000  Uiso   1.00
C559   C     0.16560   0.08840   0.79642   0.00000  Uiso   1.00
C560   C     0.14822   0.41103   0.70473   0.00000  Uiso   1.00
C561   C     0.17572   0.11546   0.75582   0.00000  Uiso   1.00
C562   C     0.17066   0.38432   0.74502   0.00000  Uiso   1.00
C563   C     0.19426   0.09582   0.71739   0.00000  Uiso   1.00
C564   C     0.20033   0.40380   0.78318   0.00000  Uiso   1.00
C565   C     0.19935   0.05033   0.71724   0.00000  Uiso   1.00
C566   C     0.20658   0.44918   0.78304   0.00000  Uiso   1.00
C567   C     0.17998   0.02363   0.75246   0.00000  Uiso   1.00
C568   C     0.17844   0.47596   0.74756   0.00000  Uiso   1.00
H569   H     0.20581   0.11572   0.68759   0.00000  Uiso   1.00
H570   H     0.22014   0.38371   0.81267   0.00000  Uiso   1.00
H571   H     0.21564   0.03581   0.68813   0.00000  Uiso   1.00
H572   H     0.23141   0.46364   0.81197   0.00000  Uiso   1.00
H573   H     0.23099   0.29338   0.62681   0.00000  Uiso   1.00
H574   H     0.09955   0.21031   0.87230   0.00000  Uiso   1.00
H575   H     0.23574   0.29064   0.54205   0.00000  Uiso   1.00
H576   H     0.09401   0.21297   0.95714   0.00000  Uiso   1.00
N577   N     0.16667   0.24999   0.62623   0.00000  Uiso   1.00
N578   N     0.16667   0.25001   0.87376   0.00000  Uiso   1.00
O579   O     0.16667   0.18454   0.78974   0.00000  Uiso   1.00
O580   O     0.16666   0.31547   0.71026   0.00000  Uiso   1.00
O581   O     0.16667   0.18453   0.71026   0.00000  Uiso   1.00
O582   O     0.16666   0.31547   0.78974   0.00000  Uiso   1.00
O583   O     0.09058   0.25000   0.78044   0.00000  Uiso   1.00
O584   O     0.24275   0.25000   0.71955   0.00000  Uiso   1.00
O585   O     0.09058   0.24999   0.70096   0.00000  Uiso   1.00
O586   O     0.24275   0.25001   0.79903   0.00000  Uiso   1.00
Zn587  Zn    0.16667   0.25001   0.80307   0.00000  Uiso   1.00
Zn588  Zn    0.16667   0.25000   0.69693   0.00000  Uiso   1.00
S589   S     0.33019   0.31659   0.71062   0.00000  Uiso   1.00
O590   O     0.32668   0.31595   0.65741   0.00000  Uiso   1.00
O591   O     0.27977   0.33353   0.72402   0.00000  Uiso   1.00
O592   O     0.04425   0.35186   0.73087   0.00000  Uiso   1.00
H593   H     0.03176   0.38175   0.71842   0.00000  Uiso   1.00
S594   S     0.00248   0.18459   0.79154   0.00000  Uiso   1.00
O595   O     0.04999   0.16557   0.77446   0.00000  Uiso   1.00
O596   O     0.01096   0.18789   0.84458   0.00000  Uiso   1.00
O597   O     0.28585   0.14970   0.77803   0.00000  Uiso   1.00
H598   H     0.29490   0.12218   0.79789   0.00000  Uiso   1.00
N599   N     0.13551   0.01572   0.82488   0.00000  Uiso   1.00
H600   H     0.10588   0.49742   0.80616   0.00000  Uiso   1.00
H601   H     0.16206   0.49384   0.84448   0.00000  Uiso   1.00
N602   N     0.11540   0.48474   0.67455   0.00000  Uiso   1.00
H603   H     0.09213   0.00477   0.69244   0.00000  Uiso   1.00
H604   H     0.13847   0.00486   0.65462   0.00000  Uiso   1.00
S605   S     0.16280   0.10895   0.85416   0.00000  Uiso   1.00
O606   O     0.11087   0.13049   0.85530   0.00000  Uiso   1.00
O607   O     0.16943   0.07187   0.89191   0.00000  Uiso   1.00
O608   O     0.21096   0.14593   0.86725   0.00000  Uiso   1.00
H609   H     0.20728   0.15477   0.89985   0.00000  Uiso   1.00
S610   S     0.12874   0.38917   0.64743   0.00000  Uiso   1.00
O611   O     0.09211   0.35062   0.65043   0.00000  Uiso   1.00
O612   O     0.10283   0.42337   0.61197   0.00000  Uiso   1.00
O613   O     0.18262   0.37131   0.62668   0.00000  Uiso   1.00
H614   H     0.20529   0.39789   0.62544   0.00000  Uiso   1.00
S615   S     0.12931   0.15938   0.53140   0.00000  Uiso   1.00
O616   O     0.15995   0.15096   0.99105   0.00000  Uiso   1.00
O617   O     0.14577   0.12521   0.57075   0.00000  Uiso   1.00
O618   O     0.06526   0.15314   0.51369   0.00000  Uiso   1.00
H619   H     0.06201   0.12325   0.50040   0.00000  Uiso   1.00
S620   S     0.19835   0.34134   0.96632   0.00000  Uiso   1.00
O621   O     0.25401   0.35095   0.98528   0.00000  Uiso   1.00
O622   O     0.18227   0.37270   0.92419   0.00000  Uiso   1.00
O623   O     0.15930   0.35038   0.50809   0.00000  Uiso   1.00
H624   H     0.16848   0.38060   0.51884   0.00000  Uiso   1.00
N625   N     0.09725   0.19629   0.62417   0.00000  Uiso   1.00
H626   H     0.06148   0.19832   0.60248   0.00000  Uiso   1.00
H627   H     0.10811   0.16297   0.62989   0.00000  Uiso   1.00
N628   N     0.23876   0.30158   0.87700   0.00000  Uiso   1.00
H629   H     0.26915   0.27893   0.87670   0.00000  Uiso   1.00
H630   H     0.25555   0.32717   0.89717   0.00000  Uiso   1.00
C631   C     0.50189   0.16364   0.75169   0.00000  Uiso   1.00
C632   C     0.49969   0.33626   0.74843   0.00000  Uiso   1.00
C633   C     0.47436   0.21414   0.55229   0.00000  Uiso   1.00
C634   C     0.52599   0.28535   0.94799   0.00000  Uiso   1.00
C635   C     0.46872   0.22057   0.60083   0.00000  Uiso   1.00
C636   C     0.53263   0.27828   0.89978   0.00000  Uiso   1.00
C637   C     0.53661   0.27343   0.60537   0.00000  Uiso   1.00
C638   C     0.46164   0.22855   0.89414   0.00000  Uiso   1.00
C639   C     0.53845   0.27220   0.55636   0.00000  Uiso   1.00
C640   C     0.45925   0.22992   0.94310   0.00000  Uiso   1.00
C641   C     0.50231   0.24685   0.52721   0.00000  Uiso   1.00
C642   C     0.49681   0.25345   0.97263   0.00000  Uiso   1.00
C643   C     0.40061   0.25167   0.73837   0.00000  Uiso   1.00
C644   C     0.59925   0.24849   0.76168   0.00000  Uiso   1.00
C645   C     0.34727   0.26208   0.73557   0.00000  Uiso   1.00
C646   C     0.65234   0.23833   0.76480   0.00000  Uiso   1.00
C647   C     0.49481   0.04244   0.79161   0.00000  Uiso   1.00
C648   C     0.48146   0.45728   0.70869   0.00000  Uiso   1.00
C649   C     0.49894   0.08840   0.79642   0.00000  Uiso   1.00
C650   C     0.48156   0.41103   0.70473   0.00000  Uiso   1.00
C651   C     0.50906   0.11546   0.75582   0.00000  Uiso   1.00
C652   C     0.50399   0.38432   0.74502   0.00000  Uiso   1.00
C653   C     0.52759   0.09582   0.71739   0.00000  Uiso   1.00
C654   C     0.53366   0.40380   0.78318   0.00000  Uiso   1.00
C655   C     0.53268   0.05033   0.71724   0.00000  Uiso   1.00
C656   C     0.53991   0.44918   0.78304   0.00000  Uiso   1.00
C657   C     0.51331   0.02363   0.75246   0.00000  Uiso   1.00
C658   C     0.51178   0.47596   0.74756   0.00000  Uiso   1.00
H659   H     0.53915   0.11572   0.68759   0.00000  Uiso   1.00
H660   H     0.55347   0.38371   0.81267   0.00000  Uiso   1.00
H661   H     0.54897   0.03581   0.68813   0.00000  Uiso   1.00
H662   H     0.56475   0.46364   0.81197   0.00000  Uiso   1.00
H663   H     0.56432   0.29338   0.62681   0.00000  Uiso   1.00
H664   H     0.43288   0.21031   0.87230   0.00000  Uiso   1.00
H665   H     0.56908   0.29064   0.54205   0.00000  Uiso   1.00
H666   H     0.42735   0.21297   0.95714   0.00000  Uiso   1.00
N667   N     0.50000   0.24999   0.62623   0.00000  Uiso   1.00
N668   N     0.50000   0.25001   0.87376   0.00000  Uiso   1.00
O669   O     0.50000   0.18454   0.78974   0.00000  Uiso   1.00
O670   O     0.50000   0.31547   0.71026   0.00000  Uiso   1.00
O671   O     0.50000   0.18453   0.71026   0.00000  Uiso   1.00
O672   O     0.50000   0.31547   0.78974   0.00000  Uiso   1.00
O673   O     0.42392   0.25000   0.78044   0.00000  Uiso   1.00
O674   O     0.57608   0.25000   0.71955   0.00000  Uiso   1.00
O675   O     0.42392   0.24999   0.70096   0.00000  Uiso   1.00
O676   O     0.57608   0.25001   0.79903   0.00000  Uiso   1.00
Zn677  Zn    0.50000   0.25001   0.80307   0.00000  Uiso   1.00
Zn678  Zn    0.50000   0.25000   0.69693   0.00000  Uiso   1.00
S679   S     0.66353   0.31659   0.71062   0.00000  Uiso   1.00
O680   O     0.66001   0.31595   0.65741   0.00000  Uiso   1.00
O681   O     0.61310   0.33353   0.72402   0.00000  Uiso   1.00
O682   O     0.37759   0.35186   0.73087   0.00000  Uiso   1.00
H683   H     0.36509   0.38175   0.71842   0.00000  Uiso   1.00
S684   S     0.33582   0.18459   0.79154   0.00000  Uiso   1.00
O685   O     0.38333   0.16557   0.77446   0.00000  Uiso   1.00
O686   O     0.34430   0.18789   0.84458   0.00000  Uiso   1.00
O687   O     0.61919   0.14970   0.77803   0.00000  Uiso   1.00
H688   H     0.62824   0.12218   0.79789   0.00000  Uiso   1.00
N689   N     0.46884   0.01572   0.82488   0.00000  Uiso   1.00
H690   H     0.43922   0.49742   0.80616   0.00000  Uiso   1.00
H691   H     0.49540   0.49384   0.84448   0.00000  Uiso   1.00
N692   N     0.44874   0.48474   0.67455   0.00000  Uiso   1.00
H693   H     0.42546   0.00477   0.69244   0.00000  Uiso   1.00
H694   H     0.47180   0.00486   0.65462   0.00000  Uiso   1.00
S695   S     0.49613   0.10895   0.85416   0.00000  Uiso   1.00
O696   O     0.44420   0.13049   0.85530   0.00000  Uiso   1.00
O697   O     0.50277   0.07187   0.89191   0.00000  Uiso   1.00
O698   O     0.54429   0.14593   0.86725   0.00000  Uiso   1.00
H699   H     0.54061   0.15477   0.89985   0.00000  Uiso   1.00
S700   S     0.46207   0.38917   0.64743   0.00000  Uiso   1.00
O701   O     0.42544   0.35062   0.65043   0.00000  Uiso   1.00
O702   O     0.43616   0.42337   0.61197   0.00000  Uiso   1.00
O703   O     0.51595   0.37131   0.62668   0.00000  Uiso   1.00
H704   H     0.53863   0.39789   0.62544   0.00000  Uiso   1.00
S705   S     0.46264   0.15938   0.53140   0.00000  Uiso   1.00
O706   O     0.49328   0.15096   0.99105   0.00000  Uiso   1.00
O707   O     0.47910   0.12521   0.57075   0.00000  Uiso   1.00
O708   O     0.39860   0.15314   0.51369   0.00000  Uiso   1.00
H709   H     0.39534   0.12325   0.50040   0.00000  Uiso   1.00
S710   S     0.53169   0.34134   0.96632   0.00000  Uiso   1.00
O711   O     0.58734   0.35095   0.98528   0.00000  Uiso   1.00
O712   O     0.51561   0.37270   0.92419   0.00000  Uiso   1.00
O713   O     0.49263   0.35038   0.50809   0.00000  Uiso   1.00
H714   H     0.50182   0.38060   0.51884   0.00000  Uiso   1.00
N715   N     0.43058   0.19629   0.62417   0.00000  Uiso   1.00
H716   H     0.39482   0.19832   0.60248   0.00000  Uiso   1.00
H717   H     0.44144   0.16297   0.62989   0.00000  Uiso   1.00
N718   N     0.57209   0.30158   0.87700   0.00000  Uiso   1.00
H719   H     0.60249   0.27893   0.87670   0.00000  Uiso   1.00
H720   H     0.58888   0.32717   0.89717   0.00000  Uiso   1.00
C721   C     0.83522   0.16364   0.75169   0.00000  Uiso   1.00
C722   C     0.83303   0.33626   0.74843   0.00000  Uiso   1.00
C723   C     0.80769   0.21414   0.55229   0.00000  Uiso   1.00
C724   C     0.85933   0.28535   0.94799   0.00000  Uiso   1.00
C725   C     0.80205   0.22057   0.60083   0.00000  Uiso   1.00
C726   C     0.86597   0.27828   0.89978   0.00000  Uiso   1.00
C727   C     0.86994   0.27343   0.60537   0.00000  Uiso   1.00
C728   C     0.79497   0.22855   0.89414   0.00000  Uiso   1.00
C729   C     0.87179   0.27220   0.55636   0.00000  Uiso   1.00
C730   C     0.79258   0.22992   0.94310   0.00000  Uiso   1.00
C731   C     0.83565   0.24685   0.52721   0.00000  Uiso   1.00
C732   C     0.83015   0.25345   0.97263   0.00000  Uiso   1.00
C733   C     0.73394   0.25167   0.73837   0.00000  Uiso   1.00
C734   C     0.93258   0.24849   0.76168   0.00000  Uiso   1.00
C735   C     0.68061   0.26208   0.73557   0.00000  Uiso   1.00
C736   C     0.98567   0.23833   0.76480   0.00000  Uiso   1.00
C737   C     0.82814   0.04244   0.79161   0.00000  Uiso   1.00
C738   C     0.81480   0.45728   0.70869   0.00000  Uiso   1.00
C739   C     0.83227   0.08840   0.79642   0.00000  Uiso   1.00
C740   C     0.81489   0.41103   0.70473   0.00000  Uiso   1.00
C741   C     0.84239   0.11546   0.75582   0.00000  Uiso   1.00
C742   C     0.83733   0.38432   0.74502   0.00000  Uiso   1.00
C743   C     0.86093   0.09582   0.71739   0.00000  Uiso   1.00
C744   C     0.86699   0.40380   0.78318   0.00000  Uiso   1.00
C745   C     0.86601   0.05033   0.71724   0.00000  Uiso   1.00
C746   C     0.87325   0.44918   0.78304   0.00000  Uiso   1.00
C747   C     0.84664   0.02363   0.75246   0.00000  Uiso   1.00
C748   C     0.84511   0.47596   0.74756   0.00000  Uiso   1.00
H749   H     0.87248   0.11572   0.68759   0.00000  Uiso   1.00
H750   H     0.88680   0.38371   0.81267   0.00000  Uiso   1.00
H751   H     0.88231   0.03581   0.68813   0.00000  Uiso   1.00
H752   H     0.89808   0.46364   0.81197   0.00000  Uiso   1.00
H753   H     0.89765   0.29338   0.62681   0.00000  Uiso   1.00
H754   H     0.76622   0.21031   0.87230   0.00000  Uiso   1.00
H755   H     0.90241   0.29064   0.54205   0.00000  Uiso   1.00
H756   H     0.76068   0.21297   0.95714   0.00000  Uiso   1.00
N757   N     0.83333   0.24999   0.62623   0.00000  Uiso   1.00
N758   N     0.83333   0.25001   0.87376   0.00000  Uiso   1.00
O759   O     0.83334   0.18454   0.78974   0.00000  Uiso   1.00
O760   O     0.83333   0.31547   0.71026   0.00000  Uiso   1.00
O761   O     0.83334   0.18453   0.71026   0.00000  Uiso   1.00
O762   O     0.83333   0.31547   0.78974   0.00000  Uiso   1.00
O763   O     0.75725   0.25000   0.78044   0.00000  Uiso   1.00
O764   O     0.90942   0.25000   0.71955   0.00000  Uiso   1.00
O765   O     0.75725   0.24999   0.70096   0.00000  Uiso   1.00
O766   O     0.90942   0.25001   0.79903   0.00000  Uiso   1.00
Zn767  Zn    0.83333   0.25001   0.80307   0.00000  Uiso   1.00
Zn768  Zn    0.83333   0.25000   0.69693   0.00000  Uiso   1.00
S769   S     0.99686   0.31659   0.71062   0.00000  Uiso   1.00
O770   O     0.99334   0.31595   0.65741   0.00000  Uiso   1.00
O771   O     0.94644   0.33353   0.72402   0.00000  Uiso   1.00
O772   O     0.71092   0.35186   0.73087   0.00000  Uiso   1.00
H773   H     0.69843   0.38175   0.71842   0.00000  Uiso   1.00
S774   S     0.66915   0.18459   0.79154   0.00000  Uiso   1.00
O775   O     0.71666   0.16557   0.77446   0.00000  Uiso   1.00
O776   O     0.67763   0.18789   0.84458   0.00000  Uiso   1.00
O777   O     0.95252   0.14970   0.77803   0.00000  Uiso   1.00
H778   H     0.96157   0.12218   0.79789   0.00000  Uiso   1.00
N779   N     0.80217   0.01572   0.82488   0.00000  Uiso   1.00
H780   H     0.77255   0.49742   0.80616   0.00000  Uiso   1.00
H781   H     0.82873   0.49384   0.84448   0.00000  Uiso   1.00
N782   N     0.78207   0.48474   0.67455   0.00000  Uiso   1.00
H783   H     0.75879   0.00477   0.69244   0.00000  Uiso   1.00
H784   H     0.80513   0.00486   0.65462   0.00000  Uiso   1.00
S785   S     0.82946   0.10895   0.85416   0.00000  Uiso   1.00
O786   O     0.77754   0.13049   0.85530   0.00000  Uiso   1.00
O787   O     0.83610   0.07187   0.89191   0.00000  Uiso   1.00
O788   O     0.87762   0.14593   0.86725   0.00000  Uiso   1.00
H789   H     0.87395   0.15477   0.89985   0.00000  Uiso   1.00
S790   S     0.79541   0.38917   0.64743   0.00000  Uiso   1.00
O791   O     0.75877   0.35062   0.65043   0.00000  Uiso   1.00
O792   O     0.76949   0.42337   0.61197   0.00000  Uiso   1.00
O793   O     0.84928   0.37131   0.62668   0.00000  Uiso   1.00
H794   H     0.87196   0.39789   0.62544   0.00000  Uiso   1.00
S795   S     0.79597   0.15938   0.53140   0.00000  Uiso   1.00
O796   O     0.82662   0.15096   0.99105   0.00000  Uiso   1.00
O797   O     0.81244   0.12521   0.57075   0.00000  Uiso   1.00
O798   O     0.73193   0.15314   0.51369   0.00000  Uiso   1.00
H799   H     0.72867   0.12325   0.50040   0.00000  Uiso   1.00
S800   S     0.86502   0.34134   0.96632   0.00000  Uiso   1.00
O801   O     0.92067   0.35095   0.98528   0.00000  Uiso   1.00
O802   O     0.84894   0.37270   0.92419   0.00000  Uiso   1.00
O803   O     0.82596   0.35038   0.50809   0.00000  Uiso   1.00
H804   H     0.83515   0.38060   0.51884   0.00000  Uiso   1.00
N805   N     0.76392   0.19629   0.62417   0.00000  Uiso   1.00
H806   H     0.72815   0.19832   0.60248   0.00000  Uiso   1.00
H807   H     0.77477   0.16297   0.62989   0.00000  Uiso   1.00
N808   N     0.90543   0.30158   0.87700   0.00000  Uiso   1.00
H809   H     0.93582   0.27893   0.87670   0.00000  Uiso   1.00
H810   H     0.92221   0.32717   0.89717   0.00000  Uiso   1.00
C811   C     0.16856   0.66364   0.75169   0.00000  Uiso   1.00
C812   C     0.16636   0.83626   0.74843   0.00000  Uiso   1.00
C813   C     0.14103   0.71414   0.55229   0.00000  Uiso   1.00
C814   C     0.19266   0.78535   0.94799   0.00000  Uiso   1.00
C815   C     0.13538   0.72057   0.60083   0.00000  Uiso   1.00
C816   C     0.19930   0.77828   0.89978   0.00000  Uiso   1.00
C817   C     0.20327   0.77343   0.60537   0.00000  Uiso   1.00
C818   C     0.12831   0.72855   0.89414   0.00000  Uiso   1.00
C819   C     0.20512   0.77220   0.55636   0.00000  Uiso   1.00
C820   C     0.12592   0.72992   0.94310   0.00000  Uiso   1.00
C821   C     0.16898   0.74685   0.52721   0.00000  Uiso   1.00
C822   C     0.16348   0.75345   0.97263   0.00000  Uiso   1.00
C823   C     0.06727   0.75167   0.73837   0.00000  Uiso   1.00
C824   C     0.26591   0.74849   0.76168   0.00000  Uiso   1.00
C825   C     0.01394   0.76208   0.73557   0.00000  Uiso   1.00
C826   C     0.31900   0.73833   0.76480   0.00000  Uiso   1.00
C827   C     0.16147   0.54244   0.79161   0.00000  Uiso   1.00
C828   C     0.14813   0.95728   0.70869   0.00000  Uiso   1.00
C829   C     0.16560   0.58840   0.79642   0.00000  Uiso   1.00
C830   C     0.14822   0.91103   0.70473   0.00000  Uiso   1.00
C831   C     0.17572   0.61546   0.75582   0.00000  Uiso   1.00
C832   C     0.17066   0.88432   0.74502   0.00000  Uiso   1.00
C833   C     0.19426   0.59582   0.71739   0.00000  Uiso   1.00
C834   C     0.20033   0.90380   0.78318   0.00000  Uiso   1.00
C835   C     0.19935   0.55033   0.71724   0.00000  Uiso   1.00
C836   C     0.20658   0.94918   0.78304   0.00000  Uiso   1.00
C837   C     0.17998   0.52363   0.75246   0.00000  Uiso   1.00
C838   C     0.17844   0.97596   0.74756   0.00000  Uiso   1.00
H839   H     0.20581   0.61572   0.68759   0.00000  Uiso   1.00
H840   H     0.22014   0.88371   0.81267   0.00000  Uiso   1.00
H841   H     0.21564   0.53581   0.68813   0.00000  Uiso   1.00
H842   H     0.23141   0.96364   0.81197   0.00000  Uiso   1.00
H843   H     0.23099   0.79338   0.62681   0.00000  Uiso   1.00
H844   H     0.09955   0.71031   0.87230   0.00000  Uiso   1.00
H845   H     0.23574   0.79064   0.54205   0.00000  Uiso   1.00
H846   H     0.09401   0.71297   0.95714   0.00000  Uiso   1.00
N847   N     0.16667   0.74999   0.62623   0.00000  Uiso   1.00
N848   N     0.16667   0.75001   0.87376   0.00000  Uiso   1.00
O849   O     0.16667   0.68454   0.78974   0.00000  Uiso   1.00
O850   O     0.16666   0.81547   0.71026   0.00000  Uiso   1.00
O851   O     0.16667   0.68453   0.71026   0.00000  Uiso   1.00
O852   O     0.16666   0.81547   0.78974   0.00000  Uiso   1.00
O853   O     0.09058   0.75000   0.78044   0.00000  Uiso   1.00
O854   O     0.24275   0.75000   0.71955   0.00000  Uiso   1.00
O855   O     0.09058   0.74999   0.70096   0.00000  Uiso   1.00
O856   O     0.24275   0.75001   0.79903   0.00000  Uiso   1.00
Zn857  Zn    0.16667   0.75001   0.80307   0.00000  Uiso   1.00
Zn858  Zn    0.16667   0.75000   0.69693   0.00000  Uiso   1.00
S859   S     0.33019   0.81659   0.71062   0.00000  Uiso   1.00
O860   O     0.32668   0.81595   0.65741   0.00000  Uiso   1.00
O861   O     0.27977   0.83353   0.72402   0.00000  Uiso   1.00
O862   O     0.04425   0.85186   0.73087   0.00000  Uiso   1.00
H863   H     0.03176   0.88175   0.71842   0.00000  Uiso   1.00
S864   S     0.00248   0.68459   0.79154   0.00000  Uiso   1.00
O865   O     0.04999   0.66557   0.77446   0.00000  Uiso   1.00
O866   O     0.01096   0.68789   0.84458   0.00000  Uiso   1.00
O867   O     0.28585   0.64970   0.77803   0.00000  Uiso   1.00
H868   H     0.29490   0.62218   0.79789   0.00000  Uiso   1.00
N869   N     0.13551   0.51572   0.82488   0.00000  Uiso   1.00
H870   H     0.10588   0.99742   0.80616   0.00000  Uiso   1.00
H871   H     0.16206   0.99384   0.84448   0.00000  Uiso   1.00
N872   N     0.11540   0.98474   0.67455   0.00000  Uiso   1.00
H873   H     0.09213   0.50477   0.69244   0.00000  Uiso   1.00
H874   H     0.13847   0.50486   0.65462   0.00000  Uiso   1.00
S875   S     0.16280   0.60895   0.85416   0.00000  Uiso   1.00
O876   O     0.11087   0.63049   0.85530   0.00000  Uiso   1.00
O877   O     0.16943   0.57187   0.89191   0.00000  Uiso   1.00
O878   O     0.21096   0.64593   0.86725   0.00000  Uiso   1.00
H879   H     0.20728   0.65477   0.89985   0.00000  Uiso   1.00
S880   S     0.12874   0.88917   0.64743   0.00000  Uiso   1.00
O881   O     0.09211   0.85062   0.65043   0.00000  Uiso   1.00
O882   O     0.10283   0.92337   0.61197   0.00000  Uiso   1.00
O883   O     0.18262   0.87131   0.62668   0.00000  Uiso   1.00
H884   H     0.20529   0.89789   0.62544   0.00000  Uiso   1.00
S885   S     0.12931   0.65938   0.53140   0.00000  Uiso   1.00
O886   O     0.15995   0.65096   0.99105   0.00000  Uiso   1.00
O887   O     0.14577   0.62521   0.57075   0.00000  Uiso   1.00
O888   O     0.06526   0.65314   0.51369   0.00000  Uiso   1.00
H889   H     0.06201   0.62325   0.50040   0.00000  Uiso   1.00
S890   S     0.19835   0.84134   0.96632   0.00000  Uiso   1.00
O891   O     0.25401   0.85095   0.98528   0.00000  Uiso   1.00
O892   O     0.18227   0.87270   0.92419   0.00000  Uiso   1.00
O893   O     0.15930   0.85038   0.50809   0.00000  Uiso   1.00
H894   H     0.16848   0.88060   0.51884   0.00000  Uiso   1.00
N895   N     0.09725   0.69629   0.62417   0.00000  Uiso   1.00
H896   H     0.06148   0.69832   0.60248   0.00000  Uiso   1.00
H897   H     0.10811   0.66297   0.62989   0.00000  Uiso   1.00
N898   N     0.23876   0.80158   0.87700   0.00000  Uiso   1.00
H899   H     0.26915   0.77893   0.87670   0.00000  Uiso   1.00
H900   H     0.25555   0.82717   0.89717   0.00000  Uiso   1.00
C901   C     0.50189   0.66364   0.75169   0.00000  Uiso   1.00
C902   C     0.49969   0.83626   0.74843   0.00000  Uiso   1.00
C903   C     0.47436   0.71414   0.55229   0.00000  Uiso   1.00
C904   C     0.52599   0.78535   0.94799   0.00000  Uiso   1.00
C905   C     0.46872   0.72057   0.60083   0.00000  Uiso   1.00
C906   C     0.53263   0.77828   0.89978   0.00000  Uiso   1.00
C907   C     0.53661   0.77343   0.60537   0.00000  Uiso   1.00
C908   C     0.46164   0.72855   0.89414   0.00000  Uiso   1.00
C909   C     0.53845   0.77220   0.55636   0.00000  Uiso   1.00
C910   C     0.45925   0.72992   0.94310   0.00000  Uiso   1.00
C911   C     0.50231   0.74685   0.52721   0.00000  Uiso   1.00
C912   C     0.49681   0.75345   0.97263   0.00000  Uiso   1.00
C913   C     0.40061   0.75167   0.73837   0.00000  Uiso   1.00
C914   C     0.59925   0.74849   0.76168   0.00000  Uiso   1.00
C915   C     0.34727   0.76208   0.73557   0.00000  Uiso   1.00
C916   C     0.65234   0.73833   0.76480   0.00000  Uiso   1.00
C917   C     0.49481   0.54244   0.79161   0.00000  Uiso   1.00
C918   C     0.48146   0.95728   0.70869   0.00000  Uiso   1.00
C919   C     0.49894   0.58840   0.79642   0.00000  Uiso   1.00
C920   C     0.48156   0.91103   0.70473   0.00000  Uiso   1.00
C921   C     0.50906   0.61546   0.75582   0.00000  Uiso   1.00
C922   C     0.50399   0.88432   0.74502   0.00000  Uiso   1.00
C923   C     0.52759   0.59582   0.71739   0.00000  Uiso   1.00
C924   C     0.53366   0.90380   0.78318   0.00000  Uiso   1.00
C925   C     0.53268   0.55033   0.71724   0.00000  Uiso   1.00
C926   C     0.53991   0.94918   0.78304   0.00000  Uiso   1.00
C927   C     0.51331   0.52363   0.75246   0.00000  Uiso   1.00
C928   C     0.51178   0.97596   0.74756   0.00000  Uiso   1.00
H929   H     0.53915   0.61572   0.68759   0.00000  Uiso   1.00
H930   H     0.55347   0.88371   0.81267   0.00000  Uiso   1.00
H931   H     0.54897   0.53581   0.68813   0.00000  Uiso   1.00
H932   H     0.56475   0.96364   0.81197   0.00000  Uiso   1.00
H933   H     0.56432   0.79338   0.62681   0.00000  Uiso   1.00
H934   H     0.43288   0.71031   0.87230   0.00000  Uiso   1.00
H935   H     0.56908   0.79064   0.54205   0.00000  Uiso   1.00
H936   H     0.42735   0.71297   0.95714   0.00000  Uiso   1.00
N937   N     0.50000   0.74999   0.62623   0.00000  Uiso   1.00
N938   N     0.50000   0.75001   0.87376   0.00000  Uiso   1.00
O939   O     0.50000   0.68454   0.78974   0.00000  Uiso   1.00
O940   O     0.50000   0.81547   0.71026   0.00000  Uiso   1.00
O941   O     0.50000   0.68453   0.71026   0.00000  Uiso   1.00
O942   O     0.50000   0.81547   0.78974   0.00000  Uiso   1.00
O943   O     0.42392   0.75000   0.78044   0.00000  Uiso   1.00
O944   O     0.57608   0.75000   0.71955   0.00000  Uiso   1.00
O945   O     0.42392   0.74999   0.70096   0.00000  Uiso   1.00
O946   O     0.57608   0.75001   0.79903   0.00000  Uiso   1.00
Zn947  Zn    0.50000   0.75001   0.80307   0.00000  Uiso   1.00
Zn948  Zn    0.50000   0.75000   0.69693   0.00000  Uiso   1.00
S949   S     0.66353   0.81659   0.71062   0.00000  Uiso   1.00
O950   O     0.66001   0.81595   0.65741   0.00000  Uiso   1.00
O951   O     0.61310   0.83353   0.72402   0.00000  Uiso   1.00
O952   O     0.37759   0.85186   0.73087   0.00000  Uiso   1.00
H953   H     0.36509   0.88175   0.71842   0.00000  Uiso   1.00
S954   S     0.33582   0.68459   0.79154   0.00000  Uiso   1.00
O955   O     0.38333   0.66557   0.77446   0.00000  Uiso   1.00
O956   O     0.34430   0.68789   0.84458   0.00000  Uiso   1.00
O957   O     0.61919   0.64970   0.77803   0.00000  Uiso   1.00
H958   H     0.62824   0.62218   0.79789   0.00000  Uiso   1.00
N959   N     0.46884   0.51572   0.82488   0.00000  Uiso   1.00
H960   H     0.43922   0.99742   0.80616   0.00000  Uiso   1.00
H961   H     0.49540   0.99384   0.84448   0.00000  Uiso   1.00
N962   N     0.44874   0.98474   0.67455   0.00000  Uiso   1.00
H963   H     0.42546   0.50477   0.69244   0.00000  Uiso   1.00
H964   H     0.47180   0.50486   0.65462   0.00000  Uiso   1.00
S965   S     0.49613   0.60895   0.85416   0.00000  Uiso   1.00
O966   O     0.44420   0.63049   0.85530   0.00000  Uiso   1.00
O967   O     0.50277   0.57187   0.89191   0.00000  Uiso   1.00
O968   O     0.54429   0.64593   0.86725   0.00000  Uiso   1.00
H969   H     0.54061   0.65477   0.89985   0.00000  Uiso   1.00
S970   S     0.46207   0.88917   0.64743   0.00000  Uiso   1.00
O971   O     0.42544   0.85062   0.65043   0.00000  Uiso   1.00
O972   O     0.43616   0.92337   0.61197   0.00000  Uiso   1.00
O973   O     0.51595   0.87131   0.62668   0.00000  Uiso   1.00
H974   H     0.53863   0.89789   0.62544   0.00000  Uiso   1.00
S975   S     0.46264   0.65938   0.53140   0.00000  Uiso   1.00
O976   O     0.49328   0.65096   0.99105   0.00000  Uiso   1.00
O977   O     0.47910   0.62521   0.57075   0.00000  Uiso   1.00
O978   O     0.39860   0.65314   0.51369   0.00000  Uiso   1.00
H979   H     0.39534   0.62325   0.50040   0.00000  Uiso   1.00
S980   S     0.53169   0.84134   0.96632   0.00000  Uiso   1.00
O981   O     0.58734   0.85095   0.98528   0.00000  Uiso   1.00
O982   O     0.51561   0.87270   0.92419   0.00000  Uiso   1.00
O983   O     0.49263   0.85038   0.50809   0.00000  Uiso   1.00
H984   H     0.50182   0.88060   0.51884   0.00000  Uiso   1.00
N985   N     0.43058   0.69629   0.62417   0.00000  Uiso   1.00
H986   H     0.39482   0.69832   0.60248   0.00000  Uiso   1.00
H987   H     0.44144   0.66297   0.62989   0.00000  Uiso   1.00
N988   N     0.57209   0.80158   0.87700   0.00000  Uiso   1.00
H989   H     0.60249   0.77893   0.87670   0.00000  Uiso   1.00
H990   H     0.58888   0.82717   0.89717   0.00000  Uiso   1.00
C991   C     0.83522   0.66364   0.75169   0.00000  Uiso   1.00
C992   C     0.83303   0.83626   0.74843   0.00000  Uiso   1.00
C993   C     0.80769   0.71414   0.55229   0.00000  Uiso   1.00
C994   C     0.85933   0.78535   0.94799   0.00000  Uiso   1.00
C995   C     0.80205   0.72057   0.60083   0.00000  Uiso   1.00
C996   C     0.86597   0.77828   0.89978   0.00000  Uiso   1.00
C997   C     0.86994   0.77343   0.60537   0.00000  Uiso   1.00
C998   C     0.79497   0.72855   0.89414   0.00000  Uiso   1.00
C999   C     0.87179   0.77220   0.55636   0.00000  Uiso   1.00
C1000  C     0.79258   0.72992   0.94310   0.00000  Uiso   1.00
C1001  C     0.83565   0.74685   0.52721   0.00000  Uiso   1.00
C1002  C     0.83015   0.75345   0.97263   0.00000  Uiso   1.00
C1003  C     0.73394   0.75167   0.73837   0.00000  Uiso   1.00
C1004  C     0.93258   0.74849   0.76168   0.00000  Uiso   1.00
C1005  C     0.68061   0.76208   0.73557   0.00000  Uiso   1.00
C1006  C     0.98567   0.73833   0.76480   0.00000  Uiso   1.00
C1007  C     0.82814   0.54244   0.79161   0.00000  Uiso   1.00
C1008  C     0.81480   0.95728   0.70869   0.00000  Uiso   1.00
C1009  C     0.83227   0.58840   0.79642   0.00000  Uiso   1.00
C1010  C     0.81489   0.91103   0.70473   0.00000  Uiso   1.00
C1011  C     0.84239   0.61546   0.75582   0.00000  Uiso   1.00
C1012  C     0.83733   0.88432   0.74502   0.00000  Uiso   1.00
C1013  C     0.86093   0.59582   0.71739   0.00000  Uiso   1.00
C1014  C     0.86699   0.90380   0.78318   0.00000  Uiso   1.00
C1015  C     0.86601   0.55033   0.71724   0.00000  Uiso   1.00
C1016  C     0.87325   0.94918   0.78304   0.00000  Uiso   1.00
C1017  C     0.84664   0.52363   0.75246   0.00000  Uiso   1.00
C1018  C     0.84511   0.97596   0.74756   0.00000  Uiso   1.00
H1019  H     0.87248   0.61572   0.68759   0.00000  Uiso   1.00
H1020  H     0.88680   0.88371   0.81267   0.00000  Uiso   1.00
H1021  H     0.88231   0.53581   0.68813   0.00000  Uiso   1.00
H1022  H     0.89808   0.96364   0.81197   0.00000  Uiso   1.00
H1023  H     0.89765   0.79338   0.62681   0.00000  Uiso   1.00
H1024  H     0.76622   0.71031   0.87230   0.00000  Uiso   1.00
H1025  H     0.90241   0.79064   0.54205   0.00000  Uiso   1.00
H1026  H     0.76068   0.71297   0.95714   0.00000  Uiso   1.00
N1027  N     0.83333   0.74999   0.62623   0.00000  Uiso   1.00
N1028  N     0.83333   0.75001   0.87376   0.00000  Uiso   1.00
O1029  O     0.83334   0.68454   0.78974   0.00000  Uiso   1.00
O1030  O     0.83333   0.81547   0.71026   0.00000  Uiso   1.00
O1031  O     0.83334   0.68453   0.71026   0.00000  Uiso   1.00
O1032  O     0.83333   0.81547   0.78974   0.00000  Uiso   1.00
O1033  O     0.75725   0.75000   0.78044   0.00000  Uiso   1.00
O1034  O     0.90942   0.75000   0.71955   0.00000  Uiso   1.00
O1035  O     0.75725   0.74999   0.70096   0.00000  Uiso   1.00
O1036  O     0.90942   0.75001   0.79903   0.00000  Uiso   1.00
Zn1037 Zn    0.83333   0.75001   0.80307   0.00000  Uiso   1.00
Zn1038 Zn    0.83333   0.75000   0.69693   0.00000  Uiso   1.00
S1039  S     0.99686   0.81659   0.71062   0.00000  Uiso   1.00
O1040  O     0.99334   0.81595   0.65741   0.00000  Uiso   1.00
O1041  O     0.94644   0.83353   0.72402   0.00000  Uiso   1.00
O1042  O     0.71092   0.85186   0.73087   0.00000  Uiso   1.00
H1043  H     0.69843   0.88175   0.71842   0.00000  Uiso   1.00
S1044  S     0.66915   0.68459   0.79154   0.00000  Uiso   1.00
O1045  O     0.71666   0.66557   0.77446   0.00000  Uiso   1.00
O1046  O     0.67763   0.68789   0.84458   0.00000  Uiso   1.00
O1047  O     0.95252   0.64970   0.77803   0.00000  Uiso   1.00
H1048  H     0.96157   0.62218   0.79789   0.00000  Uiso   1.00
N1049  N     0.80217   0.51572   0.82488   0.00000  Uiso   1.00
H1050  H     0.77255   0.99742   0.80616   0.00000  Uiso   1.00
H1051  H     0.82873   0.99384   0.84448   0.00000  Uiso   1.00
N1052  N     0.78207   0.98474   0.67455   0.00000  Uiso   1.00
H1053  H     0.75879   0.50477   0.69244   0.00000  Uiso   1.00
H1054  H     0.80513   0.50486   0.65462   0.00000  Uiso   1.00
S1055  S     0.82946   0.60895   0.85416   0.00000  Uiso   1.00
O1056  O     0.77754   0.63049   0.85530   0.00000  Uiso   1.00
O1057  O     0.83610   0.57187   0.89191   0.00000  Uiso   1.00
O1058  O     0.87762   0.64593   0.86725   0.00000  Uiso   1.00
H1059  H     0.87395   0.65477   0.89985   0.00000  Uiso   1.00
S1060  S     0.79541   0.88917   0.64743   0.00000  Uiso   1.00
O1061  O     0.75877   0.85062   0.65043   0.00000  Uiso   1.00
O1062  O     0.76949   0.92337   0.61197   0.00000  Uiso   1.00
O1063  O     0.84928   0.87131   0.62668   0.00000  Uiso   1.00
H1064  H     0.87196   0.89789   0.62544   0.00000  Uiso   1.00
S1065  S     0.79597   0.65938   0.53140   0.00000  Uiso   1.00
O1066  O     0.82662   0.65096   0.99105   0.00000  Uiso   1.00
O1067  O     0.81244   0.62521   0.57075   0.00000  Uiso   1.00
O1068  O     0.73193   0.65314   0.51369   0.00000  Uiso   1.00
H1069  H     0.72867   0.62325   0.50040   0.00000  Uiso   1.00
S1070  S     0.86502   0.84134   0.96632   0.00000  Uiso   1.00
O1071  O     0.92067   0.85095   0.98528   0.00000  Uiso   1.00
O1072  O     0.84894   0.87270   0.92419   0.00000  Uiso   1.00
O1073  O     0.82596   0.85038   0.50809   0.00000  Uiso   1.00
H1074  H     0.83515   0.88060   0.51884   0.00000  Uiso   1.00
N1075  N     0.76392   0.69629   0.62417   0.00000  Uiso   1.00
H1076  H     0.72815   0.69832   0.60248   0.00000  Uiso   1.00
H1077  H     0.77477   0.66297   0.62989   0.00000  Uiso   1.00
N1078  N     0.90543   0.80158   0.87700   0.00000  Uiso   1.00
H1079  H     0.93582   0.77893   0.87670   0.00000  Uiso   1.00
H1080  H     0.92221   0.82717   0.89717   0.00000  Uiso   1.00
loop_
_geom_bond_atom_site_label_1
_geom_bond_atom_site_label_2
_geom_bond_distance
_geom_bond_site_symmetry_2
_ccdc_geom_bond_type
C1     C21     1.459   .     S
C1     O41     1.301   .     A
C1     O39     1.281   .     A
C2     C22     1.448   .     S
C2     O42     1.300   .     A
C2     O40     1.277   .     A
C3     S75     1.788   .     S
C3     C5      1.425   .     A
C3     C11     1.431   .     A
C4     S80     1.786   .     S
C4     C12     1.427   .     A
C4     C6      1.426   .     A
C5     N37     1.365   .     A
C5     N85     1.433   .     S
C6     N88     1.436   .     S
C6     N38     1.370   .     A
C7     H33     1.079   .     S
C7     N37     1.355   .     A
C7     C9      1.400   .     A
C8     N38     1.355   .     A
C8     H34     1.073   .     S
C8     C10     1.400   .     A
C9     C11     1.413   .     A
C9     H35     1.074   .     S
C10    C12     1.411   .     A
C10    H36     1.076   .     S
C11    C552    1.541   1_554 S
C12    C551    1.541   .     S
C13    C15     1.408   .     S
C13    O43     1.267   .     A
C13    O45     1.287   .     A
C14    O46     1.284   .     A
C14    C16     1.400   .     S
C14    O44     1.267   .     A
C15    C196    1.349   1_455 S
C15    S229    1.789   1_455 S
C16    C105    1.349   .     S
C16    S144    1.784   .     S
C17    C27     1.407   .     A
C17    N59     1.437   .     S
C17    C19     1.398   .     A
C18    C20     1.401   .     A
C18    C28     1.409   .     A
C18    N62     1.436   .     S
C19    C21     1.428   .     A
C19    S65     1.788   .     S
C20    S70     1.795   .     S
C20    C22     1.428   .     A
C21    C23     1.401   .     A
C22    C24     1.397   .     A
C23    H29     1.084   .     S
C23    C25     1.375   .     A
C24    C26     1.373   .     A
C24    H30     1.084   .     S
C25    H31     1.084   .     S
C25    C27     1.392   .     A
C26    H32     1.084   .     S
C26    C28     1.392   .     A
C27    C298    1.447   1_545 S
C28    C297    1.447   .     S
N37    Zn48    2.006   .     S
N38    Zn47    2.006   .     S
O39    Zn47    2.023   .     S
O40    Zn48    2.023   .     S
O41    Zn48    1.986   .     S
O42    Zn47    1.986   .     S
O43    Zn47    1.992   .     S
O44    Zn48    1.992   .     S
O45    Zn48    1.985   .     S
O46    Zn47    1.985   .     S
S49    O51     1.502   .     D
S49    O50     1.502   .     D
S49    C105    1.789   .     S
S49    O142    1.681   .     S
O52    H53     0.991   .     S
O52    S229    1.681   1_455 S
S54    O55     1.502   .     D
S54    O56     1.501   .     D
S54    C196    1.784   1_455 S
S54    O237    1.678   1_455 S
O57    H58     0.991   .     S
O57    S144    1.678   .     S
N59    H330    1.046   1_545 S
N59    H331    1.043   1_545 S
H60    N329    1.046   .     S
H61    N329    1.043   .     S
N62    H333    1.046   .     S
N62    H334    1.043   .     S
H63    N332    1.046   1_545 S
H64    N332    1.043   1_545 S
S65    O68     1.683   .     S
S65    O67     1.503   .     D
S65    O66     1.499   .     D
O68    H69     0.990   .     S
S70    O71     1.499   .     D
S70    O73     1.680   .     S
S70    O72     1.503   .     D
O73    H74     0.990   .     S
S75    O77     1.503   .     D
S75    O78     1.682   .     S
S75    O616    1.503   1_554 S
O76    S615    1.503   .     S
O78    H79     0.991   .     S
S80    O82     1.504   .     D
S80    O81     1.504   .     D
S80    O623    1.683   .     S
O83    H84     0.991   .     S
O83    S620    1.683   1_554 S
N85    H86     1.045   .     S
N85    H87     1.042   .     S
N88    H90     1.041   .     S
N88    H89     1.044   .     S
C91    C111    1.459   .     S
C91    O131    1.301   .     A
C91    O129    1.281   .     A
C92    C112    1.448   .     S
C92    O132    1.300   .     A
C92    O130    1.277   .     A
C93    S165    1.788   .     S
C93    C95     1.425   .     A
C93    C101    1.431   .     A
C94    S170    1.786   .     S
C94    C102    1.427   .     A
C94    C96     1.426   .     A
C95    N127    1.365   .     A
C95    N175    1.433   .     S
C96    N178    1.436   .     S
C96    N128    1.370   .     A
C97    H123    1.079   .     S
C97    N127    1.355   .     A
C97    C99     1.400   .     A
C98    N128    1.355   .     A
C98    H124    1.073   .     S
C98    C100    1.400   .     A
C99    C101    1.413   .     A
C99    H125    1.074   .     S
C100   C102    1.411   .     A
C100   H126    1.076   .     S
C101   C642    1.541   1_554 S
C102   C641    1.541   .     S
C103   C105    1.408   .     S
C103   O133    1.267   .     A
C103   O135    1.287   .     A
C104   O136    1.284   .     A
C104   C106    1.400   .     S
C104   O134    1.267   .     A
C106   C195    1.349   .     S
C106   S234    1.784   .     S
C107   C117    1.407   .     A
C107   N149    1.437   .     S
C107   C109    1.398   .     A
C108   C110    1.401   .     A
C108   C118    1.409   .     A
C108   N152    1.436   .     S
C109   C111    1.428   .     A
C109   S155    1.788   .     S
C110   S160    1.795   .     S
C110   C112    1.428   .     A
C111   C113    1.401   .     A
C112   C114    1.397   .     A
C113   H119    1.084   .     S
C113   C115    1.375   .     A
C114   C116    1.373   .     A
C114   H120    1.084   .     S
C115   H121    1.084   .     S
C115   C117    1.392   .     A
C116   H122    1.084   .     S
C116   C118    1.392   .     A
C117   C388    1.447   1_545 S
C118   C387    1.447   .     S
N127   Zn138   2.006   .     S
N128   Zn137   2.006   .     S
O129   Zn137   2.023   .     S
O130   Zn138   2.023   .     S
O131   Zn138   1.986   .     S
O132   Zn137   1.986   .     S
O133   Zn137   1.992   .     S
O134   Zn138   1.992   .     S
O135   Zn138   1.985   .     S
O136   Zn137   1.985   .     S
S139   O141    1.502   .     D
S139   O140    1.502   .     D
S139   C195    1.789   .     S
S139   O232    1.681   .     S
O142   H143    0.991   .     S
S144   O145    1.502   .     D
S144   O146    1.501   .     D
O147   H148    0.991   .     S
O147   S234    1.678   .     S
N149   H420    1.046   1_545 S
N149   H421    1.043   1_545 S
H150   N419    1.046   .     S
H151   N419    1.043   .     S
N152   H423    1.046   .     S
N152   H424    1.043   .     S
H153   N422    1.046   1_545 S
H154   N422    1.043   1_545 S
S155   O158    1.683   .     S
S155   O157    1.503   .     D
S155   O156    1.499   .     D
O158   H159    0.990   .     S
S160   O161    1.499   .     D
S160   O163    1.680   .     S
S160   O162    1.503   .     D
O163   H164    0.990   .     S
S165   O167    1.503   .     D
S165   O168    1.682   .     S
S165   O706    1.503   1_554 S
O166   S705    1.503   .     S
O168   H169    0.991   .     S
S170   O172    1.504   .     D
S170   O171    1.504   .     D
S170   O713    1.683   .     S
O173   H174    0.991   .     S
O173   S710    1.683   1_554 S
N175   H176    1.045   .     S
N175   H177    1.042   .     S
N178   H180    1.041   .     S
N178   H179    1.044   .     S
C181   C201    1.459   .     S
C181   O221    1.301   .     A
C181   O219    1.281   .     A
C182   C202    1.448   .     S
C182   O222    1.300   .     A
C182   O220    1.277   .     A
C183   S255    1.788   .     S
C183   C185    1.425   .     A
C183   C191    1.431   .     A
C184   S260    1.786   .     S
C184   C192    1.427   .     A
C184   C186    1.426   .     A
C185   N217    1.365   .     A
C185   N265    1.433   .     S
C186   N268    1.436   .     S
C186   N218    1.370   .     A
C187   H213    1.079   .     S
C187   N217    1.355   .     A
C187   C189    1.400   .     A
C188   N218    1.355   .     A
C188   H214    1.073   .     S
C188   C190    1.400   .     A
C189   C191    1.413   .     A
C189   H215    1.074   .     S
C190   C192    1.411   .     A
C190   H216    1.076   .     S
C191   C732    1.541   1_554 S
C192   C731    1.541   .     S
C193   C195    1.408   .     S
C193   O223    1.267   .     A
C193   O225    1.287   .     A
C194   O226    1.284   .     A
C194   C196    1.400   .     S
C194   O224    1.267   .     A
C196   C15     1.349   1_655 S
C196   S54     1.784   1_655 S
C197   C207    1.407   .     A
C197   N239    1.437   .     S
C197   C199    1.398   .     A
C198   C200    1.401   .     A
C198   C208    1.409   .     A
C198   N242    1.436   .     S
C199   C201    1.428   .     A
C199   S245    1.788   .     S
C200   S250    1.795   .     S
C200   C202    1.428   .     A
C201   C203    1.401   .     A
C202   C204    1.397   .     A
C203   H209    1.084   .     S
C203   C205    1.375   .     A
C204   C206    1.373   .     A
C204   H210    1.084   .     S
C205   H211    1.084   .     S
C205   C207    1.392   .     A
C206   H212    1.084   .     S
C206   C208    1.392   .     A
C207   C478    1.447   1_545 S
C208   C477    1.447   .     S
N217   Zn228   2.006   .     S
N218   Zn227   2.006   .     S
O219   Zn227   2.023   .     S
O220   Zn228   2.023   .     S
O221   Zn228   1.986   .     S
O222   Zn227   1.986   .     S
O223   Zn227   1.992   .     S
O224   Zn228   1.992   .     S
O225   Zn228   1.985   .     S
O226   Zn227   1.985   .     S
S229   O231    1.502   .     D
S229   O230    1.502   .     D
S229   C15     1.789   1_655 S
S229   O52     1.681   1_655 S
O232   H233    0.991   .     S
S234   O235    1.502   .     D
S234   O236    1.501   .     D
O237   H238    0.991   .     S
O237   S54     1.678   1_655 S
N239   H510    1.046   1_545 S
N239   H511    1.043   1_545 S
H240   N509    1.046   .     S
H241   N509    1.043   .     S
N242   H513    1.046   .     S
N242   H514    1.043   .     S
H243   N512    1.046   1_545 S
H244   N512    1.043   1_545 S
S245   O248    1.683   .     S
S245   O247    1.503   .     D
S245   O246    1.499   .     D
O248   H249    0.990   .     S
S250   O251    1.499   .     D
S250   O253    1.680   .     S
S250   O252    1.503   .     D
O253   H254    0.990   .     S
S255   O257    1.503   .     D
S255   O258    1.682   .     S
S255   O796    1.503   1_554 S
O256   S795    1.503   .     S
O258   H259    0.991   .     S
S260   O262    1.504   .     D
S260   O261    1.504   .     D
S260   O803    1.683   .     S
O263   H264    0.991   .     S
O263   S800    1.683   1_554 S
N265   H266    1.045   .     S
N265   H267    1.042   .     S
N268   H270    1.041   .     S
N268   H269    1.044   .     S
C271   C291    1.459   .     S
C271   O311    1.301   .     A
C271   O309    1.281   .     A
C272   C292    1.448   .     S
C272   O312    1.300   .     A
C272   O310    1.277   .     A
C273   S345    1.788   .     S
C273   C275    1.425   .     A
C273   C281    1.431   .     A
C274   S350    1.786   .     S
C274   C282    1.427   .     A
C274   C276    1.426   .     A
C275   N307    1.365   .     A
C275   N355    1.433   .     S
C276   N358    1.436   .     S
C276   N308    1.370   .     A
C277   H303    1.079   .     S
C277   N307    1.355   .     A
C277   C279    1.400   .     A
C278   N308    1.355   .     A
C278   H304    1.073   .     S
C278   C280    1.400   .     A
C279   C281    1.413   .     A
C279   H305    1.074   .     S
C280   C282    1.411   .     A
C280   H306    1.076   .     S
C281   C822    1.541   1_554 S
C282   C821    1.541   .     S
C283   C285    1.408   .     S
C283   O313    1.267   .     A
C283   O315    1.287   .     A
C284   O316    1.284   .     A
C284   C286    1.400   .     S
C284   O314    1.267   .     A
C285   C466    1.349   1_455 S
C285   S499    1.789   1_455 S
C286   C375    1.349   .     S
C286   S414    1.784   .     S
C287   C297    1.407   .     A
C287   N329    1.437   .     S
C287   C289    1.398   .     A
C288   C290    1.401   .     A
C288   C298    1.409   .     A
C288   N332    1.436   .     S
C289   C291    1.428   .     A
C289   S335    1.788   .     S
C290   S340    1.795   .     S
C290   C292    1.428   .     A
C291   C293    1.401   .     A
C292   C294    1.397   .     A
C293   H299    1.084   .     S
C293   C295    1.375   .     A
C294   C296    1.373   .     A
C294   H300    1.084   .     S
C295   H301    1.084   .     S
C295   C297    1.392   .     A
C296   H302    1.084   .     S
C296   C298    1.392   .     A
C298   C27     1.447   1_565 S
N307   Zn318   2.006   .     S
N308   Zn317   2.006   .     S
O309   Zn317   2.023   .     S
O310   Zn318   2.023   .     S
O311   Zn318   1.986   .     S
O312   Zn317   1.986   .     S
O313   Zn317   1.992   .     S
O314   Zn318   1.992   .     S
O315   Zn318   1.985   .     S
O316   Zn317   1.985   .     S
S319   O321    1.502   .     D
S319   O320    1.502   .     D
S319   C375    1.789   .     S
S319   O412    1.681   .     S
O322   H323    0.991   .     S
O322   S499    1.681   1_455 S
S324   O325    1.502   .     D
S324   O326    1.501   .     D
S324   C466    1.784   1_455 S
S324   O507    1.678   1_455 S
O327   H328    0.991   .     S
O327   S414    1.678   .     S
H330   N59     1.046   1_565 S
H331   N59     1.043   1_565 S
N332   H63     1.046   1_565 S
N332   H64     1.043   1_565 S
S335   O338    1.683   .     S
S335   O337    1.503   .     D
S335   O336    1.499   .     D
O338   H339    0.990   .     S
S340   O341    1.499   .     D
S340   O343    1.680   .     S
S340   O342    1.503   .     D
O343   H344    0.990   .     S
S345   O347    1.503   .     D
S345   O348    1.682   .     S
S345   O886    1.503   1_554 S
O346   S885    1.503   .     S
O348   H349    0.991   .     S
S350   O352    1.504   .     D
S350   O351    1.504   .     D
S350   O893    1.683   .     S
O353   H354    0.991   .     S
O353   S890    1.683   1_554 S
N355   H356    1.045   .     S
N355   H357    1.042   .     S
N358   H360    1.041   .     S
N358   H359    1.044   .     S
C361   C381    1.459   .     S
C361   O401    1.301   .     A
C361   O399    1.281   .     A
C362   C382    1.448   .     S
C362   O402    1.300   .     A
C362   O400    1.277   .     A
C363   S435    1.788   .     S
C363   C365    1.425   .     A
C363   C371    1.431   .     A
C364   S440    1.786   .     S
C364   C372    1.427   .     A
C364   C366    1.426   .     A
C365   N397    1.365   .     A
C365   N445    1.433   .     S
C366   N448    1.436   .     S
C366   N398    1.370   .     A
C367   H393    1.079   .     S
C367   N397    1.355   .     A
C367   C369    1.400   .     A
C368   N398    1.355   .     A
C368   H394    1.073   .     S
C368   C370    1.400   .     A
C369   C371    1.413   .     A
C369   H395    1.074   .     S
C370   C372    1.411   .     A
C370   H396    1.076   .     S
C371   C912    1.541   1_554 S
C372   C911    1.541   .     S
C373   C375    1.408   .     S
C373   O403    1.267   .     A
C373   O405    1.287   .     A
C374   O406    1.284   .     A
C374   C376    1.400   .     S
C374   O404    1.267   .     A
C376   C465    1.349   .     S
C376   S504    1.784   .     S
C377   C387    1.407   .     A
C377   N419    1.437   .     S
C377   C379    1.398   .     A
C378   C380    1.401   .     A
C378   C388    1.409   .     A
C378   N422    1.436   .     S
C379   C381    1.428   .     A
C379   S425    1.788   .     S
C380   S430    1.795   .     S
C380   C382    1.428   .     A
C381   C383    1.401   .     A
C382   C384    1.397   .     A
C383   H389    1.084   .     S
C383   C385    1.375   .     A
C384   C386    1.373   .     A
C384   H390    1.084   .     S
C385   H391    1.084   .     S
C385   C387    1.392   .     A
C386   H392    1.084   .     S
C386   C388    1.392   .     A
C388   C117    1.447   1_565 S
N397   Zn408   2.006   .     S
N398   Zn407   2.006   .     S
O399   Zn407   2.023   .     S
O400   Zn408   2.023   .     S
O401   Zn408   1.986   .     S
O402   Zn407   1.986   .     S
O403   Zn407   1.992   .     S
O404   Zn408   1.992   .     S
O405   Zn408   1.985   .     S
O406   Zn407   1.985   .     S
S409   O411    1.502   .     D
S409   O410    1.502   .     D
S409   C465    1.789   .     S
S409   O502    1.681   .     S
O412   H413    0.991   .     S
S414   O415    1.502   .     D
S414   O416    1.501   .     D
O417   H418    0.991   .     S
O417   S504    1.678   .     S
H420   N149    1.046   1_565 S
H421   N149    1.043   1_565 S
N422   H153    1.046   1_565 S
N422   H154    1.043   1_565 S
S425   O428    1.683   .     S
S425   O427    1.503   .     D
S425   O426    1.499   .     D
O428   H429    0.990   .     S
S430   O431    1.499   .     D
S430   O433    1.680   .     S
S430   O432    1.503   .     D
O433   H434    0.990   .     S
S435   O437    1.503   .     D
S435   O438    1.682   .     S
S435   O976    1.503   1_554 S
O436   S975    1.503   .     S
O438   H439    0.991   .     S
S440   O442    1.504   .     D
S440   O441    1.504   .     D
S440   O983    1.683   .     S
O443   H444    0.991   .     S
O443   S980    1.683   1_554 S
N445   H446    1.045   .     S
N445   H447    1.042   .     S
N448   H450    1.041   .     S
N448   H449    1.044   .     S
C451   C471    1.459   .     S
C451   O491    1.301   .     A
C451   O489    1.281   .     A
C452   C472    1.448   .     S
C452   O492    1.300   .     A
C452   O490    1.277   .     A
C453   S525    1.788   .     S
C453   C455    1.425   .     A
C453   C461    1.431   .     A
C454   S530    1.786   .     S
C454   C462    1.427   .     A
C454   C456    1.426   .     A
C455   N487    1.365   .     A
C455   N535    1.433   .     S
C456   N538    1.436   .     S
C456   N488    1.370   .     A
C457   H483    1.079   .     S
C457   N487    1.355   .     A
C457   C459    1.400   .     A
C458   N488    1.355   .     A
C458   H484    1.073   .     S
C458   C460    1.400   .     A
C459   C461    1.413   .     A
C459   H485    1.074   .     S
C460   C462    1.411   .     A
C460   H486    1.076   .     S
C461   C1002   1.541   1_554 S
C462   C1001   1.541   .     S
C463   C465    1.408   .     S
C463   O493    1.267   .     A
C463   O495    1.287   .     A
C464   O496    1.284   .     A
C464   C466    1.400   .     S
C464   O494    1.267   .     A
C466   C285    1.349   1_655 S
C466   S324    1.784   1_655 S
C467   C477    1.407   .     A
C467   N509    1.437   .     S
C467   C469    1.398   .     A
C468   C470    1.401   .     A
C468   C478    1.409   .     A
C468   N512    1.436   .     S
C469   C471    1.428   .     A
C469   S515    1.788   .     S
C470   S520    1.795   .     S
C470   C472    1.428   .     A
C471   C473    1.401   .     A
C472   C474    1.397   .     A
C473   H479    1.084   .     S
C473   C475    1.375   .     A
C474   C476    1.373   .     A
C474   H480    1.084   .     S
C475   H481    1.084   .     S
C475   C477    1.392   .     A
C476   H482    1.084   .     S
C476   C478    1.392   .     A
C478   C207    1.447   1_565 S
N487   Zn498   2.006   .     S
N488   Zn497   2.006   .     S
O489   Zn497   2.023   .     S
O490   Zn498   2.023   .     S
O491   Zn498   1.986   .     S
O492   Zn497   1.986   .     S
O493   Zn497   1.992   .     S
O494   Zn498   1.992   .     S
O495   Zn498   1.985   .     S
O496   Zn497   1.985   .     S
S499   O501    1.502   .     D
S499   O500    1.502   .     D
S499   C285    1.789   1_655 S
S499   O322    1.681   1_655 S
O502   H503    0.991   .     S
S504   O505    1.502   .     D
S504   O506    1.501   .     D
O507   H508    0.991   .     S
O507   S324    1.678   1_655 S
H510   N239    1.046   1_565 S
H511   N239    1.043   1_565 S
N512   H243    1.046   1_565 S
N512   H244    1.043   1_565 S
S515   O518    1.683   .     S
S515   O517    1.503   .     D
S515   O516    1.499   .     D
O518   H519    0.990   .     S
S520   O521    1.499   .     D
S520   O523    1.680   .     S
S520   O522    1.503   .     D
O523   H524    0.990   .     S
S525   O527    1.503   .     D
S525   O528    1.682   .     S
S525   O1066   1.503   1_554 S
O526   S1065   1.503   .     S
O528   H529    0.991   .     S
S530   O532    1.504   .     D
S530   O531    1.504   .     D
S530   O1073   1.683   .     S
O533   H534    0.991   .     S
O533   S1070   1.683   1_554 S
N535   H536    1.045   .     S
N535   H537    1.042   .     S
N538   H540    1.041   .     S
N538   H539    1.044   .     S
C541   C561    1.459   .     S
C541   O581    1.301   .     A
C541   O579    1.281   .     A
C542   C562    1.448   .     S
C542   O582    1.300   .     A
C542   O580    1.277   .     A
C543   S615    1.788   .     S
C543   C545    1.425   .     A
C543   C551    1.431   .     A
C544   S620    1.786   .     S
C544   C552    1.427   .     A
C544   C546    1.426   .     A
C545   N577    1.365   .     A
C545   N625    1.433   .     S
C546   N628    1.436   .     S
C546   N578    1.370   .     A
C547   H573    1.079   .     S
C547   N577    1.355   .     A
C547   C549    1.400   .     A
C548   N578    1.355   .     A
C548   H574    1.073   .     S
C548   C550    1.400   .     A
C549   C551    1.413   .     A
C549   H575    1.074   .     S
C550   C552    1.411   .     A
C550   H576    1.076   .     S
C552   C11     1.541   1_556 S
C553   C555    1.408   .     S
C553   O583    1.267   .     A
C553   O585    1.287   .     A
C554   O586    1.284   .     A
C554   C556    1.400   .     S
C554   O584    1.267   .     A
C555   C736    1.349   1_455 S
C555   S769    1.789   1_455 S
C556   C645    1.349   .     S
C556   S684    1.784   .     S
C557   C567    1.407   .     A
C557   N599    1.437   .     S
C557   C559    1.398   .     A
C558   C560    1.401   .     A
C558   C568    1.409   .     A
C558   N602    1.436   .     S
C559   C561    1.428   .     A
C559   S605    1.788   .     S
C560   S610    1.795   .     S
C560   C562    1.428   .     A
C561   C563    1.401   .     A
C562   C564    1.397   .     A
C563   H569    1.084   .     S
C563   C565    1.375   .     A
C564   C566    1.373   .     A
C564   H570    1.084   .     S
C565   H571    1.084   .     S
C565   C567    1.392   .     A
C566   H572    1.084   .     S
C566   C568    1.392   .     A
C567   C838    1.447   1_545 S
C568   C837    1.447   .     S
N577   Zn588   2.006   .     S
N578   Zn587   2.006   .     S
O579   Zn587   2.023   .     S
O580   Zn588   2.023   .     S
O581   Zn588   1.986   .     S
O582   Zn587   1.986   .     S
O583   Zn587   1.992   .     S
O584   Zn588   1.992   .     S
O585   Zn588   1.985   .     S
O586   Zn587   1.985   .     S
S589   O591    1.502   .     D
S589   O590    1.502   .     D
S589   C645    1.789   .     S
S589   O682    1.681   .     S
O592   H593    0.991   .     S
O592   S769    1.681   1_455 S
S594   O595    1.502   .     D
S594   O596    1.501   .     D
S594   C736    1.784   1_455 S
S594   O777    1.678   1_455 S
O597   H598    0.991   .     S
O597   S684    1.678   .     S
N599   H870    1.046   1_545 S
N599   H871    1.043   1_545 S
H600   N869    1.046   .     S
H601   N869    1.043   .     S
N602   H873    1.046   .     S
N602   H874    1.043   .     S
H603   N872    1.046   1_545 S
H604   N872    1.043   1_545 S
S605   O608    1.683   .     S
S605   O607    1.503   .     D
S605   O606    1.499   .     D
O608   H609    0.990   .     S
S610   O611    1.499   .     D
S610   O613    1.680   .     S
S610   O612    1.503   .     D
O613   H614    0.990   .     S
S615   O617    1.503   .     D
S615   O618    1.682   .     S
O616   S75     1.503   1_556 S
O618   H619    0.991   .     S
S620   O622    1.504   .     D
S620   O621    1.504   .     D
S620   O83     1.683   1_556 S
O623   H624    0.991   .     S
N625   H626    1.045   .     S
N625   H627    1.042   .     S
N628   H630    1.041   .     S
N628   H629    1.044   .     S
C631   C651    1.459   .     S
C631   O671    1.301   .     A
C631   O669    1.281   .     A
C632   C652    1.448   .     S
C632   O672    1.300   .     A
C632   O670    1.277   .     A
C633   S705    1.788   .     S
C633   C635    1.425   .     A
C633   C641    1.431   .     A
C634   S710    1.786   .     S
C634   C642    1.427   .     A
C634   C636    1.426   .     A
C635   N667    1.365   .     A
C635   N715    1.433   .     S
C636   N718    1.436   .     S
C636   N668    1.370   .     A
C637   H663    1.079   .     S
C637   N667    1.355   .     A
C637   C639    1.400   .     A
C638   N668    1.355   .     A
C638   H664    1.073   .     S
C638   C640    1.400   .     A
C639   C641    1.413   .     A
C639   H665    1.074   .     S
C640   C642    1.411   .     A
C640   H666    1.076   .     S
C642   C101    1.541   1_556 S
C643   C645    1.408   .     S
C643   O673    1.267   .     A
C643   O675    1.287   .     A
C644   O676    1.284   .     A
C644   C646    1.400   .     S
C644   O674    1.267   .     A
C646   C735    1.349   .     S
C646   S774    1.784   .     S
C647   C657    1.407   .     A
C647   N689    1.437   .     S
C647   C649    1.398   .     A
C648   C650    1.401   .     A
C648   C658    1.409   .     A
C648   N692    1.436   .     S
C649   C651    1.428   .     A
C649   S695    1.788   .     S
C650   S700    1.795   .     S
C650   C652    1.428   .     A
C651   C653    1.401   .     A
C652   C654    1.397   .     A
C653   H659    1.084   .     S
C653   C655    1.375   .     A
C654   C656    1.373   .     A
C654   H660    1.084   .     S
C655   H661    1.084   .     S
C655   C657    1.392   .     A
C656   H662    1.084   .     S
C656   C658    1.392   .     A
C657   C928    1.447   1_545 S
C658   C927    1.447   .     S
N667   Zn678   2.006   .     S
N668   Zn677   2.006   .     S
O669   Zn677   2.023   .     S
O670   Zn678   2.023   .     S
O671   Zn678   1.986   .     S
O672   Zn677   1.986   .     S
O673   Zn677   1.992   .     S
O674   Zn678   1.992   .     S
O675   Zn678   1.985   .     S
O676   Zn677   1.985   .     S
S679   O681    1.502   .     D
S679   O680    1.502   .     D
S679   C735    1.789   .     S
S679   O772    1.681   .     S
O682   H683    0.991   .     S
S684   O685    1.502   .     D
S684   O686    1.501   .     D
O687   H688    0.991   .     S
O687   S774    1.678   .     S
N689   H960    1.046   1_545 S
N689   H961    1.043   1_545 S
H690   N959    1.046   .     S
H691   N959    1.043   .     S
N692   H963    1.046   .     S
N692   H964    1.043   .     S
H693   N962    1.046   1_545 S
H694   N962    1.043   1_545 S
S695   O698    1.683   .     S
S695   O697    1.503   .     D
S695   O696    1.499   .     D
O698   H699    0.990   .     S
S700   O701    1.499   .     D
S700   O703    1.680   .     S
S700   O702    1.503   .     D
O703   H704    0.990   .     S
S705   O707    1.503   .     D
S705   O708    1.682   .     S
O706   S165    1.503   1_556 S
O708   H709    0.991   .     S
S710   O712    1.504   .     D
S710   O711    1.504   .     D
S710   O173    1.683   1_556 S
O713   H714    0.991   .     S
N715   H716    1.045   .     S
N715   H717    1.042   .     S
N718   H720    1.041   .     S
N718   H719    1.044   .     S
C721   C741    1.459   .     S
C721   O761    1.301   .     A
C721   O759    1.281   .     A
C722   C742    1.448   .     S
C722   O762    1.300   .     A
C722   O760    1.277   .     A
C723   S795    1.788   .     S
C723   C725    1.425   .     A
C723   C731    1.431   .     A
C724   S800    1.786   .     S
C724   C732    1.427   .     A
C724   C726    1.426   .     A
C725   N757    1.365   .     A
C725   N805    1.433   .     S
C726   N808    1.436   .     S
C726   N758    1.370   .     A
C727   H753    1.079   .     S
C727   N757    1.355   .     A
C727   C729    1.400   .     A
C728   N758    1.355   .     A
C728   H754    1.073   .     S
C728   C730    1.400   .     A
C729   C731    1.413   .     A
C729   H755    1.074   .     S
C730   C732    1.411   .     A
C730   H756    1.076   .     S
C732   C191    1.541   1_556 S
C733   C735    1.408   .     S
C733   O763    1.267   .     A
C733   O765    1.287   .     A
C734   O766    1.284   .     A
C734   C736    1.400   .     S
C734   O764    1.267   .     A
C736   C555    1.349   1_655 S
C736   S594    1.784   1_655 S
C737   C747    1.407   .     A
C737   N779    1.437   .     S
C737   C739    1.398   .     A
C738   C740    1.401   .     A
C738   C748    1.409   .     A
C738   N782    1.436   .     S
C739   C741    1.428   .     A
C739   S785    1.788   .     S
C740   S790    1.795   .     S
C740   C742    1.428   .     A
C741   C743    1.401   .     A
C742   C744    1.397   .     A
C743   H749    1.084   .     S
C743   C745    1.375   .     A
C744   C746    1.373   .     A
C744   H750    1.084   .     S
C745   H751    1.084   .     S
C745   C747    1.392   .     A
C746   H752    1.084   .     S
C746   C748    1.392   .     A
C747   C1018   1.447   1_545 S
C748   C1017   1.447   .     S
N757   Zn768   2.006   .     S
N758   Zn767   2.006   .     S
O759   Zn767   2.023   .     S
O760   Zn768   2.023   .     S
O761   Zn768   1.986   .     S
O762   Zn767   1.986   .     S
O763   Zn767   1.992   .     S
O764   Zn768   1.992   .     S
O765   Zn768   1.985   .     S
O766   Zn767   1.985   .     S
S769   O771    1.502   .     D
S769   O770    1.502   .     D
S769   C555    1.789   1_655 S
S769   O592    1.681   1_655 S
O772   H773    0.991   .     S
S774   O775    1.502   .     D
S774   O776    1.501   .     D
O777   H778    0.991   .     S
O777   S594    1.678   1_655 S
N779   H1050   1.046   1_545 S
N779   H1051   1.043   1_545 S
H780   N1049   1.046   .     S
H781   N1049   1.043   .     S
N782   H1053   1.046   .     S
N782   H1054   1.043   .     S
H783   N1052   1.046   1_545 S
H784   N1052   1.043   1_545 S
S785   O788    1.683   .     S
S785   O787    1.503   .     D
S785   O786    1.499   .     D
O788   H789    0.990   .     S
S790   O791    1.499   .     D
S790   O793    1.680   .     S
S790   O792    1.503   .     D
O793   H794    0.990   .     S
S795   O797    1.503   .     D
S795   O798    1.682   .     S
O796   S255    1.503   1_556 S
O798   H799    0.991   .     S
S800   O802    1.504   .     D
S800   O801    1.504   .     D
S800   O263    1.683   1_556 S
O803   H804    0.991   .     S
N805   H806    1.045   .     S
N805   H807    1.042   .     S
N808   H810    1.041   .     S
N808   H809    1.044   .     S
C811   C831    1.459   .     S
C811   O851    1.301   .     A
C811   O849    1.281   .     A
C812   C832    1.448   .     S
C812   O852    1.300   .     A
C812   O850    1.277   .     A
C813   S885    1.788   .     S
C813   C815    1.425   .     A
C813   C821    1.431   .     A
C814   S890    1.786   .     S
C814   C822    1.427   .     A
C814   C816    1.426   .     A
C815   N847    1.365   .     A
C815   N895    1.433   .     S
C816   N898    1.436   .     S
C816   N848    1.370   .     A
C817   H843    1.079   .     S
C817   N847    1.355   .     A
C817   C819    1.400   .     A
C818   N848    1.355   .     A
C818   H844    1.073   .     S
C818   C820    1.400   .     A
C819   C821    1.413   .     A
C819   H845    1.074   .     S
C820   C822    1.411   .     A
C820   H846    1.076   .     S
C822   C281    1.541   1_556 S
C823   C825    1.408   .     S
C823   O853    1.267   .     A
C823   O855    1.287   .     A
C824   O856    1.284   .     A
C824   C826    1.400   .     S
C824   O854    1.267   .     A
C825   C1006   1.349   1_455 S
C825   S1039   1.789   1_455 S
C826   C915    1.349   .     S
C826   S954    1.784   .     S
C827   C837    1.407   .     A
C827   N869    1.437   .     S
C827   C829    1.398   .     A
C828   C830    1.401   .     A
C828   C838    1.409   .     A
C828   N872    1.436   .     S
C829   C831    1.428   .     A
C829   S875    1.788   .     S
C830   S880    1.795   .     S
C830   C832    1.428   .     A
C831   C833    1.401   .     A
C832   C834    1.397   .     A
C833   H839    1.084   .     S
C833   C835    1.375   .     A
C834   C836    1.373   .     A
C834   H840    1.084   .     S
C835   H841    1.084   .     S
C835   C837    1.392   .     A
C836   H842    1.084   .     S
C836   C838    1.392   .     A
C838   C567    1.447   1_565 S
N847   Zn858   2.006   .     S
N848   Zn857   2.006   .     S
O849   Zn857   2.023   .     S
O850   Zn858   2.023   .     S
O851   Zn858   1.986   .     S
O852   Zn857   1.986   .     S
O853   Zn857   1.992   .     S
O854   Zn858   1.992   .     S
O855   Zn858   1.985   .     S
O856   Zn857   1.985   .     S
S859   O861    1.502   .     D
S859   O860    1.502   .     D
S859   C915    1.789   .     S
S859   O952    1.681   .     S
O862   H863    0.991   .     S
O862   S1039   1.681   1_455 S
S864   O865    1.502   .     D
S864   O866    1.501   .     D
S864   C1006   1.784   1_455 S
S864   O1047   1.678   1_455 S
O867   H868    0.991   .     S
O867   S954    1.678   .     S
H870   N599    1.046   1_565 S
H871   N599    1.043   1_565 S
N872   H603    1.046   1_565 S
N872   H604    1.043   1_565 S
S875   O878    1.683   .     S
S875   O877    1.503   .     D
S875   O876    1.499   .     D
O878   H879    0.990   .     S
S880   O881    1.499   .     D
S880   O883    1.680   .     S
S880   O882    1.503   .     D
O883   H884    0.990   .     S
S885   O887    1.503   .     D
S885   O888    1.682   .     S
O886   S345    1.503   1_556 S
O888   H889    0.991   .     S
S890   O892    1.504   .     D
S890   O891    1.504   .     D
S890   O353    1.683   1_556 S
O893   H894    0.991   .     S
N895   H896    1.045   .     S
N895   H897    1.042   .     S
N898   H900    1.041   .     S
N898   H899    1.044   .     S
C901   C921    1.459   .     S
C901   O941    1.301   .     A
C901   O939    1.281   .     A
C902   C922    1.448   .     S
C902   O942    1.300   .     A
C902   O940    1.277   .     A
C903   S975    1.788   .     S
C903   C905    1.425   .     A
C903   C911    1.431   .     A
C904   S980    1.786   .     S
C904   C912    1.427   .     A
C904   C906    1.426   .     A
C905   N937    1.365   .     A
C905   N985    1.433   .     S
C906   N988    1.436   .     S
C906   N938    1.370   .     A
C907   H933    1.079   .     S
C907   N937    1.355   .     A
C907   C909    1.400   .     A
C908   N938    1.355   .     A
C908   H934    1.073   .     S
C908   C910    1.400   .     A
C909   C911    1.413   .     A
C909   H935    1.074   .     S
C910   C912    1.411   .     A
C910   H936    1.076   .     S
C912   C371    1.541   1_556 S
C913   C915    1.408   .     S
C913   O943    1.267   .     A
C913   O945    1.287   .     A
C914   O946    1.284   .     A
C914   C916    1.400   .     S
C914   O944    1.267   .     A
C916   C1005   1.349   .     S
C916   S1044   1.784   .     S
C917   C927    1.407   .     A
C917   N959    1.437   .     S
C917   C919    1.398   .     A
C918   C920    1.401   .     A
C918   C928    1.409   .     A
C918   N962    1.436   .     S
C919   C921    1.428   .     A
C919   S965    1.788   .     S
C920   S970    1.795   .     S
C920   C922    1.428   .     A
C921   C923    1.401   .     A
C922   C924    1.397   .     A
C923   H929    1.084   .     S
C923   C925    1.375   .     A
C924   C926    1.373   .     A
C924   H930    1.084   .     S
C925   H931    1.084   .     S
C925   C927    1.392   .     A
C926   H932    1.084   .     S
C926   C928    1.392   .     A
C928   C657    1.447   1_565 S
N937   Zn948   2.006   .     S
N938   Zn947   2.006   .     S
O939   Zn947   2.023   .     S
O940   Zn948   2.023   .     S
O941   Zn948   1.986   .     S
O942   Zn947   1.986   .     S
O943   Zn947   1.992   .     S
O944   Zn948   1.992   .     S
O945   Zn948   1.985   .     S
O946   Zn947   1.985   .     S
S949   O951    1.502   .     D
S949   O950    1.502   .     D
S949   C1005   1.789   .     S
S949   O1042   1.681   .     S
O952   H953    0.991   .     S
S954   O955    1.502   .     D
S954   O956    1.501   .     D
O957   H958    0.991   .     S
O957   S1044   1.678   .     S
H960   N689    1.046   1_565 S
H961   N689    1.043   1_565 S
N962   H693    1.046   1_565 S
N962   H694    1.043   1_565 S
S965   O968    1.683   .     S
S965   O967    1.503   .     D
S965   O966    1.499   .     D
O968   H969    0.990   .     S
S970   O971    1.499   .     D
S970   O973    1.680   .     S
S970   O972    1.503   .     D
O973   H974    0.990   .     S
S975   O977    1.503   .     D
S975   O978    1.682   .     S
O976   S435    1.503   1_556 S
O978   H979    0.991   .     S
S980   O982    1.504   .     D
S980   O981    1.504   .     D
S980   O443    1.683   1_556 S
O983   H984    0.991   .     S
N985   H986    1.045   .     S
N985   H987    1.042   .     S
N988   H990    1.041   .     S
N988   H989    1.044   .     S
C991   C1011   1.459   .     S
C991   O1031   1.301   .     A
C991   O1029   1.281   .     A
C992   C1012   1.448   .     S
C992   O1032   1.300   .     A
C992   O1030   1.277   .     A
C993   S1065   1.788   .     S
C993   C995    1.425   .     A
C993   C1001   1.431   .     A
C994   S1070   1.786   .     S
C994   C1002   1.427   .     A
C994   C996    1.426   .     A
C995   N1027   1.365   .     A
C995   N1075   1.433   .     S
C996   N1078   1.436   .     S
C996   N1028   1.370   .     A
C997   H1023   1.079   .     S
C997   N1027   1.355   .     A
C997   C999    1.400   .     A
C998   N1028   1.355   .     A
C998   H1024   1.073   .     S
C998   C1000   1.400   .     A
C999   C1001   1.413   .     A
C999   H1025   1.074   .     S
C1000  C1002   1.411   .     A
C1000  H1026   1.076   .     S
C1002  C461    1.541   1_556 S
C1003  C1005   1.408   .     S
C1003  O1033   1.267   .     A
C1003  O1035   1.287   .     A
C1004  O1036   1.284   .     A
C1004  C1006   1.400   .     S
C1004  O1034   1.267   .     A
C1006  C825    1.349   1_655 S
C1006  S864    1.784   1_655 S
C1007  C1017   1.407   .     A
C1007  N1049   1.437   .     S
C1007  C1009   1.398   .     A
C1008  C1010   1.401   .     A
C1008  C1018   1.409   .     A
C1008  N1052   1.436   .     S
C1009  C1011   1.428   .     A
C1009  S1055   1.788   .     S
C1010  S1060   1.795   .     S
C1010  C1012   1.428   .     A
C1011  C1013   1.401   .     A
C1012  C1014   1.397   .     A
C1013  H1019   1.084   .     S
C1013  C1015   1.375   .     A
C1014  C1016   1.373   .     A
C1014  H1020   1.084   .     S
C1015  H1021   1.084   .     S
C1015  C1017   1.392   .     A
C1016  H1022   1.084   .     S
C1016  C1018   1.392   .     A
C1018  C747    1.447   1_565 S
N1027  Zn1038  2.006   .     S
N1028  Zn1037  2.006   .     S
O1029  Zn1037  2.023   .     S
O1030  Zn1038  2.023   .     S
O1031  Zn1038  1.986   .     S
O1032  Zn1037  1.986   .     S
O1033  Zn1037  1.992   .     S
O1034  Zn1038  1.992   .     S
O1035  Zn1038  1.985   .     S
O1036  Zn1037  1.985   .     S
S1039  O1041   1.502   .     D
S1039  O1040   1.502   .     D
S1039  C825    1.789   1_655 S
S1039  O862    1.681   1_655 S
O1042  H1043   0.991   .     S
S1044  O1045   1.502   .     D
S1044  O1046   1.501   .     D
O1047  H1048   0.991   .     S
O1047  S864    1.678   1_655 S
H1050  N779    1.046   1_565 S
H1051  N779    1.043   1_565 S
N1052  H783    1.046   1_565 S
N1052  H784    1.043   1_565 S
S1055  O1058   1.683   .     S
S1055  O1057   1.503   .     D
S1055  O1056   1.499   .     D
O1058  H1059   0.990   .     S
S1060  O1061   1.499   .     D
S1060  O1063   1.680   .     S
S1060  O1062   1.503   .     D
O1063  H1064   0.990   .     S
S1065  O1067   1.503   .     D
S1065  O1068   1.682   .     S
O1066  S525    1.503   1_556 S
O1068  H1069   0.991   .     S
S1070  O1072   1.504   .     D
S1070  O1071   1.504   .     D
S1070  O533    1.683   1_556 S
O1073  H1074   0.991   .     S
N1075  H1076   1.045   .     S
N1075  H1077   1.042   .     S
N1078  H1080   1.041   .     S
N1078  H1079   1.044   .     S
